@<TRIPOS>MOLECULE
tmp/5fbsA00.pdb
 206 197 0 0 0
SMALL
GASTEIGER

@<TRIPOS>ATOM
      1  N        -25.9740  -13.6310   60.4370 N.3    21  LYS21      -0.1245
      2  CA       -24.6210  -13.9770   60.8590 C.3    21  LYS21       0.1561
      3  C        -24.5600  -15.3850   61.4470 C.2    21  LYS21       0.2260
      4  O        -23.6040  -16.1240   61.2150 O.2    21  LYS21      -0.2867
      5  CB       -24.1050  -12.9580   61.8800 C.3    21  LYS21       0.0271
      6  CG       -22.6650  -13.1850   62.3150 C.3    21  LYS21       0.0035
      7  CD       -22.2510  -12.2010   63.3980 C.3    21  LYS21       0.0206
      8  CE       -22.3790  -10.7660   62.9210 C.3    21  LYS21       0.1093
      9  NZ       -22.0490   -9.8000   64.0040 N.3    21  LYS21      -0.1314
     10  N        -14.7200  -21.8650   64.7350 N.3    37  PRO37      -0.2116
     11  CA       -14.7120  -21.8660   66.2030 C.3    37  PRO37       0.1372
     12  C        -16.0700  -22.2370   66.7920 C.2    37  PRO37       0.2244
     13  O        -17.0720  -21.5880   66.4870 O.2    37  PRO37      -0.2868
     14  CB       -14.3390  -20.4220   66.5460 C.3    37  PRO37       0.0268
     15  CG       -13.5100  -19.9810   65.3960 C.3    37  PRO37       0.0207
     16  CD       -14.1140  -20.6400   64.1850 C.3    37  PRO37       0.0892
     17  N        -16.6710  -14.8940   72.2770 N.3   100  ALA100     -0.1245
     18  CA       -17.0470  -13.6580   71.6020 C.3   100  ALA100      0.1562
     19  C        -18.5620  -13.4860   71.6070 C.2   100  ALA100      0.2260
     20  O        -19.3020  -14.3960   71.2300 O.2   100  ALA100     -0.2867
     21  CB       -16.5140  -13.6410   70.1790 C.3   100  ALA100      0.0290
     22  N        -21.3880  -11.9090   69.8020 N.3   102  ARG102     -0.1231
     23  CA       -21.7160  -11.2990   68.5190 C.3   102  ARG102      0.1694
     24  C        -23.2220  -11.3060   68.2720 C.2   102  ARG102      0.2592
     25  O        -23.8850  -12.3250   68.4560 O.2   102  ARG102     -0.2718
     26  CB       -20.9940  -12.0290   67.3840 C.3   102  ARG102      0.0321
     27  CG       -19.5030  -12.2140   67.6130 C.3   102  ARG102      0.0489
     28  CD       -18.8960  -13.1270   66.5620 C.3   102  ARG102      0.2205
     29  NE       -18.9280  -12.5290   65.2300 N.pl3 102  ARG102     -0.0865
     30  CZ       -18.6830  -13.1960   64.1070 C.cat 102  ARG102      0.5346
     31  NH1      -18.3940  -14.4880   64.1550 N.pl3 102  ARG102      0.1354
     32  NH2      -18.7310  -12.5750   62.9360 N.pl3 102  ARG102      0.1354
     33  N        -23.7580  -10.1660   67.8520 N.am  103  SER103     -0.1952
     34  CA       -25.1830  -10.0610   67.5680 C.3   103  SER103      0.1924
     35  C        -25.4650  -10.3090   66.0890 C.2   103  SER103      0.2314
     36  O        -24.6620   -9.9500   65.2270 O.2   103  SER103     -0.2863
     37  CB       -25.7120   -8.6880   67.9870 C.3   103  SER103      0.2116
     38  OG       -24.9670   -7.6460   67.3850 O.3   103  SER103     -0.2180
     39  N        -25.6260   -2.6790   61.4900 N.3   108  GLN108     -0.1231
     40  CA       -24.6180   -3.0950   62.4530 C.3   108  GLN108      0.1698
     41  C        -25.0820   -2.9100   63.8940 C.2   108  GLN108      0.2592
     42  O        -25.7860   -1.9510   64.2120 O.2   108  GLN108     -0.2718
     43  CB       -23.3150   -2.3230   62.2260 C.3   108  GLN108      0.0381
     44  CG       -22.2210   -3.1980   61.6710 C.3   108  GLN108      0.0905
     45  CD       -21.8040   -4.2570   62.6650 C.2   108  GLN108      0.2608
     46  OE1      -22.3420   -5.3630   62.6610 O.2   108  GLN108     -0.2717
     47  NE2      -20.8260   -3.9370   63.5050 N.am  108  GLN108     -0.0878
     48  N        -24.6860   -3.8370   64.7610 N.am  109  HIS109     -0.1976
     49  CA       -24.9540   -3.7130   66.1880 C.3   109  HIS109      0.1656
     50  C        -23.6800   -3.9900   66.9790 C.2   109  HIS109      0.2291
     51  O        -22.5920   -4.0530   66.4090 O.2   109  HIS109     -0.2864
     52  CB       -26.0750   -4.6600   66.6210 C.3   109  HIS109      0.0771
     53  CG       -27.3420   -4.4920   65.8410 C.ar  109  HIS109      0.0820
     54  ND1      -28.3240   -3.5940   66.1990 N.ar  109  HIS109     -0.2267
     55  CD2      -27.7860   -5.1090   64.7210 C.ar  109  HIS109      0.1154
     56  CE1      -29.3180   -3.6620   65.3310 C.ar  109  HIS109      0.1986
     57  NE2      -29.0170   -4.5750   64.4250 N.ar  109  HIS109     -0.2212
     58  N        -20.8140   -5.8960   69.1050 N.3   111  THR111     -0.1218
     59  CA       -20.1530   -7.1870   69.2400 C.3   111  THR111      0.1862
     60  C        -18.9980   -7.0570   70.2290 C.2   111  THR111      0.2287
     61  O        -18.2230   -6.1020   70.1630 O.2   111  THR111     -0.2866
     62  CB       -19.6390   -7.7060   67.8840 C.3   111  THR111      0.1770
     63  OG1      -20.7280   -8.2800   67.1500 O.3   111  THR111     -0.2211
     64  CG2      -18.5630   -8.7650   68.0770 C.3   111  THR111      0.0375
     65  N        -15.6410   -8.7920   72.1640 N.3   113  LEU113     -0.1245
     66  CA       -14.6000   -9.8080   72.0780 C.3   113  LEU113      0.1561
     67  C        -13.9800  -10.1220   73.4330 C.2   113  LEU113      0.2260
     68  O        -13.8020   -9.2320   74.2660 O.2   113  LEU113     -0.2867
     69  CB       -13.5040   -9.3560   71.1130 C.3   113  LEU113      0.0270
     70  CG       -13.9000   -9.1120   69.6580 C.3   113  LEU113      0.0019
     71  CD1      -12.6840   -8.6810   68.8490 C.3   113  LEU113      0.0001
     72  CD2      -14.5410  -10.3590   69.0590 C.3   113  LEU113      0.0001
     73  N        -19.4090  -17.8110   70.5530 N.3   149  GLN149     -0.1231
     74  CA       -18.4500  -18.8160   70.1010 C.3   149  GLN149      0.1698
     75  C        -17.0760  -18.6400   70.7410 C.2   149  GLN149      0.2592
     76  O        -16.7770  -17.5970   71.3250 O.2   149  GLN149     -0.2718
     77  CB       -18.3150  -18.7890   68.5750 C.3   149  GLN149      0.0381
     78  CG       -17.6790  -17.5280   68.0180 C.3   149  GLN149      0.0905
     79  CD       -17.3460  -17.6530   66.5440 C.2   149  GLN149      0.2608
     80  OE1      -17.2890  -18.7570   66.0000 O.2   149  GLN149     -0.2717
     81  NE2      -17.1270  -16.5200   65.8870 N.am  149  GLN149     -0.0878
     82  N        -16.2490  -19.6750   70.6170 N.am  150  GLN150     -0.1966
     83  CA       -14.9160  -19.6930   71.2110 C.3   150  GLN150      0.1733
     84  C        -14.0510  -18.5370   70.7230 C.2   150  GLN150      0.2616
     85  O        -13.8820  -18.3390   69.5210 O.2   150  GLN150     -0.2715
     86  CB       -14.2220  -21.0210   70.9100 C.3   150  GLN150      0.0408
     87  CG       -14.9410  -22.2310   71.4750 C.3   150  GLN150      0.0908
     88  CD       -14.2900  -23.5350   71.0670 C.2   150  GLN150      0.2608
     89  OE1      -13.4450  -23.5670   70.1720 O.2   150  GLN150     -0.2717
     90  NE2      -14.6770  -24.6210   71.7250 N.am  150  GLN150     -0.0878
     91  N        -13.5050  -17.7810   71.6690 N.am  151  MET151     -0.1963
     92  CA       -12.6810  -16.6210   71.3550 C.3   151  MET151      0.1736
     93  C        -11.2830  -17.0330   70.9040 C.2   151  MET151      0.2616
     94  O        -10.5370  -17.6660   71.6530 O.2   151  MET151     -0.2715
     95  CB       -12.5890  -15.6940   72.5680 C.3   151  MET151      0.0427
     96  CG       -11.7830  -14.4310   72.3240 C.3   151  MET151      0.0599
     97  SD       -12.5790  -13.3390   71.1340 S.3   151  MET151     -0.1393
     98  CE       -11.2760  -12.1360   70.8600 C.3   151  MET151      0.0692
     99  N        -10.9330  -16.6670   69.6760 N.am  152  ILE152     -0.1977
    100  CA        -9.6130  -16.9650   69.1330 C.3   152  ILE152      0.1596
    101  C         -8.6370  -15.8330   69.4520 C.2   152  ILE152      0.2287
    102  O         -9.0160  -14.6610   69.4570 O.2   152  ILE152     -0.2864
    103  CB        -9.6750  -17.1890   67.6040 C.3   152  ILE152      0.0276
    104  CG1      -10.7660  -18.2030   67.2590 C.3   152  ILE152      0.0022
    105  CG2       -8.3290  -17.6580   67.0620 C.3   152  ILE152      0.0022
    106  CD1      -10.5170  -19.5840   67.8360 C.3   152  ILE152      0.0001
    107  N         -5.1080  -11.4570   61.4780 N.3   157  SER157     -0.1202
    108  CA        -6.5230  -11.5450   61.1390 C.3   157  SER157      0.2020
    109  C         -6.8330  -10.6210   59.9750 C.2   157  SER157      0.2619
    110  O         -5.9680   -9.8690   59.5260 O.2   157  SER157     -0.2717
    111  CB        -7.3960  -11.1870   62.3410 C.3   157  SER157      0.2103
    112  OG        -7.1410   -9.8590   62.7690 O.3   157  SER157     -0.2182
    113  N         -8.0680  -10.6720   59.4880 N.am  158  GLY158     -0.1942
    114  CA        -8.4800   -9.7860   58.4170 C.3   158  GLY158      0.2014
    115  C         -9.6250  -10.3010   57.5710 C.2   158  GLY158      0.2638
    116  O        -10.3590  -11.2040   57.9740 O.2   158  GLY158     -0.2714
    117  N         -9.7700   -9.7190   56.3840 N.am  159  ILE159     -0.1977
    118  CA       -10.8820  -10.0310   55.4960 C.3   159  ILE159      0.1596
    119  C        -10.3990  -10.7060   54.2100 C.2   159  ILE159      0.2287
    120  O         -9.2290  -10.5950   53.8370 O.2   159  ILE159     -0.2864
    121  CB       -11.6750   -8.7550   55.1430 C.3   159  ILE159      0.0276
    122  CG1      -11.6580   -7.7780   56.3210 C.3   159  ILE159      0.0022
    123  CG2      -13.1040   -9.0950   54.7490 C.3   159  ILE159      0.0022
    124  CD1      -12.4390   -6.5070   56.0760 C.3   159  ILE159      0.0001
    125  N         -6.2690   -8.8270   66.5730 N.3   181  LEU181     -0.1231
    126  CA        -7.6970   -9.0820   66.4220 C.3   181  LEU181      0.1693
    127  C         -8.3390   -8.1880   65.3690 C.2   181  LEU181      0.2593
    128  O         -7.7160   -7.2530   64.8660 O.2   181  LEU181     -0.2718
    129  CB        -8.4070   -8.8840   67.7610 C.3   181  LEU181      0.0284
    130  CG        -7.9280   -9.7680   68.9120 C.3   181  LEU181      0.0019
    131  CD1       -8.4120   -9.2220   70.2450 C.3   181  LEU181      0.0001
    132  CD2       -8.4160  -11.1880   68.7050 C.3   181  LEU181      0.0001
    133  N         -9.5930   -8.4820   65.0430 N.am  182  GLY182     -0.1942
    134  CA       -10.3710   -7.6260   64.1680 C.3   182  GLY182      0.2014
    135  C        -11.0690   -6.5480   64.9760 C.2   182  GLY182      0.2639
    136  O        -10.9860   -6.5370   66.2040 O.2   182  GLY182     -0.2714
    137  N        -11.7570   -5.6400   64.2920 N.am  183  GLU183     -0.1963
    138  CA       -12.4810   -4.5710   64.9700 C.3   183  GLU183      0.1733
    139  C        -13.9860   -4.6770   64.7430 C.2   183  GLU183      0.2616
    140  O        -14.4370   -4.9340   63.6270 O.2   183  GLU183     -0.2715
    141  CB       -11.9810   -3.2010   64.5020 C.3   183  GLU183      0.0429
    142  CG       -10.5940   -2.8310   65.0040 C.3   183  GLU183      0.1163
    143  CD       -10.1630   -1.4410   64.5640 C.2   183  GLU183      0.3649
    144  OE1      -10.2360   -1.1450   63.3520 O.co2 183  GLU183     -0.2457
    145  OE2       -9.7530   -0.6420   65.4320 O.co2 183  GLU183     -0.2457
    146  N        -14.7570   -4.4840   65.8080 N.am  184  ALA184     -0.1977
    147  CA       -16.2090   -4.4040   65.6910 C.3   184  ALA184      0.1597
    148  C        -16.5960   -3.0570   65.0850 C.2   184  ALA184      0.2287
    149  O        -17.4450   -2.9800   64.1960 O.2   184  ALA184     -0.2864
    150  CB       -16.8710   -4.5980   67.0460 C.3   184  ALA184      0.0319
    151  N        -14.4030  -13.5330   56.7100 N.3   263  GLU263     -0.1231
    152  CA       -13.5630  -13.0330   57.7960 C.3   263  GLU263      0.1699
    153  C        -12.7730  -14.1790   58.4240 C.2   263  GLU263      0.2592
    154  O        -13.3470  -15.2040   58.7920 O.2   263  GLU263     -0.2718
    155  CB       -14.4170  -12.3320   58.8550 C.3   263  GLU263      0.0402
    156  CG       -15.2450  -11.1750   58.3140 C.3   263  GLU263      0.1161
    157  CD       -16.1100  -10.5210   59.3770 C.2   263  GLU263      0.3649
    158  OE1      -16.0090  -10.9140   60.5580 O.co2 263  GLU263     -0.2457
    159  OE2      -16.8960   -9.6140   59.0300 O.co2 263  GLU263     -0.2457
    160  N        -11.4600  -14.0020   58.5540 N.am  264  TRP264     -0.1962
    161  CA       -10.5880  -15.0790   59.0160 C.3   264  TRP264      0.1771
    162  C         -9.6610  -14.6660   60.1610 C.2   264  TRP264      0.2619
    163  O         -9.4000  -13.4820   60.3690 O.2   264  TRP264     -0.2715
    164  CB        -9.7520  -15.6040   57.8470 C.3   264  TRP264      0.0590
    165  CG        -8.9750  -14.5300   57.1440 C.ar  264  TRP264      0.0006
    166  CD1       -9.3820  -13.7920   56.0690 C.ar  264  TRP264      0.0946
    167  CD2       -7.6570  -14.0680   57.4720 C.ar  264  TRP264      0.0152
    168  NE1       -8.3980  -12.9020   55.7050 N.ar  264  TRP264     -0.2442
    169  CE2       -7.3300  -13.0510   56.5510 C.ar  264  TRP264      0.0810
    170  CE3       -6.7220  -14.4160   58.4520 C.ar  264  TRP264      0.0012
    171  CZ2       -6.1090  -12.3800   56.5840 C.ar  264  TRP264      0.0191
    172  CZ3       -5.5100  -13.7490   58.4810 C.ar  264  TRP264      0.0001
    173  CH2       -5.2140  -12.7430   57.5540 C.ar  264  TRP264      0.0015
    174  N         -9.1710  -15.6590   60.8990 N.am  265  CYS265     -0.1968
    175  CA        -8.1830  -15.4410   61.9540 C.3   265  CYS265      0.1712
    176  C         -7.0860  -16.5050   61.8720 C.2   265  CYS265      0.2296
    177  O         -7.3510  -17.6510   61.5030 O.2   265  CYS265     -0.2864
    178  CB        -8.8400  -15.4660   63.3370 C.3   265  CYS265      0.0983
    179  SG       -10.0090  -14.1230   63.6580 S.3   265  CYS265     -0.0798
    180  N        -14.6820  -17.0180   60.9860 N.3   274  VAL274     -0.1231
    181  CA       -15.6170  -16.4580   61.9550 C.3   274  VAL274      0.1692
    182  C        -16.8360  -15.8150   61.2980 C.2   274  VAL274      0.2591
    183  O        -17.8050  -15.4830   61.9820 O.2   274  VAL274     -0.2718
    184  CB       -14.9280  -15.4110   62.8540 C.3   274  VAL274      0.0266
    185  CG1      -13.8230  -16.0620   63.6740 C.3   274  VAL274      0.0020
    186  CG2      -14.3760  -14.2640   62.0160 C.3   274  VAL274      0.0020
    187  N        -16.7860  -15.6350   59.9800 N.am  275  GLN275     -0.1979
    188  CA       -17.9170  -15.0760   59.2410 C.3   275  GLN275      0.1601
    189  C        -17.7340  -15.2330   57.7320 C.2   275  GLN275      0.2287
    190  O        -16.6130  -15.2000   57.2250 O.2   275  GLN275     -0.2864
    191  CB       -18.1160  -13.5950   59.5930 C.3   275  GLN275      0.0394
    192  CG       -19.4370  -13.0090   59.1050 C.3   275  GLN275      0.0908
    193  CD       -19.7290  -11.6430   59.6980 C.2   275  GLN275      0.2608
    194  OE1      -18.9410  -11.1070   60.4760 O.2   275  GLN275     -0.2717
    195  NE2      -20.8720  -11.0750   59.3360 N.am  275  GLN275     -0.0878
    196  N        -20.0200  -13.9860   54.0890 N.3   277  ARG277     -0.1245
    197  CA       -21.1940  -13.3790   53.4640 C.3   277  ARG277      0.1563
    198  C        -21.0600  -13.3320   51.9470 C.2   277  ARG277      0.2260
    199  O        -19.9640  -13.1430   51.4240 O.2   277  ARG277     -0.2867
    200  CB       -21.4220  -11.9590   53.9850 C.3   277  ARG277      0.0307
    201  CG       -21.3940  -11.8010   55.4900 C.3   277  ARG277      0.0489
    202  CD       -21.7480  -10.3710   55.8720 C.3   277  ARG277      0.2205
    203  NE       -21.4000   -9.4280   54.8100 N.pl3 277  ARG277     -0.0865
    204  CZ       -20.2310   -8.8020   54.7130 C.cat 277  ARG277      0.5346
    205  NH1      -19.2840   -9.0120   55.6160 N.pl3 277  ARG277      0.1354
    206  NH2      -20.0080   -7.9640   53.7090 N.pl3 277  ARG277      0.1354
@<TRIPOS>BOND
     1   199   198    2
     2   198   197    1
     3   197   200    1
     4   197   196    1
     5   206   204    1
     6   120   119    2
     7   200   201    1
     8   119   118    1
     9   204   203    2
    10   204   205    1
    11   123   121    1
    12   203   202    1
    13   121   118    1
    14   121   122    1
    15   201   202    1
    16   118   117    1
    17   168   166   ar
    18   168   169   ar
    19   166   165   ar
    20   124   122    1
    21   117   115   am
    22   169   171   ar
    23   169   167   ar
    24   171   173   ar
    25   151   152    1
    26   165   167   ar
    27   165   164    1
    28   190   189    2
    29   167   170   ar
    30   173   172   ar
    31   115   116    2
    32   115   114    1
    33   189   188    1
    34   152   153    1
    35   152   155    1
    36   164   161    1
    37   156   155    1
    38   156   157    1
    39   114   113    1
    40   153   160   am
    41   153   154    2
    42   170   172   ar
    43   160   161    1
    44   161   162    1
    45   159   157   ar
    46   192   191    1
    47   192   193    1
    48   188   191    1
    49   188   187    1
    50   195   193   am
    51   157   158   ar
    52   113   109   am
    53   110   109    2
    54   193   194    2
    55   109   108    1
    56   187   182   am
    57   162   163    2
    58   162   174   am
    59     1     2    1
    60     2     3    1
    61     2     5    1
    62   174   175    1
    63   180   181    1
    64   108   107    1
    65   108   111    1
    66     4     3    2
    67   182   181    1
    68   182   183    2
    69    39    40    1
    70   177   176    2
    71    44    43    1
    72    44    45    1
    73   176   175    1
    74     5     6    1
    75   175   178    1
    76   181   184    1
    77   186   184    1
    78    43    40    1
    79     6     7    1
    80   111   112    1
    81    40    41    1
    82    46    45    2
    83    45    47   am
    84   184   185    1
    85     8     7    1
    86     8     9    1
    87    32    30    1
    88   178   179    1
    89   144   143   ar
    90   140   139    2
    91    41    42    2
    92    41    48   am
    93    30    31    1
    94    30    29    2
    95   134   135    1
    96   134   133    1
    97    16    10    1
    98    16    15    1
    99   149   148    2
   100   137   138    1
   101   137   135   am
   102    57    55   ar
   103    57    56   ar
   104   141   138    1
   105   141   142    1
   106   143   142    1
   107   143   145   ar
   108    55    53   ar
   109    10    11    1
   110   139   138    1
   111   139   146   am
   112    48    49    1
   113   128   127    2
   114   135   136    2
   115   133   127   am
   116   148   147    1
   117    36    35    2
   118    29    28    1
   119    56    54   ar
   120   127   126    1
   121    15    14    1
   122   147   146    1
   123   147   150    1
   124    53    54   ar
   125    53    52    1
   126    81    79   am
   127    80    79    2
   128    35    34    1
   129    49    52    1
   130    49    50    1
   131    11    14    1
   132    11    12    1
   133    51    50    2
   134   126   125    1
   135   126   129    1
   136    13    12    2
   137    79    78    1
   138    28    27    1
   139   105   103    1
   140    63    62    1
   141   104   103    1
   142   104   106    1
   143    26    27    1
   144    26    23    1
   145    38    37    1
   146    34    33    1
   147    34    37    1
   148   103   100    1
   149   129   130    1
   150    33    24   am
   151    62    64    1
   152    62    59    1
   153    78    77    1
   154    24    25    2
   155    24    23    1
   156    23    22    1
   157    77    74    1
   158   132   130    1
   159    71    70    1
   160   130   131    1
   161    72    70    1
   162    58    59    1
   163   100   101    1
   164   100    99    1
   165    59    60    1
   166   101   102    2
   167    85    84    2
   168    70    69    1
   169    99    93   am
   170    74    73    1
   171    74    75    1
   172    61    60    2
   173    89    88    2
   174    21    18    1
   175    82    75   am
   176    82    83    1
   177    84    83    1
   178    84    91   am
   179    75    76    2
   180    98    97    1
   181    93    92    1
   182    93    94    2
   183    86    83    1
   184    86    87    1
   185    88    87    1
   186    88    90   am
   187    69    66    1
   188    97    96    1
   189    20    19    2
   190    92    91    1
   191    92    95    1
   192    18    19    1
   193    18    17    1
   194    66    65    1
   195    66    67    1
   196    96    95    1
   197    67    68    2
