@<TRIPOS>MOLECULE
tmp/5fbuA00.pdb
 233 220 0 0 0
SMALL
GASTEIGER

@<TRIPOS>ATOM
      1  N        -23.3240  -29.4670    0.6090 N.3   211  ILE211     -0.1231
      2  CA       -22.1750  -30.3420    0.8350 C.3   211  ILE211      0.1692
      3  C        -22.6100  -31.6500    1.4860 C.2   211  ILE211      0.2593
      4  O        -23.3790  -31.6480    2.4470 O.2   211  ILE211     -0.2718
      5  CB       -21.1170  -29.6680    1.7340 C.3   211  ILE211      0.0266
      6  CG1      -20.6260  -28.3690    1.1020 C.3   211  ILE211      0.0019
      7  CG2      -19.9420  -30.5940    1.9790 C.3   211  ILE211      0.0020
      8  CD1      -19.7720  -28.5860   -0.1160 C.3   211  ILE211      0.0001
      9  N        -22.1100  -32.7660    0.9690 N.am  212  SER212     -0.1938
     10  CA       -22.4690  -34.0710    1.5040 C.3   212  SER212      0.2055
     11  C        -21.8450  -34.3200    2.8770 C.2   212  SER212      0.2642
     12  O        -20.6240  -34.3260    3.0240 O.2   212  SER212     -0.2714
     13  CB       -22.0500  -35.1720    0.5320 C.3   212  SER212      0.2130
     14  OG       -22.3370  -36.4560    1.0620 O.3   212  SER212     -0.2179
     15  N        -22.6970  -34.5210    3.8780 N.am  213  VAL213     -0.1977
     16  CA       -22.2520  -34.8860    5.2190 C.3   213  VAL213      0.1596
     17  C        -21.6800  -36.3050    5.2320 C.2   213  VAL213      0.2287
     18  O        -20.6840  -36.5820    5.9030 O.2   213  VAL213     -0.2864
     19  CB       -23.4090  -34.7730    6.2370 C.3   213  VAL213      0.0276
     20  CG1      -23.0380  -35.4070    7.5710 C.3   213  VAL213      0.0022
     21  CG2      -23.7980  -33.3140    6.4230 C.3   213  VAL213      0.0022
     22  N        -17.9040  -36.5440    4.5910 N.3   216  GLN216     -0.1231
     23  CA       -17.0580  -36.0540    5.6740 C.3   216  GLN216      0.1698
     24  C        -17.1760  -36.9550    6.8980 C.2   216  GLN216      0.2592
     25  O        -16.2410  -37.0780    7.6900 O.2   216  GLN216     -0.2718
     26  CB       -17.4310  -34.6130    6.0320 C.3   216  GLN216      0.0381
     27  CG       -16.4770  -33.9310    7.0090 C.3   216  GLN216      0.0905
     28  CD       -16.8410  -34.1710    8.4670 C.2   216  GLN216      0.2608
     29  OE1      -17.9670  -34.5580    8.7850 O.2   216  GLN216     -0.2717
     30  NE2      -15.8820  -33.9470    9.3590 N.am  216  GLN216     -0.0878
     31  N        -18.3300  -37.5950    7.0400 N.am  217  GLN217     -0.1979
     32  CA       -18.6160  -38.4020    8.2170 C.3   217  GLN217      0.1601
     33  C        -18.2460  -39.8710    8.0110 C.2   217  GLN217      0.2287
     34  O        -18.3930  -40.6870    8.9220 O.2   217  GLN217     -0.2864
     35  CB       -20.0960  -38.2690    8.5860 C.3   217  GLN217      0.0394
     36  CG       -20.3870  -38.4170   10.0670 C.3   217  GLN217      0.0908
     37  CD       -19.7990  -37.2920   10.8900 C.2   217  GLN217      0.2608
     38  OE1      -19.5070  -37.4640   12.0710 O.2   217  GLN217     -0.2717
     39  NE2      -19.6220  -36.1300   10.2700 N.am  217  GLN217     -0.0878
     40  N        -29.2540  -35.7330   14.6270 N.3   231  TYR231     -0.1241
     41  CA       -28.0410  -35.1230   14.0990 C.3   231  TYR231      0.1605
     42  C        -28.3110  -33.6510   13.7830 C.2   231  TYR231      0.2264
     43  O        -27.4890  -32.7840   14.0770 O.2   231  TYR231     -0.2867
     44  CB       -27.5480  -35.8660   12.8550 C.3   231  TYR231      0.0534
     45  CG       -26.0860  -35.6270   12.5510 C.ar  231  TYR231     -0.0201
     46  CD1      -25.1290  -36.5910   12.8440 C.ar  231  TYR231     -0.0009
     47  CD2      -25.6580  -34.4320   11.9870 C.ar  231  TYR231     -0.0009
     48  CE1      -23.7930  -36.3750   12.5740 C.ar  231  TYR231      0.0417
     49  CE2      -24.3230  -34.2080   11.7140 C.ar  231  TYR231      0.0417
     50  CZ       -23.3960  -35.1830   12.0100 C.ar  231  TYR231      0.1957
     51  OH       -22.0670  -34.9640   11.7410 O.3   231  TYR231     -0.2866
     52  N        -28.3100  -31.4330   16.6740 N.3   234  THR234     -0.1203
     53  CA       -27.0080  -31.3250   17.3220 C.3   234  THR234      0.1994
     54  C        -26.0930  -30.3370   16.6000 C.2   234  THR234      0.2619
     55  O        -25.3870  -29.5550   17.2360 O.2   234  THR234     -0.2717
     56  CB       -26.2970  -32.6910   17.4010 C.3   234  THR234      0.1784
     57  OG1      -27.1780  -33.6640   17.9800 O.3   234  THR234     -0.2211
     58  CG2      -25.0390  -32.5810   18.2490 C.3   234  THR234      0.0376
     59  N        -26.1190  -30.3660   15.2720 N.am  235  THR235     -0.1939
     60  CA       -25.2150  -29.5450   14.4760 C.3   235  THR235      0.2013
     61  C        -25.5590  -28.0600   14.5130 C.2   235  THR235      0.2484
     62  O        -26.7280  -27.6840   14.4590 O.2   235  THR235     -0.2729
     63  CB       -25.1910  -29.9960   13.0070 C.3   235  THR235      0.1807
     64  OG1      -24.3740  -29.0970   12.2490 O.3   235  THR235     -0.2208
     65  CG2      -26.5970  -30.0180   12.4230 C.3   235  THR235      0.0379
     66  N        -24.5270  -27.2090   14.6180 N.am  236  PRO236     -0.2715
     67  CA       -24.6750  -25.7540   14.5300 C.3   236  PRO236      0.1536
     68  C        -24.6410  -25.2760   13.0820 C.2   236  PRO236      0.2598
     69  O        -24.8200  -24.0870   12.8130 O.2   236  PRO236     -0.2715
     70  CB       -23.4670  -25.2400   15.3070 C.3   236  PRO236      0.0310
     71  CG       -22.4230  -26.2790   15.0690 C.3   236  PRO236      0.0237
     72  CD       -23.1490  -27.5990   14.9750 C.3   236  PRO236      0.0939
     73  N        -24.4160  -26.2080   12.1600 N.am  237  ALA237     -0.1978
     74  CA       -24.3220  -25.8870   10.7410 C.3   237  ALA237      0.1597
     75  C        -25.6920  -25.8550   10.0780 C.2   237  ALA237      0.2287
     76  O        -26.6010  -26.5740   10.4810 O.2   237  ALA237     -0.2864
     77  CB       -23.4250  -26.8850   10.0380 C.3   237  ALA237      0.0319
     78  N        -27.7790  -27.2680    8.1710 N.3   239  MET239     -0.1245
     79  CA       -27.8620  -28.6010    7.5930 C.3   239  MET239      0.1570
     80  C        -29.3010  -28.9430    7.2180 C.2   239  MET239      0.2261
     81  O        -30.2470  -28.4740    7.8510 O.2   239  MET239     -0.2867
     82  CB       -27.2960  -29.6370    8.5770 C.3   239  MET239      0.0387
     83  CG       -27.0230  -31.0090    7.9750 C.3   239  MET239      0.0595
     84  SD       -26.2720  -32.1870    9.1260 S.3   239  MET239     -0.1393
     85  CE       -24.7180  -31.3820    9.4980 C.3   239  MET239      0.0692
     86  N        -25.1200  -29.9930    3.9490 N.3   248  VAL248     -0.1245
     87  CA       -24.9030  -28.6670    4.5150 C.3   248  VAL248      0.1561
     88  C        -24.9460  -27.5880    3.4370 C.2   248  VAL248      0.2260
     89  O        -24.2700  -27.6930    2.4130 O.2   248  VAL248     -0.2867
     90  CB       -23.5600  -28.5930    5.2650 C.3   248  VAL248      0.0252
     91  CG1      -23.2820  -27.1710    5.7230 C.3   248  VAL248      0.0019
     92  CG2      -23.5670  -29.5450    6.4520 C.3   248  VAL248      0.0019
     93  N        -24.0380  -24.1400    1.8450 N.3   250  ILE250     -0.1245
     94  CA       -22.9190  -23.2050    1.9000 C.3   250  ILE250      0.1561
     95  C        -23.0710  -22.0920    0.8660 C.2   250  ILE250      0.2260
     96  O        -22.1060  -21.4020    0.5340 O.2   250  ILE250     -0.2867
     97  CB       -21.5680  -23.9170    1.6760 C.3   250  ILE250      0.0252
     98  CG1      -21.5010  -24.5150    0.2720 C.3   250  ILE250      0.0019
     99  CG2      -21.3450  -24.9880    2.7300 C.3   250  ILE250      0.0019
    100  CD1      -20.1100  -24.9140   -0.1410 C.3   250  ILE250      0.0001
    101  N        -13.7080  -20.8140    2.0090 N.3   263  MET263     -0.1245
    102  CA       -14.5140  -22.0260    2.0670 C.3   263  MET263      0.1570
    103  C        -14.0370  -23.0350    1.0330 C.2   263  MET263      0.2261
    104  O        -13.9150  -24.2260    1.3230 O.2   263  MET263     -0.2867
    105  CB       -15.9920  -21.6970    1.8460 C.3   263  MET263      0.0387
    106  CG       -16.9240  -22.9070    1.8270 C.3   263  MET263      0.0595
    107  SD       -16.9690  -23.8300    3.3780 S.3   263  MET263     -0.1393
    108  CE       -17.4800  -22.5520    4.5240 C.3   263  MET263      0.0692
    109  N        -12.0250  -26.4860    2.3170 N.3   267  LEU267     -0.1245
    110  CA       -12.6300  -27.7760    2.0120 C.3   267  LEU267      0.1561
    111  C        -11.7540  -28.5870    1.0650 C.2   267  LEU267      0.2260
    112  O        -11.8130  -29.8170    1.0490 O.2   267  LEU267     -0.2867
    113  CB       -14.0220  -27.5880    1.4090 C.3   267  LEU267      0.0270
    114  CG       -15.1140  -27.1060    2.3650 C.3   267  LEU267      0.0019
    115  CD1      -16.4550  -27.0100    1.6520 C.3   267  LEU267      0.0001
    116  CD2      -15.2070  -28.0290    3.5670 C.3   267  LEU267      0.0001
    117  N         -9.3490  -30.9010    2.9320 N.3   270  SER270     -0.1217
    118  CA        -9.8960  -32.1130    3.5320 C.3   270  SER270      0.1889
    119  C         -9.9810  -33.1850    2.4530 C.2   270  SER270      0.2288
    120  O         -9.6270  -34.3420    2.6810 O.2   270  SER270     -0.2866
    121  CB       -11.2670  -31.8570    4.1550 C.3   270  SER270      0.2089
    122  OG       -11.7420  -33.0130    4.8290 O.3   270  SER270     -0.2183
    123  N        -19.5260  -31.1810   23.4330 N.3   344  LEU344     -0.1231
    124  CA       -19.0730  -31.4740   22.0790 C.3   344  LEU344      0.1693
    125  C        -18.3820  -30.2850   21.4250 C.2   344  LEU344      0.2592
    126  O        -17.3960  -30.4490   20.7060 O.2   344  LEU344     -0.2718
    127  CB       -20.2570  -31.9240   21.2210 C.3   344  LEU344      0.0284
    128  CG       -19.9940  -32.3840   19.7890 C.3   344  LEU344      0.0019
    129  CD1      -19.0030  -33.5330   19.7640 C.3   344  LEU344      0.0001
    130  CD2      -21.3040  -32.7950   19.1350 C.3   344  LEU344      0.0001
    131  N        -18.8960  -29.0870   21.6750 N.am  345  PHE345     -0.1976
    132  CA       -18.3620  -27.8920   21.0320 C.3   345  PHE345      0.1639
    133  C        -17.7070  -26.9420   22.0310 C.2   345  PHE345      0.2290
    134  O        -17.6660  -25.7320   21.8150 O.2   345  PHE345     -0.2864
    135  CB       -19.4670  -27.1730   20.2580 C.3   345  PHE345      0.0560
    136  CG       -20.1430  -28.0410   19.2340 C.ar  345  PHE345     -0.0200
    137  CD1      -19.4830  -28.4000   18.0710 C.ar  345  PHE345     -0.0042
    138  CD2      -21.4330  -28.5030   19.4360 C.ar  345  PHE345     -0.0042
    139  CE1      -20.0970  -29.2020   17.1280 C.ar  345  PHE345     -0.0003
    140  CE2      -22.0520  -29.3040   18.4940 C.ar  345  PHE345     -0.0003
    141  CZ       -21.3830  -29.6530   17.3400 C.ar  345  PHE345     -0.0000
    142  N        -12.3480  -28.0150   21.1550 N.3   350  ILE350     -0.1245
    143  CA       -12.0240  -27.7190   19.7610 C.3   350  ILE350      0.1561
    144  C        -10.5440  -27.3850   19.5930 C.2   350  ILE350      0.2260
    145  O         -9.9060  -27.8080   18.6280 O.2   350  ILE350     -0.2867
    146  CB       -12.8650  -26.5500   19.2230 C.3   350  ILE350      0.0252
    147  CG1      -14.3510  -26.8880   19.3090 C.3   350  ILE350      0.0019
    148  CG2      -12.4920  -26.2450   17.7800 C.3   350  ILE350      0.0019
    149  CD1      -14.7400  -28.0630   18.4400 C.3   350  ILE350      0.0001
    150  N         -8.6500  -30.5620   19.6240 N.3   353  ILE353     -0.1231
    151  CA        -8.7870  -31.2730   18.3590 C.3   353  ILE353      0.1692
    152  C         -7.8870  -30.6620   17.2930 C.2   353  ILE353      0.2591
    153  O         -7.1710  -31.3710   16.5850 O.2   353  ILE353     -0.2718
    154  CB       -10.2390  -31.2640   17.8570 C.3   353  ILE353      0.0266
    155  CG1      -11.1450  -31.9840   18.8530 C.3   353  ILE353      0.0019
    156  CG2      -10.3330  -31.9170   16.4890 C.3   353  ILE353      0.0020
    157  CD1      -12.6000  -31.9720   18.4600 C.3   353  ILE353      0.0001
    158  N         -7.9220  -29.3370   17.1930 N.am  354  MET354     -0.1979
    159  CA        -7.1620  -28.6290   16.1730 C.3   354  MET354      0.1605
    160  C         -5.6640  -28.6560   16.4400 C.2   354  MET354      0.2287
    161  O         -4.8690  -28.5310   15.5110 O.2   354  MET354     -0.2864
    162  CB        -7.6430  -27.1830   16.0610 C.3   354  MET354      0.0413
    163  CG        -9.0310  -27.0610   15.4790 C.3   354  MET354      0.0598
    164  SD        -9.1500  -27.8650   13.8680 S.3   354  MET354     -0.1393
    165  CE       -10.8640  -27.5160   13.4790 C.3   354  MET354      0.0692
    166  N         -4.4580  -31.5390   14.5660 N.3   357  MET357     -0.1245
    167  CA        -4.6440  -31.3090   13.1360 C.3   357  MET357      0.1570
    168  C         -3.6540  -30.2800   12.5970 C.2   357  MET357      0.2261
    169  O         -3.0810  -30.4620   11.5220 O.2   357  MET357     -0.2867
    170  CB        -6.0730  -30.8510   12.8430 C.3   357  MET357      0.0387
    171  CG        -7.1320  -31.9180   13.0640 C.3   357  MET357      0.0595
    172  SD        -8.7580  -31.3680   12.5210 S.3   357  MET357     -0.1393
    173  CE        -9.7370  -32.8230   12.8560 C.3   357  MET357      0.0692
    174  N         -8.7960  -36.4990   19.0590 N.3   532  ARG532     -0.1245
    175  CA        -9.5990  -36.2490   17.8650 C.3   532  ARG532      0.1563
    176  C        -10.8360  -37.1530   17.7500 C.2   532  ARG532      0.2260
    177  O        -11.8990  -36.7030   17.3250 O.2   532  ARG532     -0.2867
    178  CB        -8.7110  -36.4020   16.6230 C.3   532  ARG532      0.0307
    179  CG        -9.4170  -36.9170   15.3810 C.3   532  ARG532      0.0489
    180  CD       -10.1780  -35.8180   14.6920 C.3   532  ARG532      0.2205
    181  NE       -10.8400  -36.2810   13.4760 N.pl3 532  ARG532     -0.0865
    182  CZ       -12.1200  -36.6280   13.4090 C.cat 532  ARG532      0.5346
    183  NH1      -12.8840  -36.5620   14.4900 N.pl3 532  ARG532      0.1354
    184  NH2      -12.6370  -37.0290   12.2570 N.pl3 532  ARG532      0.1354
    185  N        -14.6380  -36.6940   20.9890 N.3   535  PRO535     -0.2102
    186  CA       -15.9250  -35.9840   20.9610 C.3   535  PRO535      0.1504
    187  C        -17.0310  -36.7510   20.2400 C.2   535  PRO535      0.2575
    188  O        -18.1980  -36.6400   20.6100 O.2   535  PRO535     -0.2718
    189  CB       -15.5870  -34.6960   20.2130 C.3   535  PRO535      0.0282
    190  CG       -14.1800  -34.4470   20.5630 C.3   535  PRO535      0.0208
    191  CD       -13.5340  -35.7990   20.5980 C.3   535  PRO535      0.0893
    192  N        -16.6610  -37.5200   19.2230 N.am  536  LYS536     -0.1980
    193  CA       -17.6070  -38.3990   18.5600 C.3   536  LYS536      0.1596
    194  C        -18.0730  -39.4850   19.5200 C.2   536  LYS536      0.2287
    195  O        -19.2610  -39.7900   19.6000 O.2   536  LYS536     -0.2864
    196  CB       -16.9810  -39.0300   17.3240 C.3   536  LYS536      0.0298
    197  CG       -17.9860  -39.6610   16.3960 C.3   536  LYS536      0.0038
    198  CD       -19.0030  -38.6310   15.9630 C.3   536  LYS536      0.0206
    199  CE       -19.8750  -39.1690   14.8680 C.3   536  LYS536      0.1093
    200  NZ       -19.0690  -39.5330   13.6690 N.3   536  LYS536     -0.1314
    201  N        -20.4970  -38.1760   22.0880 N.3   539  MET539     -0.1245
    202  CA       -21.7860  -37.8760   21.4790 C.3   539  MET539      0.1570
    203  C        -22.6080  -39.1500   21.2730 C.2   539  MET539      0.2261
    204  O        -23.7880  -39.1990   21.6220 O.2   539  MET539     -0.2867
    205  CB       -21.5770  -37.1370   20.1540 C.3   539  MET539      0.0387
    206  CG       -22.7320  -37.2270   19.1750 C.3   539  MET539      0.0595
    207  SD       -22.3780  -36.3180   17.6600 S.3   539  MET539     -0.1393
    208  CE       -23.3420  -37.2300   16.4670 C.3   539  MET539      0.0692
    209  N         -8.6230  -35.7080    7.3230 N.3   689  MET689     -0.1230
    210  CA        -8.6520  -35.8850    8.7730 C.3   689  MET689      0.1702
    211  C        -10.0020  -36.3850    9.2790 C.2   689  MET689      0.2593
    212  O        -10.4350  -36.0220   10.3710 O.2   689  MET689     -0.2718
    213  CB        -8.2930  -34.5730    9.4750 C.3   689  MET689      0.0401
    214  CG        -6.8920  -34.0670    9.1780 C.3   689  MET689      0.0596
    215  SD        -5.5960  -35.1510    9.8040 S.3   689  MET689     -0.1393
    216  CE        -5.8730  -35.0190   11.5620 C.3   689  MET689      0.0692
    217  N        -10.6660  -37.2170    8.4840 N.am  690  THR690     -0.1939
    218  CA       -11.9430  -37.7910    8.8920 C.3   690  THR690      0.2028
    219  C        -11.7270  -39.1330    9.5830 C.2   690  THR690      0.2642
    220  O        -10.5900  -39.5580    9.7950 O.2   690  THR690     -0.2714
    221  CB       -12.8950  -37.9890    7.6950 C.3   690  THR690      0.1808
    222  OG1      -12.3500  -38.9690    6.8010 O.3   690  THR690     -0.2208
    223  CG2      -13.1010  -36.6830    6.9490 C.3   690  THR690      0.0379
    224  N        -12.8250  -39.7930    9.9320 N.am  691  HIS691     -0.1973
    225  CA       -12.7640  -41.1110   10.5470 C.3   691  HIS691      0.1656
    226  C        -12.1070  -42.1150    9.6060 C.2   691  HIS691      0.2291
    227  O        -12.1060  -41.9320    8.3900 O.2   691  HIS691     -0.2864
    228  CB       -14.1660  -41.5850   10.9370 C.3   691  HIS691      0.0771
    229  CG       -14.7880  -40.7890   12.0420 C.ar  691  HIS691      0.0820
    230  ND1      -14.0640  -40.3070   13.1100 N.ar  691  HIS691     -0.2267
    231  CD2      -16.0680  -40.3960   12.2440 C.ar  691  HIS691      0.1154
    232  CE1      -14.8710  -39.6500   13.9250 C.ar  691  HIS691      0.1986
    233  NE2      -16.0910  -39.6900   13.4230 N.ar  691  HIS691     -0.2212
@<TRIPOS>BOND
     1   100    98    1
     2     8     6    1
     3    98    97    1
     4    13    14    1
     5    13    10    1
     6    96    95    2
     7     1     2    1
     8     2     3    1
     9     2     5    1
    10    95    94    1
    11     9     3   am
    12     9    10    1
    13   103   104    2
    14   103   102    1
    15   112   111    2
    16   111   110    1
    17     6     5    1
    18   113   110    1
    19   113   114    1
    20     3     4    2
    21    10    11    1
    22   115   114    1
    23    97    94    1
    24    97    99    1
    25     5     7    1
    26   106   105    1
    27   106   107    1
    28    93    94    1
    29   105   102    1
    30   101   102    1
    31   110   109    1
    32   114   116    1
    33    89    88    2
    34   119   120    2
    35   119   118    1
    36    11    12    2
    37    11    15   am
    38   117   118    1
    39   107   108    1
    40    88    87    1
    41   118   121    1
    42    15    16    1
    43    86    87    1
    44   121   122    1
    45    87    90    1
    46    22    23    1
    47    16    17    1
    48    16    19    1
    49    17    18    2
    50    90    91    1
    51    90    92    1
    52    23    26    1
    53    23    24    1
    54    26    27    1
    55    19    21    1
    56    19    20    1
    57   222   221    1
    58    24    31   am
    59    24    25    2
    60   223   221    1
    61    27    28    1
    62    31    32    1
    63    80    79    1
    64    80    81    2
    65   209   210    1
    66    79    78    1
    67    79    82    1
    68   221   218    1
    69    83    82    1
    70    83    84    1
    71    33    32    1
    72    33    34    2
    73    32    35    1
    74   227   226    2
    75    28    29    2
    76    28    30   am
    77   217   218    1
    78   217   211   am
    79    35    36    1
    80   210   211    1
    81   210   213    1
    82   218   219    1
    83    84    85    1
    84   214   213    1
    85   214   215    1
    86   211   212    2
    87   219   220    2
    88   219   224   am
    89   226   225    1
    90   215   216    1
    91   224   225    1
    92    77    74    1
    93    36    37    1
    94    75    76    2
    95    75    74    1
    96    39    37   am
    97   225   228    1
    98    74    73    1
    99    37    38    2
   100   228   229    1
   101   169   168    2
   102    49    47   ar
   103    49    50   ar
   104    51    50    1
   105    47    45   ar
   106    50    48   ar
   107   229   231   ar
   108   229   230   ar
   109    73    68   am
   110   231   233   ar
   111    64    63    1
   112   184   182    1
   113    65    63    1
   114   172   173    1
   115   172   171    1
   116    45    46   ar
   117    45    44    1
   118    48    46   ar
   119   168   167    1
   120    69    68    2
   121   170   171    1
   122   170   167    1
   123    44    41    1
   124    63    60    1
   125    68    67    1
   126   230   232   ar
   127   167   166    1
   128   182   181    2
   129   182   183    1
   130   233   232   ar
   131   181   180    1
   132   165   164    1
   133   200   199    1
   134    42    43    2
   135    42    41    1
   136   164   163    1
   137    41    40    1
   138    62    61    2
   139    60    61    1
   140    60    59    1
   141    61    66   am
   142    67    66    1
   143    67    70    1
   144    66    72    1
   145   180   179    1
   146   199   198    1
   147    72    71    1
   148    71    70    1
   149    59    54   am
   150   179   178    1
   151   163   162    1
   152   161   160    2
   153   198   197    1
   154   162   159    1
   155   159   160    1
   156   159   158    1
   157   197   196    1
   158   208   207    1
   159   156   154    1
   160   153   152    2
   161    54    55    2
   162    54    53    1
   163   178   175    1
   164    52    53    1
   165   139   141   ar
   166   139   137   ar
   167   158   152   am
   168   152   151    1
   169    53    56    1
   170   196   193    1
   171   177   176    2
   172   141   140   ar
   173    56    57    1
   174    56    58    1
   175   207   206    1
   176   176   175    1
   177   148   146    1
   178   154   151    1
   179   154   155    1
   180   175   174    1
   181   137   136   ar
   182   151   150    1
   183   149   147    1
   184   157   155    1
   185   140   138   ar
   186   193   192    1
   187   193   194    1
   188   145   144    2
   189   130   128    1
   190   206   205    1
   191   192   187   am
   192   146   147    1
   193   146   143    1
   194   136   138   ar
   195   136   135    1
   196   194   195    2
   197   144   143    1
   198   143   142    1
   199   129   128    1
   200   128   127    1
   201   205   202    1
   202   189   190    1
   203   189   186    1
   204   187   188    2
   205   187   186    1
   206   135   132    1
   207   190   191    1
   208   191   185    1
   209   126   125    2
   210   186   185    1
   211   132   131    1
   212   132   133    1
   213   127   124    1
   214   203   202    1
   215   203   204    2
   216   125   131   am
   217   125   124    1
   218   202   201    1
   219   134   133    2
   220   124   123    1
