@<TRIPOS>MOLECULE
tmp/5fbwA00.pdb
 237 228 0 0 0
SMALL
GASTEIGER

@<TRIPOS>ATOM
      1  N         29.2780   97.5130  138.3170 N.3   174  LEU174     -0.1231
      2  CA        29.4610   96.0680  138.2680 C.3   174  LEU174      0.1693
      3  C         30.7400   95.5460  138.9190 C.2   174  LEU174      0.2592
      4  O         30.7920   94.3820  139.3220 O.2   174  LEU174     -0.2718
      5  CB        29.4210   95.6260  136.8030 C.3   174  LEU174      0.0284
      6  CG        28.1160   95.8800  136.0450 C.3   174  LEU174      0.0019
      7  CD1       28.2830   95.5240  134.5860 C.3   174  LEU174      0.0001
      8  CD2       26.9690   95.0870  136.6550 C.3   174  LEU174      0.0001
      9  N         31.7650   96.3810  139.0400 N.am  175  ASN175     -0.1974
     10  CA        32.9260   95.9790  139.8290 C.3   175  ASN175      0.1688
     11  C         33.6820   97.1340  140.4770 C.2   175  ASN175      0.2292
     12  O         33.3250   98.3030  140.3310 O.2   175  ASN175     -0.2864
     13  CB        33.8920   95.1290  138.9860 C.3   175  ASN175      0.1181
     14  CG        34.4140   95.8530  137.7600 C.2   175  ASN175      0.2629
     15  OD1       34.6120   97.0630  137.7680 O.2   175  ASN175     -0.2716
     16  ND2       34.6640   95.0970  136.6990 N.am  175  ASN175     -0.0877
     17  N         36.9120   97.9000  139.9580 N.3   177  LYS177     -0.1245
     18  CA        38.1290   98.2650  139.2300 C.3   177  LYS177      0.1561
     19  C         38.2470   99.7760  139.0140 C.2   177  LYS177      0.2260
     20  O         37.2750  100.5130  139.1810 O.2   177  LYS177     -0.2867
     21  CB        38.1590   97.5440  137.8790 C.3   177  LYS177      0.0271
     22  CG        38.0640   96.0310  137.9930 C.3   177  LYS177      0.0035
     23  CD        38.7920   95.3230  136.8660 C.3   177  LYS177      0.0206
     24  CE        38.4390   93.8410  136.8590 C.3   177  LYS177      0.1093
     25  NZ        38.0280   93.3530  135.5080 N.3   177  LYS177     -0.1314
     26  N         33.1830   99.2750  134.6590 N.3   181  PRO181     -0.2116
     27  CA        31.9870   99.4080  133.8300 C.3   181  PRO181      0.1372
     28  C         30.7470   99.4800  134.6880 C.2   181  PRO181      0.2244
     29  O         30.7470   98.9750  135.8110 O.2   181  PRO181     -0.2868
     30  CB        31.9880   98.1200  133.0190 C.3   181  PRO181      0.0268
     31  CG        32.6120   97.1200  133.9510 C.3   181  PRO181      0.0207
     32  CD        33.6420   97.8780  134.7510 C.3   181  PRO181      0.0892
     33  N         26.2040   99.3750  134.7030 N.3   183  LEU183     -0.1245
     34  CA        24.9770   98.9700  134.0430 C.3   183  LEU183      0.1561
     35  C         23.9060  100.0040  134.3150 C.2   183  LEU183      0.2260
     36  O         23.7680  100.4670  135.4390 O.2   183  LEU183     -0.2867
     37  CB        24.5200   97.6100  134.5480 C.3   183  LEU183      0.0270
     38  CG        23.2820   97.0320  133.8760 C.3   183  LEU183      0.0019
     39  CD1       23.4310   95.5280  133.7510 C.3   183  LEU183      0.0001
     40  CD2       22.0290   97.4010  134.6560 C.3   183  LEU183      0.0001
     41  N         19.6530  101.2950  133.3850 N.3   185  TYR185     -0.1241
     42  CA        18.3690  101.0790  132.7290 C.3   185  TYR185      0.1605
     43  C         17.8740  102.3610  132.0940 C.2   185  TYR185      0.2264
     44  O         17.9750  103.4370  132.6810 O.2   185  TYR185     -0.2867
     45  CB        17.3200  100.5470  133.6940 C.3   185  TYR185      0.0534
     46  CG        17.7170   99.2680  134.3760 C.ar  185  TYR185     -0.0201
     47  CD1       18.4790   99.2810  135.5310 C.ar  185  TYR185     -0.0009
     48  CD2       17.3330   98.0430  133.8570 C.ar  185  TYR185     -0.0009
     49  CE1       18.8410   98.1110  136.1580 C.ar  185  TYR185      0.0417
     50  CE2       17.6900   96.8670  134.4710 C.ar  185  TYR185      0.0417
     51  CZ        18.4440   96.9060  135.6240 C.ar  185  TYR185      0.1957
     52  OH        18.8010   95.7310  136.2380 O.3   185  TYR185     -0.2866
     53  N         15.9130   91.5980  141.5900 N.3   211  GLU211     -0.1231
     54  CA        14.6800   90.9810  141.0940 C.3   211  GLU211      0.1684
     55  C         14.7860   90.5630  139.6310 C.2   211  GLU211      0.2434
     56  O         15.5310   91.1700  138.8610 O.2   211  GLU211     -0.2733
     57  CB        13.4880   91.9320  141.2550 C.3   211  GLU211      0.0402
     58  CG        13.6020   93.2270  140.4560 C.3   211  GLU211      0.1161
     59  CD        12.4870   94.2160  140.7680 C.2   211  GLU211      0.3649
     60  OE1       11.5080   93.8210  141.4360 O.co2 211  GLU211     -0.2457
     61  OE2       12.5920   95.3880  140.3480 O.co2 211  GLU211     -0.2457
     62  N         14.0380   89.5090  139.2500 N.am  212  PRO212     -0.2718
     63  CA        13.8990   89.0800  137.8530 C.3   212  PRO212      0.1535
     64  C         13.5030   90.2280  136.9450 C.2   212  PRO212      0.2598
     65  O         12.9840   91.2400  137.4150 O.2   212  PRO212     -0.2715
     66  CB        12.7680   88.0550  137.9110 C.3   212  PRO212      0.0310
     67  CG        12.8140   87.5050  139.2900 C.3   212  PRO212      0.0237
     68  CD        13.5430   88.4850  140.1850 C.3   212  PRO212      0.0939
     69  N         13.7140   90.0460  135.6480 N.am  213  TRP213     -0.1974
     70  CA        13.5510   91.1440  134.7100 C.3   213  TRP213      0.1640
     71  C         12.1020   91.5990  134.5210 C.2   213  TRP213      0.2290
     72  O         11.8310   92.8020  134.5010 O.2   213  TRP213     -0.2864
     73  CB        14.1370   90.7620  133.3530 C.3   213  TRP213      0.0576
     74  CG        13.6660   91.6580  132.2630 C.ar  213  TRP213      0.0006
     75  CD1       12.6840   91.4050  131.3460 C.ar  213  TRP213      0.0946
     76  CD2       14.1470   92.9770  131.9870 C.ar  213  TRP213      0.0152
     77  NE1       12.5340   92.4840  130.5100 N.ar  213  TRP213     -0.2442
     78  CE2       13.4200   93.4620  130.8830 C.ar  213  TRP213      0.0810
     79  CE3       15.1260   93.7930  132.5620 C.ar  213  TRP213      0.0012
     80  CZ2       13.6400   94.7270  130.3480 C.ar  213  TRP213      0.0191
     81  CZ3       15.3430   95.0460  132.0290 C.ar  213  TRP213      0.0001
     82  CH2       14.6040   95.5010  130.9350 C.ar  213  TRP213      0.0015
     83  N         10.8730   93.6290  137.3540 N.3   216  LYS216     -0.1245
     84  CA        11.5490   94.9200  137.4110 C.3   216  LYS216      0.1561
     85  C         10.9080   95.9290  136.4690 C.2   216  LYS216      0.2260
     86  O         10.8830   97.1250  136.7540 O.2   216  LYS216     -0.2867
     87  CB        13.0350   94.7590  137.0760 C.3   216  LYS216      0.0271
     88  CG        13.8500   96.0350  137.2120 C.3   216  LYS216      0.0035
     89  CD        15.2770   95.7460  137.6520 C.3   216  LYS216      0.0206
     90  CE        15.3650   95.5040  139.1450 C.3   216  LYS216      0.1093
     91  NZ        16.5100   96.2410  139.7500 N.3   216  LYS216     -0.1314
     92  N         25.0940   98.0670  129.3760 N.3   238  ILE238     -0.1245
     93  CA        26.2930   98.1650  130.1790 C.3   238  ILE238      0.1561
     94  C         27.3010   99.1030  129.5280 C.2   238  ILE238      0.2260
     95  O         27.5720   98.9990  128.3340 O.2   238  ILE238     -0.2867
     96  CB        26.9150   96.8060  130.3810 C.3   238  ILE238      0.0252
     97  CG1       25.9060   95.8860  131.0800 C.3   238  ILE238      0.0019
     98  CG2       28.2200   96.9690  131.1160 C.3   238  ILE238      0.0019
     99  CD1       26.4880   94.6070  131.6130 C.3   238  ILE238      0.0001
    100  N         31.1340  100.5470  129.1420 N.3   240  LYS240     -0.1245
    101  CA        32.5790  100.3620  129.2870 C.3   240  LYS240      0.1561
    102  C         33.3130  101.6000  128.8070 C.2   240  LYS240      0.2260
    103  O         33.4110  101.8410  127.6060 O.2   240  LYS240     -0.2867
    104  CB        33.0460   99.1700  128.4460 C.3   240  LYS240      0.0271
    105  CG        32.3490   97.8430  128.6220 C.3   240  LYS240      0.0035
    106  CD        33.1080   96.7950  127.7660 C.3   240  LYS240      0.0206
    107  CE        34.5860   96.5490  128.1070 C.3   240  LYS240      0.1093
    108  NZ        34.9570   95.5840  129.1500 N.3   240  LYS240     -0.1314
    109  N         37.5460  100.2600  127.9820 N.3   243  ASP243     -0.1239
    110  CA        37.8970   98.9370  127.4610 C.3   243  ASP243      0.1674
    111  C         37.5630   98.7550  125.9670 C.2   243  ASP243      0.2266
    112  O         36.4920   99.1580  125.5050 O.2   243  ASP243     -0.2867
    113  CB        37.2040   97.8550  128.2970 C.3   243  ASP243      0.1410
    114  CG        37.6600   97.8490  129.7570 C.2   243  ASP243      0.3668
    115  OD1       38.8840   97.8940  130.0030 O.co2 243  ASP243     -0.2456
    116  OD2       36.7910   97.8080  130.6580 O.co2 243  ASP243     -0.2456
    117  N         35.7230   91.7340  120.9790 N.3   248  GLU248     -0.1245
    118  CA        34.4240   91.2900  121.4620 C.3   248  GLU248      0.1567
    119  C         33.4000   91.2290  120.3270 C.2   248  GLU248      0.2260
    120  O         32.6190   90.2860  120.2080 O.2   248  GLU248     -0.2867
    121  CB        33.9470   92.2000  122.5900 C.3   248  GLU248      0.0388
    122  CG        32.9440   91.5400  123.5070 C.3   248  GLU248      0.1160
    123  CD        33.5880   90.4590  124.3600 C.2   248  GLU248      0.3649
    124  OE1       34.8200   90.5310  124.5900 O.co2 248  GLU248     -0.2457
    125  OE2       32.8610   89.5480  124.8160 O.co2 248  GLU248     -0.2457
    126  N         25.5150   88.2270  122.5500 N.3   274  TYR274     -0.1241
    127  CA        24.9630   89.4640  123.0760 C.3   274  TYR274      0.1605
    128  C         25.5180   90.6140  122.2500 C.2   274  TYR274      0.2264
    129  O         26.6920   90.6020  121.8600 O.2   274  TYR274     -0.2867
    130  CB        25.3000   89.6640  124.5530 C.3   274  TYR274      0.0534
    131  CG        26.7450   89.4230  124.9120 C.ar  274  TYR274     -0.0201
    132  CD1       27.6740   90.4430  124.7870 C.ar  274  TYR274     -0.0009
    133  CD2       27.1900   88.1860  125.3470 C.ar  274  TYR274     -0.0009
    134  CE1       28.9980   90.2550  125.1060 C.ar  274  TYR274      0.0417
    135  CE2       28.5220   87.9870  125.6650 C.ar  274  TYR274      0.0417
    136  CZ        29.4200   89.0320  125.5380 C.ar  274  TYR274      0.1957
    137  OH        30.7480   88.8580  125.8430 O.3   274  TYR274     -0.2866
    138  N         27.4700   97.4080  125.9600 N.3   286  ILE286     -0.1231
    139  CA        26.9940   96.0410  125.7510 C.3   286  ILE286      0.1692
    140  C         25.5070   95.9080  126.0860 C.2   286  ILE286      0.2592
    141  O         25.0520   96.4550  127.0840 O.2   286  ILE286     -0.2718
    142  CB        27.7840   95.0290  126.5870 C.3   286  ILE286      0.0266
    143  CG1       29.1940   94.8620  126.0230 C.3   286  ILE286      0.0019
    144  CG2       27.0390   93.7020  126.6390 C.3   286  ILE286      0.0020
    145  CD1       30.1610   94.2130  126.9800 C.3   286  ILE286      0.0001
    146  N         24.7400   95.2170  125.2450 N.am  287  GLU287     -0.1966
    147  CA        23.3680   94.8690  125.6200 C.3   287  GLU287      0.1718
    148  C         23.3750   93.6280  126.5150 C.2   287  GLU287      0.2458
    149  O         23.7980   92.5570  126.0870 O.2   287  GLU287     -0.2730
    150  CB        22.5120   94.6350  124.3750 C.3   287  GLU287      0.0428
    151  CG        21.0110   94.5900  124.6370 C.3   287  GLU287      0.1163
    152  CD        20.2050   94.3310  123.3730 C.2   287  GLU287      0.3649
    153  OE1       20.6210   93.4700  122.5660 O.co2 287  GLU287     -0.2457
    154  OE2       19.1620   95.0000  123.1760 O.co2 287  GLU287     -0.2457
    155  N         22.9170   93.7660  127.7690 N.am  288  PRO288     -0.2716
    156  CA        23.0720   92.6510  128.7010 C.3   288  PRO288      0.1536
    157  C         22.0090   91.5740  128.5450 C.2   288  PRO288      0.2598
    158  O         20.9010   91.8580  128.0900 O.2   288  PRO288     -0.2715
    159  CB        22.9370   93.3280  130.0680 C.3   288  PRO288      0.0310
    160  CG        21.9850   94.4560  129.8140 C.3   288  PRO288      0.0237
    161  CD        22.1840   94.8940  128.3720 C.3   288  PRO288      0.0939
    162  N         22.3660   90.3510  128.9170 N.am  289  VAL289     -0.1964
    163  CA        21.4160   89.2490  129.0500 C.3   289  VAL289      0.1727
    164  C         20.6450   89.4340  130.3540 C.2   289  VAL289      0.2616
    165  O         21.2610   89.6110  131.3990 O.2   289  VAL289     -0.2715
    166  CB        22.1040   87.8820  129.0420 C.3   289  VAL289      0.0290
    167  CG1       21.1000   86.8040  129.4140 C.3   289  VAL289      0.0023
    168  CG2       22.6830   87.5990  127.6700 C.3   289  VAL289      0.0023
    169  N         19.3170   89.4090  130.3180 N.am  290  VAL290     -0.1963
    170  CA        18.5730   89.4710  131.5760 C.3   290  VAL290      0.1727
    171  C         18.3250   88.0980  132.2130 C.2   290  VAL290      0.2616
    172  O         18.4790   87.0630  131.5650 O.2   290  VAL290     -0.2715
    173  CB        17.2130   90.1600  131.3630 C.3   290  VAL290      0.0290
    174  CG1       17.4150   91.5820  130.8610 C.3   290  VAL290      0.0023
    175  CG2       16.3690   89.3630  130.3830 C.3   290  VAL290      0.0023
    176  N         17.9420   88.1100  133.4890 N.am  291  ASN291     -0.1958
    177  CA        17.7240   86.8950  134.2830 C.3   291  ASN291      0.1819
    178  C         18.9080   85.9380  134.3820 C.2   291  ASN291      0.2621
    179  O         18.7390   84.7290  134.2220 O.2   291  ASN291     -0.2715
    180  CB        16.5260   86.1250  133.7350 C.3   291  ASN291      0.1195
    181  CG        15.2140   86.8260  134.0040 C.2   291  ASN291      0.2630
    182  OD1       15.1200   87.6750  134.8920 O.2   291  ASN291     -0.2716
    183  ND2       14.1910   86.4800  133.2270 N.am  291  ASN291     -0.0877
    184  N         20.0950   86.4570  134.6640 N.am  292  ALA292     -0.1963
    185  CA        21.2680   85.5990  134.7890 C.3   292  ALA292      0.1728
    186  C         22.3010   86.1960  135.7370 C.2   292  ALA292      0.2616
    187  O         22.4430   87.4170  135.8150 O.2   292  ALA292     -0.2715
    188  CB        21.8810   85.3480  133.4250 C.3   292  ALA292      0.0334
    189  N         22.9980   85.3340  136.4780 N.am  293  VAL293     -0.1963
    190  CA        24.0920   85.7780  137.3450 C.3   293  VAL293      0.1727
    191  C         25.2430   84.7860  137.3710 C.2   293  VAL293      0.2616
    192  O         25.0440   83.5900  137.1710 O.2   293  VAL293     -0.2715
    193  CB        23.6260   85.9920  138.7930 C.3   293  VAL293      0.0290
    194  CG1       22.6790   87.1820  138.8770 C.3   293  VAL293      0.0023
    195  CG2       22.9820   84.7250  139.3320 C.3   293  VAL293      0.0023
    196  N         26.4420   85.2840  137.6620 N.am  294  SER294     -0.1950
    197  CA        27.6540   84.4780  137.5880 C.3   294  SER294      0.1924
    198  C         27.6050   83.2460  138.4900 C.2   294  SER294      0.2314
    199  O         26.9630   83.2590  139.5430 O.2   294  SER294     -0.2863
    200  CB        28.8760   85.3340  137.9350 C.3   294  SER294      0.2116
    201  OG        29.0890   85.3940  139.3360 O.3   294  SER294     -0.2180
    202  N         33.4490   83.2590  137.0520 N.3   351  GLY351     -0.1210
    203  CA        33.1870   84.6690  136.8180 C.3   351  GLY351      0.1956
    204  C         32.7520   85.0220  135.4020 C.2   351  GLY351      0.2611
    205  O         32.1010   86.0450  135.1870 O.2   351  GLY351     -0.2717
    206  N         33.1100   84.1750  134.4390 N.am  352  ASN352     -0.1974
    207  CA        32.7820   84.4270  133.0380 C.3   352  ASN352      0.1688
    208  C         31.6160   83.6080  132.5060 C.2   352  ASN352      0.2292
    209  O         31.3200   83.6690  131.3160 O.2   352  ASN352     -0.2864
    210  CB        34.0010   84.1460  132.1510 C.3   352  ASN352      0.1181
    211  CG        35.1070   85.1660  132.3260 C.2   352  ASN352      0.2629
    212  OD1       34.8530   86.3440  132.5920 O.2   352  ASN352     -0.2716
    213  ND2       36.3470   84.7180  132.1590 N.am  352  ASN352     -0.0877
    214  N         27.5080   82.8430  132.9640 N.3   354  LEU354     -0.1245
    215  CA        26.2380   83.2170  133.5790 C.3   354  LEU354      0.1561
    216  C         25.2560   82.0390  133.5660 C.2   354  LEU354      0.2260
    217  O         25.3400   81.1670  132.7060 O.2   354  LEU354     -0.2867
    218  CB        25.6350   84.4250  132.8540 C.3   354  LEU354      0.0270
    219  CG        26.1590   85.7810  133.3230 C.3   354  LEU354      0.0019
    220  CD1       27.6610   85.6960  133.5730 C.3   354  LEU354      0.0001
    221  CD2       25.8250   86.9080  132.3490 C.3   354  LEU354      0.0001
    222  N         30.6210   84.8760  128.9520 N.3   364  ILE364     -0.1231
    223  CA        30.5230   86.2920  128.6140 C.3   364  ILE364      0.1692
    224  C         31.8050   87.0660  128.3210 C.2   364  ILE364      0.2592
    225  O         31.7300   88.1450  127.7400 O.2   364  ILE364     -0.2718
    226  CB        29.7950   87.0660  129.7140 C.3   364  ILE364      0.0266
    227  CG1       30.6470   87.1080  130.9760 C.3   364  ILE364      0.0019
    228  CG2       28.4430   86.4450  129.9920 C.3   364  ILE364      0.0020
    229  CD1       30.4790   88.3740  131.7540 C.3   364  ILE364      0.0001
    230  N         32.9740   86.5690  128.7080 N.am  365  ASP365     -0.1974
    231  CA        34.1720   87.3700  128.4440 C.3   365  ASP365      0.1709
    232  C         35.0960   86.7330  127.4070 C.2   365  ASP365      0.2293
    233  O         35.6570   85.6620  127.6350 O.2   365  ASP365     -0.2864
    234  CB        34.9310   87.6330  129.7460 C.3   365  ASP365      0.1436
    235  CG        36.0330   88.6680  129.5820 C.2   365  ASP365      0.3671
    236  OD1       36.3650   89.0130  128.4260 O.co2 365  ASP365     -0.2456
    237  OD2       36.5550   89.1470  130.6130 O.co2 365  ASP365     -0.2456
@<TRIPOS>BOND
     1   120   119    2
     2   119   118    1
     3   117   118    1
     4   118   121    1
     5   129   128    2
     6   128   127    1
     7   126   127    1
     8   153   152   ar
     9   121   122    1
    10   127   130    1
    11   154   152   ar
    12   152   151    1
    13   122   123    1
    14   123   124   ar
    15   123   125   ar
    16   150   151    1
    17   150   147    1
    18   130   131    1
    19   132   131   ar
    20   132   134   ar
    21   131   133   ar
    22   134   136   ar
    23   146   147    1
    24   146   140   am
    25   133   135   ar
    26   112   111    2
    27   136   135   ar
    28   136   137    1
    29   147   148    1
    30   139   138    1
    31   139   140    1
    32   139   142    1
    33   111   110    1
    34   143   142    1
    35   143   145    1
    36   140   141    2
    37   149   148    2
    38   148   155   am
    39   142   144    1
    40   232   233    2
    41   232   231    1
    42   110   109    1
    43   110   113    1
    44   103   102    2
    45   168   166    1
    46   225   224    2
    47   106   107    1
    48   106   105    1
    49   155   161    1
    50   155   156    1
    51   158   157    2
    52   107   108    1
    53   113   114    1
    54   224   223    1
    55   224   230   am
    56    95    94    2
    57   161   160    1
    58   236   235   ar
    59   231   230    1
    60   231   234    1
    61   104   105    1
    62   104   101    1
    63   157   156    1
    64   157   162   am
    65   223   222    1
    66   223   226    1
    67   156   159    1
    68   102   101    1
    69   162   163    1
    70   166   163    1
    71   166   167    1
    72   163   164    1
    73   100   101    1
    74    92    93    1
    75    94    93    1
    76   235   234    1
    77   235   237   ar
    78   226   228    1
    79   226   227    1
    80   114   115   ar
    81   114   116   ar
    82   160   159    1
    83    93    96    1
    84   169   164   am
    85   169   170    1
    86    80    78   ar
    87    80    82   ar
    88   164   165    2
    89    96    97    1
    90    96    98    1
    91   175   173    1
    92    77    78   ar
    93    77    75   ar
    94   174   173    1
    95    78    76   ar
    96    82    81   ar
    97   227   229    1
    98    97    99    1
    99   209   208    2
   100    75    74   ar
   101   173   170    1
   102   172   171    2
   103   170   171    1
   104    76    74   ar
   105    76    79   ar
   106    81    79   ar
   107    43    44    2
   108    43    42    1
   109   210   211    1
   110   210   207    1
   111   213   211   am
   112   171   176   am
   113    74    73    1
   114   211   212    2
   115   221   219    1
   116   208   207    1
   117   217   216    2
   118    42    41    1
   119    42    45    1
   120   218   219    1
   121   218   215    1
   122   214   215    1
   123    30    27    1
   124    30    31    1
   125   207   206    1
   126   183   181   am
   127   219   220    1
   128    73    70    1
   129   188   185    1
   130   176   177    1
   131   216   215    1
   132    45    46    1
   133   180   181    1
   134   180   177    1
   135    39    38    1
   136    27    26    1
   137    27    28    1
   138    48    46   ar
   139    48    50   ar
   140    38    37    1
   141    38    40    1
   142    31    32    1
   143   181   182    2
   144    34    35    1
   145    34    37    1
   146    34    33    1
   147   179   178    2
   148   177   178    1
   149    35    36    2
   150    46    47   ar
   151   178   184   am
   152   206   204   am
   153    50    51   ar
   154    72    71    2
   155    71    70    1
   156     7     6    1
   157    26    32    1
   158   184   185    1
   159    28    29    2
   160    70    69    1
   161   185   186    1
   162   205   204    2
   163   204   203    1
   164    25    24    1
   165    47    49   ar
   166    51    49   ar
   167    51    52    1
   168    69    64   am
   169   186   187    2
   170   186   189   am
   171     6     8    1
   172     6     5    1
   173    85    86    2
   174    85    84    1
   175   189   190    1
   176    16    14   am
   177     5     2    1
   178   203   202    1
   179    24    23    1
   180    23    22    1
   181    64    65    2
   182    64    63    1
   183    87    88    1
   184    87    84    1
   185   192   191    2
   186    88    89    1
   187   190   191    1
   188   190   193    1
   189    83    84    1
   190   191   196   am
   191   197   196    1
   192   197   200    1
   193   197   198    1
   194    89    90    1
   195    14    15    2
   196    14    13    1
   197    63    66    1
   198    63    62    1
   199    21    22    1
   200    21    18    1
   201    66    67    1
   202   200   201    1
   203     2     1    1
   204     2     3    1
   205   198   199    2
   206   193   194    1
   207   193   195    1
   208    56    55    2
   209     3     9   am
   210     3     4    2
   211    13    10    1
   212    19    20    2
   213    19    18    1
   214     9    10    1
   215    90    91    1
   216    18    17    1
   217    62    55   am
   218    62    68    1
   219    67    68    1
   220    55    54    1
   221    10    11    1
   222    12    11    2
   223    61    59   ar
   224    58    59    1
   225    58    57    1
   226    59    60   ar
   227    54    57    1
   228    54    53    1
