@<TRIPOS>MOLECULE
tmp/5fbxA00.pdb
 150 148 0 0 0
SMALL
GASTEIGER

@<TRIPOS>ATOM
      1  N         16.6230   22.8440    3.0260 N.3    40  TRP40      -0.1228
      2  CA        16.8040   24.2170    3.5760 C.3    40  TRP40       0.1722
      3  C         15.5200   25.1040    3.7320 C.2    40  TRP40       0.2437
      4  O         15.4100   25.7970    4.7740 O.2    40  TRP40      -0.2733
      5  CB        17.9830   24.9820    2.9060 C.3    40  TRP40       0.0563
      6  CG        17.7950   25.1590    1.4870 C.ar   40  TRP40       0.0003
      7  CD1       18.1720   24.3200    0.5120 C.ar   40  TRP40       0.0946
      8  CD2       17.1920   26.2760    0.8560 C.ar   40  TRP40       0.0152
      9  NE1       17.7760   24.7970   -0.7000 N.ar   40  TRP40      -0.2442
     10  CE2       17.2190   26.0290   -0.5270 C.ar   40  TRP40       0.0810
     11  CE3       16.6340   27.4750    1.3160 C.ar   40  TRP40       0.0012
     12  CZ2       16.6680   26.9160   -1.4480 C.ar   40  TRP40       0.0191
     13  CZ3       16.0620   28.3360    0.4020 C.ar   40  TRP40       0.0001
     14  CH2       16.1020   28.0730   -0.9600 C.ar   40  TRP40       0.0015
     15  N         14.5750   25.0980    2.7410 N.am   41  PRO41      -0.2718
     16  CA        13.4070   25.9490    2.9270 C.3    41  PRO41       0.1535
     17  C         12.4800   25.4840    4.0420 C.2    41  PRO41       0.2598
     18  O         11.6840   26.2670    4.5460 O.2    41  PRO41      -0.2715
     19  CB        12.6470   25.7900    1.6390 C.3    41  PRO41       0.0310
     20  CG        13.5910   25.3050    0.6290 C.3    41  PRO41       0.0237
     21  CD        14.4670   24.4230    1.4280 C.3    41  PRO41       0.0939
     22  N         12.6270   24.2160    4.4050 N.am   42  PHE42      -0.1974
     23  CA        11.8180   23.5160    5.4390 C.3    42  PHE42       0.1639
     24  C         12.4010   23.4700    6.8670 C.2    42  PHE42       0.2290
     25  O         11.7570   22.9710    7.8270 O.2    42  PHE42      -0.2864
     26  CB        11.5310   22.1330    4.9430 C.3    42  PHE42       0.0560
     27  CG        10.8560   22.1260    3.5900 C.ar   42  PHE42      -0.0200
     28  CD1        9.4750   22.2620    3.4830 C.ar   42  PHE42      -0.0042
     29  CD2       11.6180   22.0330    2.4230 C.ar   42  PHE42      -0.0042
     30  CE1        8.8650   22.3020    2.2380 C.ar   42  PHE42      -0.0003
     31  CE2       11.0100   22.0460    1.1720 C.ar   42  PHE42      -0.0003
     32  CZ         9.6340   22.2150    1.0670 C.ar   42  PHE42      -0.0000
     33  N         12.9520   25.8930    8.9990 N.3    44  GLN44      -0.1231
     34  CA        12.4790   26.9100    9.9060 C.3    44  GLN44       0.1683
     35  C         11.1250   27.3630    9.3620 C.2    44  GLN44       0.2434
     36  O         10.7860   27.0350    8.1920 O.2    44  GLN44      -0.2733
     37  CB        13.5120   28.0430   10.0750 C.3    44  GLN44       0.0380
     38  CG        13.7840   28.7800    8.7980 C.3    44  GLN44       0.0905
     39  CD        14.6770   28.0050    7.8580 C.2    44  GLN44       0.2608
     40  OE1       15.7280   27.5440    8.2630 O.2    44  GLN44      -0.2717
     41  NE2       14.2650   27.8940    6.5640 N.am   44  GLN44      -0.0878
     42  N         10.3100   28.0610   10.1850 N.am   45  PRO45      -0.2718
     43  CA         9.0200   28.6070    9.6990 C.3    45  PRO45       0.1535
     44  C          9.1690   29.4370    8.4440 C.2    45  PRO45       0.2598
     45  O         10.2060   30.0980    8.2240 O.2    45  PRO45      -0.2715
     46  CB         8.5700   29.5440   10.8240 C.3    45  PRO45       0.0310
     47  CG         9.1770   28.9340   12.0200 C.3    45  PRO45       0.0237
     48  CD        10.4620   28.2500   11.6240 C.3    45  PRO45       0.0939
     49  N          8.0920   29.4810    7.6820 N.am   46  VAL46      -0.1964
     50  CA         8.0510   30.3390    6.5200 C.3    46  VAL46       0.1727
     51  C          8.1140   31.8050    7.0000 C.2    46  VAL46       0.2616
     52  O          7.3240   32.1960    7.8250 O.2    46  VAL46      -0.2715
     53  CB         6.7790   30.0820    5.6870 C.3    46  VAL46       0.0290
     54  CG1        6.6710   31.1450    4.5960 C.3    46  VAL46       0.0023
     55  CG2        6.8670   28.6970    5.0780 C.3    46  VAL46       0.0023
     56  N          9.0520   32.5790    6.4660 N.am   47  ASP47      -0.1971
     57  CA         9.2310   33.9750    6.7920 C.3    47  ASP47       0.1709
     58  C          8.5280   34.7510    5.6840 C.2    47  ASP47       0.2293
     59  O          9.1250   35.0880    4.6200 O.2    47  ASP47      -0.2864
     60  CB        10.7130   34.4200    6.8920 C.3    47  ASP47       0.1436
     61  CG        10.8560   35.8250    7.3750 C.2    47  ASP47       0.3671
     62  OD1        9.9410   36.6890    7.3060 O.co2  47  ASP47      -0.2456
     63  OD2       11.9370   36.1130    7.8460 O.co2  47  ASP47      -0.2456
     64  N         10.0550   38.4530    4.9170 N.3    50  LYS50      -0.1231
     65  CA        11.1910   38.3460    4.0070 C.3    50  LYS50       0.1693
     66  C         10.7990   37.9760    2.5720 C.2    50  LYS50       0.2591
     67  O         11.2790   38.5470    1.5860 O.2    50  LYS50      -0.2718
     68  CB        12.1480   37.2680    4.5350 C.3    50  LYS50       0.0285
     69  CG        13.2660   37.0030    3.5450 C.3    50  LYS50       0.0035
     70  CD        14.3720   36.2320    4.2210 C.3    50  LYS50       0.0206
     71  CE        13.9560   34.8090    4.4280 C.3    50  LYS50       0.1093
     72  NZ        15.2100   33.9740    4.5460 N.3    50  LYS50      -0.1314
     73  N          9.9350   36.9820    2.4590 N.am   51  LEU51      -0.1980
     74  CA         9.4570   36.4600    1.2160 C.3    51  LEU51       0.1596
     75  C          8.4160   37.3070    0.4840 C.2    51  LEU51       0.2287
     76  O          8.1240   36.9990   -0.6740 O.2    51  LEU51      -0.2864
     77  CB         8.9830   35.0510    1.4060 C.3    51  LEU51       0.0297
     78  CG        10.1070   34.0690    1.8640 C.3    51  LEU51       0.0022
     79  CD1        9.5430   32.6560    1.9490 C.3    51  LEU51       0.0001
     80  CD2       11.3520   34.0250    0.9480 C.3    51  LEU51       0.0001
     81  N          5.1040   37.6560    1.0660 N.3    53  LEU53      -0.1245
     82  CA         4.0110   36.7200    0.8990 C.3    53  LEU53       0.1561
     83  C          2.9440   37.1080    1.9240 C.2    53  LEU53       0.2260
     84  O          2.7260   36.4070    2.8520 O.2    53  LEU53      -0.2867
     85  CB         4.4940   35.2700    1.1440 C.3    53  LEU53       0.0270
     86  CG         5.5440   34.8140    0.1150 C.3    53  LEU53       0.0019
     87  CD1        5.8350   33.3420    0.3600 C.3    53  LEU53       0.0001
     88  CD2        5.1680   35.0310   -1.3510 C.3    53  LEU53       0.0001
     89  N          0.3830   34.3300    2.8650 N.3    56  TYR56      -0.1241
     90  CA         0.7900   32.9710    3.3530 C.3    56  TYR56       0.1605
     91  C         -0.0090   32.5700    4.6050 C.2    56  TYR56       0.2264
     92  O         -0.7390   31.5150    4.6800 O.2    56  TYR56      -0.2867
     93  CB         2.3220   32.9020    3.6550 C.3    56  TYR56       0.0534
     94  CG         2.7210   31.4820    3.9950 C.ar   56  TYR56      -0.0201
     95  CD1        2.8520   30.5260    2.9760 C.ar   56  TYR56      -0.0009
     96  CD2        2.8080   31.0560    5.3030 C.ar   56  TYR56      -0.0009
     97  CE1        3.1230   29.2030    3.2640 C.ar   56  TYR56       0.0417
     98  CE2        3.0250   29.7080    5.6120 C.ar   56  TYR56       0.0417
     99  CZ         3.2350   28.8010    4.5900 C.ar   56  TYR56       0.1957
    100  OH         3.4920   27.4700    4.9310 O.3    56  TYR56      -0.2866
    101  N          2.6060   23.0050    2.0620 N.3    95  CYS95      -0.1235
    102  CA         3.4000   23.3350    0.8700 C.3    95  CYS95       0.1677
    103  C          2.5750   23.1560   -0.3870 C.2    95  CYS95       0.2270
    104  O          2.4690   24.0740   -1.2280 O.2    95  CYS95      -0.2867
    105  CB         4.7200   22.5350    0.8440 C.3    95  CYS95       0.0956
    106  SG         5.7500   23.1080   -0.5290 S.3    95  CYS95      -0.0801
    107  N         -0.3490   25.8130   -0.6820 N.3    98  TYR98      -0.1227
    108  CA         0.0220   27.1960   -0.9610 C.3    98  TYR98       0.1736
    109  C          0.6200   27.4040   -2.3350 C.2    98  TYR98       0.2595
    110  O          0.3100   28.3910   -2.9870 O.2    98  TYR98      -0.2718
    111  CB         0.9110   27.7850    0.1260 C.3    98  TYR98       0.0548
    112  CG         1.2860   29.2320   -0.1370 C.ar   98  TYR98      -0.0200
    113  CD1        0.4160   30.2540    0.1920 C.ar   98  TYR98      -0.0009
    114  CD2        2.4550   29.5610   -0.7820 C.ar   98  TYR98      -0.0009
    115  CE1        0.7210   31.5830   -0.0850 C.ar   98  TYR98       0.0417
    116  CE2        2.8230   30.8900   -1.0640 C.ar   98  TYR98       0.0417
    117  CZ         1.9020   31.9080   -0.7900 C.ar   98  TYR98       0.1957
    118  OH         2.0960   33.2260   -1.1000 O.3    98  TYR98      -0.2866
    119  N          1.4160   26.4630   -2.7660 N.am   99  ASN99      -0.1974
    120  CA         2.1640   26.5680   -4.0310 C.3    99  ASN99       0.1688
    121  C          1.5350   25.7840   -5.2330 C.2    99  ASN99       0.2292
    122  O          0.6970   24.9570   -5.0600 O.2    99  ASN99      -0.2864
    123  CB         3.6210   26.1640   -3.7930 C.3    99  ASN99       0.1181
    124  CG         4.2480   26.9770   -2.6650 C.2    99  ASN99       0.2629
    125  OD1        4.6380   28.1500   -2.8570 O.2    99  ASN99      -0.2716
    126  ND2        4.2850   26.3850   -1.4630 N.am   99  ASN99      -0.0877
    127  N          9.2440   24.9330   -8.0250 N.3   104  ASP104     -0.1225
    128  CA        10.4220   24.3710   -7.4000 C.3   104  ASP104      0.1805
    129  C         10.2130   23.9490   -5.9510 C.2   104  ASP104      0.2597
    130  O         10.6600   22.8880   -5.5730 O.2   104  ASP104     -0.2718
    131  CB        11.6080   25.3320   -7.4710 C.3   104  ASP104      0.1424
    132  CG        12.2590   25.3520   -8.8420 C.2   104  ASP104      0.3668
    133  OD1       11.8700   24.5790   -9.7250 O.co2 104  ASP104     -0.2456
    134  OD2       13.1370   26.1960   -9.0460 O.co2 104  ASP104     -0.2456
    135  N          9.5790   24.7870   -5.1330 N.am  105  ILE105     -0.1980
    136  CA         9.3780   24.4020   -3.7050 C.3   105  ILE105      0.1595
    137  C          8.5230   23.1170   -3.5380 C.2   105  ILE105      0.2287
    138  O          8.8160   22.2650   -2.7010 O.2   105  ILE105     -0.2864
    139  CB         8.8060   25.6180   -2.9000 C.3   105  ILE105      0.0276
    140  CG1        8.9130   25.4130   -1.3990 C.3   105  ILE105      0.0022
    141  CG2        7.3930   26.0080   -3.2980 C.3   105  ILE105      0.0022
    142  CD1       10.3490   25.2160   -1.0090 C.3   105  ILE105      0.0001
    143  N         10.7080   20.1110   -4.5180 N.3   108  MET108     -0.1245
    144  CA        11.5590   19.9030   -3.3490 C.3   108  MET108      0.1570
    145  C         10.8380   19.1690   -2.1830 C.2   108  MET108      0.2261
    146  O         11.3780   18.2270   -1.5960 O.2   108  MET108     -0.2867
    147  CB        12.1020   21.2340   -2.8700 C.3   108  MET108      0.0387
    148  CG        13.0960   21.8780   -3.8650 C.3   108  MET108      0.0595
    149  SD        13.4340   23.6270   -3.4940 S.3   108  MET108     -0.1393
    150  CE        14.7690   23.3890   -2.2910 C.3   108  MET108      0.0692
@<TRIPOS>BOND
     1   133   132   ar
     2   134   132   ar
     3   132   131    1
     4   127   128    1
     5   131   128    1
     6   128   129    1
     7   129   130    2
     8   129   135   am
     9   121   122    2
    10   121   120    1
    11   135   136    1
    12   143   144    1
    13   120   123    1
    14   120   119    1
    15   148   149    1
    16   148   147    1
    17   123   124    1
    18   136   137    1
    19   136   139    1
    20   137   138    2
    21   149   150    1
    22   144   147    1
    23   144   145    1
    24   141   139    1
    25   110   109    2
    26   139   140    1
    27   125   124    2
    28   119   109   am
    29   124   126   am
    30   109   108    1
    31   145   146    2
    32    12    14   ar
    33    12    10   ar
    34   140   142    1
    35    88    86    1
    36   104   103    2
    37   118   117    1
    38   116   117   ar
    39   116   114   ar
    40   108   107    1
    41   108   111    1
    42    14    13   ar
    43   117   115   ar
    44   114   112   ar
    45     9    10   ar
    46     9     7   ar
    47    76    75    2
    48   106   105    1
    49    10     8   ar
    50   103   102    1
    51   112   111    1
    52   112   113   ar
    53   115   113   ar
    54    86    87    1
    55    86    85    1
    56    13    11   ar
    57    75    74    1
    58     7     6   ar
    59    20    21    1
    60    20    19    1
    61   105   102    1
    62     8    11   ar
    63     8     6   ar
    64   102   101    1
    65    82    81    1
    66    82    85    1
    67    82    83    1
    68    80    78    1
    69    32    31   ar
    70    32    30   ar
    71    31    29   ar
    72    74    77    1
    73    74    73    1
    74    77    78    1
    75    21    15    1
    76     6     5    1
    77    67    66    2
    78    19    16    1
    79    78    79    1
    80    83    84    2
    81    30    28   ar
    82    29    27   ar
    83    73    66   am
    84    66    65    1
    85    15    16    1
    86    15     3   am
    87    89    90    1
    88     5     2    1
    89    16    17    1
    90    95    97   ar
    91    95    94   ar
    92     1     2    1
    93    97    99   ar
    94    90    93    1
    95    90    91    1
    96    28    27   ar
    97    69    70    1
    98    69    68    1
    99     2     3    1
   100    27    26    1
   101    93    94    1
   102     3     4    2
   103    94    96   ar
   104    65    68    1
   105    65    64    1
   106    17    22   am
   107    17    18    2
   108    70    71    1
   109    22    23    1
   110    71    72    1
   111    99   100    1
   112    99    98   ar
   113    54    53    1
   114    91    92    2
   115    59    58    2
   116    26    23    1
   117    55    53    1
   118    96    98   ar
   119    23    24    1
   120    58    57    1
   121    53    50    1
   122    56    57    1
   123    56    51   am
   124    50    51    1
   125    50    49    1
   126    41    39   am
   127    57    60    1
   128    24    25    2
   129    60    61    1
   130    51    52    2
   131    62    61   ar
   132    61    63   ar
   133    49    44   am
   134    39    40    2
   135    39    38    1
   136    36    35    2
   137    45    44    2
   138    44    43    1
   139    38    37    1
   140    33    34    1
   141    35    34    1
   142    35    42   am
   143    43    42    1
   144    43    46    1
   145    34    37    1
   146    42    48    1
   147    46    47    1
   148    48    47    1
