@<TRIPOS>MOLECULE
tmp/5fc3B00.pdb
 240 238 0 0 0
SMALL
GASTEIGER

@<TRIPOS>ATOM
      1  N          3.2800  -57.1700    0.9840 N.3    76  CYS76      -0.1221
      2  CA         2.7800  -58.4550    1.4770 C.3    76  CYS76       0.1808
      3  C          3.9240  -59.3510    1.9080 C.2    76  CYS76       0.2601
      4  O          3.8720  -60.0210    2.9380 O.2    76  CYS76      -0.2717
      5  CB         1.9430  -59.1430    0.3980 C.3    76  CYS76       0.0970
      6  SG         0.4210  -58.2640   -0.0200 S.3    76  CYS76      -0.0800
      7  N          4.9510  -59.3100    1.0880 N.am   77  HIS77      -0.1975
      8  CA         6.1150  -60.1210    1.2540 C.3    77  HIS77       0.1656
      9  C          7.0740  -59.5520    2.2880 C.2    77  HIS77       0.2291
     10  O          7.9670  -60.2470    2.7110 O.2    77  HIS77      -0.2864
     11  CB         6.7880  -60.2540   -0.1030 C.3    77  HIS77       0.0771
     12  CG         8.1920  -60.7520   -0.0450 C.ar   77  HIS77       0.0820
     13  ND1        9.1830  -60.1030    0.6540 N.ar   77  HIS77      -0.2267
     14  CD2        8.7770  -61.8290   -0.6150 C.ar   77  HIS77       0.1154
     15  CE1       10.3170  -60.7660    0.5240 C.ar   77  HIS77       0.1986
     16  NE2       10.0980  -61.8190   -0.2410 N.ar   77  HIS77      -0.2212
     17  N          5.8300  -58.3620    4.9940 N.3    79  SER79      -0.1202
     18  CA         4.9630  -58.4830    6.1650 C.3    79  SER79       0.2020
     19  C          5.7490  -59.1240    7.2970 C.2    79  SER79       0.2618
     20  O          5.9260  -58.5640    8.3800 O.2    79  SER79      -0.2717
     21  CB         3.7140  -59.3050    5.8470 C.3    79  SER79       0.2103
     22  OG         4.0560  -60.5570    5.2750 O.3    79  SER79      -0.2182
     23  N          6.2220  -60.3370    7.0220 N.am   80  ARG80      -0.1979
     24  CA         6.9950  -61.1120    7.9860 C.3    80  ARG80       0.1597
     25  C          8.2410  -60.3610    8.3930 C.2    80  ARG80       0.2287
     26  O          8.5020  -60.1470    9.5710 O.2    80  ARG80      -0.2864
     27  CB         7.4110  -62.4710    7.4030 C.3    80  ARG80       0.0334
     28  CG         8.1980  -63.3600    8.3740 C.3    80  ARG80       0.0492
     29  CD         9.6740  -63.5500    7.9980 C.3    80  ARG80       0.2205
     30  NE        10.4800  -64.1100    9.0950 N.pl3  80  ARG80      -0.0865
     31  CZ        11.8120  -64.1150    9.1370 C.cat  80  ARG80       0.5346
     32  NH1       12.5120  -63.6000    8.1410 N.pl3  80  ARG80       0.1354
     33  NH2       12.4490  -64.6420   10.1720 N.pl3  80  ARG80       0.1354
     34  N          5.0150  -50.4390    8.6260 N.3    89  TRP89      -0.1227
     35  CA         4.4820  -51.3020    7.5650 C.3    89  TRP89       0.1737
     36  C          3.0350  -50.9060    7.2230 C.2    89  TRP89       0.2595
     37  O          2.6710  -50.7920    6.0480 O.2    89  TRP89      -0.2718
     38  CB         4.5720  -52.7890    7.9440 C.3    89  TRP89       0.0564
     39  CG         3.9040  -53.7470    6.9670 C.ar   89  TRP89       0.0003
     40  CD1        4.4580  -54.2120    5.8070 C.ar   89  TRP89       0.0946
     41  CD2        2.6420  -54.4250    7.1030 C.ar   89  TRP89       0.0152
     42  NE1        3.6070  -55.0960    5.1910 N.ar   89  TRP89      -0.2442
     43  CE2        2.4880  -55.2480    5.9650 C.ar   89  TRP89       0.0810
     44  CE3        1.6220  -54.4020    8.0580 C.ar   89  TRP89       0.0012
     45  CZ2        1.3630  -56.0440    5.7610 C.ar   89  TRP89       0.0191
     46  CZ3        0.4960  -55.1910    7.8470 C.ar   89  TRP89       0.0001
     47  CH2        0.3770  -55.9960    6.7040 C.ar   89  TRP89       0.0015
     48  N          2.2110  -50.7270    8.2600 N.am   90  TRP90      -0.1976
     49  CA         0.8020  -50.3560    8.0900 C.3    90  TRP90       0.1640
     50  C          0.6810  -48.9980    7.4280 C.2    90  TRP90       0.2290
     51  O         -0.1570  -48.7980    6.5500 O.2    90  TRP90      -0.2864
     52  CB         0.0450  -50.3120    9.4240 C.3    90  TRP90       0.0576
     53  CG        -0.1920  -51.6340   10.0860 C.ar   90  TRP90       0.0006
     54  CD1        0.5930  -52.2290   11.0170 C.ar   90  TRP90       0.0946
     55  CD2       -1.2770  -52.5360    9.8440 C.ar   90  TRP90       0.0152
     56  NE1        0.0670  -53.4380   11.3890 N.ar   90  TRP90      -0.2442
     57  CE2       -1.0830  -53.6520   10.6800 C.ar   90  TRP90       0.0810
     58  CE3       -2.3960  -52.5060    9.0070 C.ar   90  TRP90       0.0012
     59  CZ2       -1.9630  -54.7280   10.7050 C.ar   90  TRP90       0.0191
     60  CZ3       -3.2690  -53.5760    9.0330 C.ar   90  TRP90       0.0001
     61  CH2       -3.0480  -54.6720    9.8780 C.ar   90  TRP90       0.0015
     62  N          1.1450  -49.3030    3.6290 N.3    93  ARG93      -0.1245
     63  CA        -0.0270  -49.8310    2.9230 C.3    93  ARG93       0.1563
     64  C         -1.2480  -48.9200    2.8340 C.2    93  ARG93       0.2260
     65  O         -1.9080  -48.8600    1.7980 O.2    93  ARG93      -0.2867
     66  CB        -0.4420  -51.1680    3.5360 C.3    93  ARG93       0.0307
     67  CG         0.5630  -52.2590    3.2410 C.3    93  ARG93       0.0489
     68  CD         0.2680  -53.5450    3.9740 C.3    93  ARG93       0.2205
     69  NE        -1.0750  -54.0740    3.7480 N.pl3  93  ARG93      -0.0865
     70  CZ        -1.4330  -54.7650    2.6690 C.cat  93  ARG93       0.5346
     71  NH1       -0.5500  -55.0050    1.7070 N.pl3  93  ARG93       0.1354
     72  NH2       -2.6690  -55.2290    2.5570 N.pl3  93  ARG93       0.1354
     73  N          1.0290  -73.5940    6.5930 N.3   299  ASP299     -0.1225
     74  CA         1.5560  -72.4090    7.2820 C.3   299  ASP299      0.1805
     75  C          0.5580  -71.2670    7.5110 C.2   299  ASP299      0.2597
     76  O          0.8730  -70.2980    8.2060 O.2   299  ASP299     -0.2718
     77  CB         2.7780  -71.8710    6.5390 C.3   299  ASP299      0.1424
     78  CG         2.4870  -71.5370    5.0890 C.2   299  ASP299      0.3668
     79  OD1        1.7810  -70.5350    4.8400 O.co2 299  ASP299     -0.2456
     80  OD2        2.9850  -72.2650    4.2020 O.co2 299  ASP299     -0.2456
     81  N         -0.6290  -71.3760    6.9210 N.am  300  LEU300     -0.1979
     82  CA        -1.6730  -70.3590    7.0810 C.3   300  LEU300      0.1596
     83  C         -2.5650  -70.7000    8.2690 C.2   300  LEU300      0.2287
     84  O         -3.7640  -70.9220    8.1200 O.2   300  LEU300     -0.2864
     85  CB        -2.5120  -70.2340    5.8040 C.3   300  LEU300      0.0297
     86  CG        -1.7210  -69.9460    4.5310 C.3   300  LEU300      0.0022
     87  CD1       -2.6420  -69.8280    3.3260 C.3   300  LEU300      0.0001
     88  CD2       -0.9200  -68.6720    4.7140 C.3   300  LEU300      0.0001
     89  N         -5.5870  -68.4990    8.9860 N.3   303  THR303     -0.1218
     90  CA        -6.6490  -68.7720    8.0210 C.3   303  THR303      0.1862
     91  C         -7.4440  -70.0310    8.3600 C.2   303  THR303      0.2287
     92  O         -8.6690  -70.0410    8.2970 O.2   303  THR303     -0.2866
     93  CB        -6.0880  -68.9060    6.6010 C.3   303  THR303      0.1770
     94  OG1       -5.4740  -67.6710    6.2130 O.3   303  THR303     -0.2211
     95  CG2       -7.1910  -69.2250    5.6220 C.3   303  THR303      0.0375
     96  N         -8.2220  -72.0330   -0.3390 N.3   347  PHE347     -0.1227
     97  CA        -7.6750  -71.0690    0.6030 C.3   347  PHE347      0.1736
     98  C         -6.1970  -71.3600    0.8550 C.2   347  PHE347      0.2596
     99  O         -5.8390  -71.9620    1.8680 O.2   347  PHE347     -0.2718
    100  CB        -8.4740  -71.1020    1.9130 C.3   347  PHE347      0.0547
    101  CG        -9.8530  -70.4810    1.8120 C.ar  347  PHE347     -0.0202
    102  CD1      -10.6300  -70.6430    0.6730 C.ar  347  PHE347     -0.0042
    103  CD2      -10.3830  -69.7630    2.8680 C.ar  347  PHE347     -0.0042
    104  CE1      -11.8900  -70.0870    0.5800 C.ar  347  PHE347     -0.0003
    105  CE2      -11.6490  -69.2070    2.7790 C.ar  347  PHE347     -0.0003
    106  CZ       -12.4000  -69.3700    1.6340 C.ar  347  PHE347     -0.0000
    107  N         -5.3440  -70.9270   -0.0670 N.am  348  GLY348     -0.1942
    108  CA        -3.9170  -71.1800    0.0170 C.3   348  GLY348      0.2014
    109  C         -3.0820  -70.1320   -0.6940 C.2   348  GLY348      0.2639
    110  O         -3.6080  -69.1270   -1.1700 O.2   348  GLY348     -0.2714
    111  N         -1.7780  -70.3760   -0.7850 N.am  349  HIS349     -0.1959
    112  CA        -0.8800  -69.4620   -1.4840 C.3   349  HIS349      0.1787
    113  C         -1.1130  -69.5200   -2.9830 C.2   349  HIS349      0.2620
    114  O         -1.2660  -70.5950   -3.5640 O.2   349  HIS349     -0.2715
    115  CB         0.5880  -69.7840   -1.1810 C.3   349  HIS349      0.0785
    116  CG         0.9530  -69.6670    0.2640 C.ar  349  HIS349      0.0821
    117  ND1        0.8880  -68.4740    0.9510 N.ar  349  HIS349     -0.2267
    118  CD2        1.3900  -70.5900    1.1530 C.ar  349  HIS349      0.1154
    119  CE1        1.2730  -68.6660    2.1990 C.ar  349  HIS349      0.1986
    120  NE2        1.5790  -69.9420    2.3490 N.ar  349  HIS349     -0.2212
    121  N         -1.1340  -68.3440   -3.5990 N.am  350  GLY350     -0.1954
    122  CA        -1.1330  -68.2230   -5.0440 C.3   350  GLY350      0.1869
    123  C         -2.3940  -68.7460   -5.7040 C.2   350  GLY350      0.2309
    124  O         -3.4890  -68.6340   -5.1530 O.2   350  GLY350     -0.2863
    125  N         -8.5220  -68.1100   -3.4810 N.3   374  MET374     -0.1230
    126  CA        -8.2500  -67.0980   -2.4760 C.3   374  MET374      0.1702
    127  C         -6.7740  -67.0960   -2.1010 C.2   374  MET374      0.2593
    128  O         -6.3590  -67.7400   -1.1380 O.2   374  MET374     -0.2718
    129  CB        -9.1150  -67.3180   -1.2330 C.3   374  MET374      0.0401
    130  CG       -10.6180  -67.2520   -1.4860 C.3   374  MET374      0.0596
    131  SD       -11.2060  -65.5950   -1.9040 S.3   374  MET374     -0.1393
    132  CE       -11.2890  -65.6890   -3.6900 C.3   374  MET374      0.0692
    133  N         -5.9830  -66.3880   -2.9010 N.am  375  GLY375     -0.1942
    134  CA        -4.5380  -66.4450   -2.8170 C.3   375  GLY375      0.2014
    135  C         -3.9340  -65.2950   -3.5980 C.2   375  GLY375      0.2639
    136  O         -4.6370  -64.5660   -4.2960 O.2   375  GLY375     -0.2714
    137  N         -2.6230  -65.1340   -3.4710 N.am  376  CYS376     -0.1967
    138  CA        -1.8830  -64.0940   -4.1790 C.3   376  CYS376      0.1712
    139  C         -1.8700  -64.2090   -5.7030 C.2   376  CYS376      0.2296
    140  O         -1.4990  -65.2470   -6.2530 O.2   376  CYS376     -0.2864
    141  CB        -0.4540  -64.0530   -3.6530 C.3   376  CYS376      0.0983
    142  SG        -0.3320  -63.1030   -2.1300 S.3   376  CYS376     -0.0798
    143  N         -1.0380  -59.2930   -5.2440 N.3   410  ASP410     -0.1225
    144  CA        -0.8370  -60.0060   -3.9880 C.3   410  ASP410      0.1805
    145  C         -1.6150  -59.3810   -2.8310 C.2   410  ASP410      0.2598
    146  O         -1.7840  -58.1620   -2.7700 O.2   410  ASP410     -0.2718
    147  CB         0.6540  -60.0400   -3.6400 C.3   410  ASP410      0.1424
    148  CG         1.4690  -60.8450   -4.6340 C.2   410  ASP410      0.3668
    149  OD1        0.8840  -61.6770   -5.3630 O.co2 410  ASP410     -0.2456
    150  OD2        2.7000  -60.6390   -4.6950 O.co2 410  ASP410     -0.2456
    151  N         -2.0890  -60.2320   -1.9240 N.am  411  VAL411     -0.1966
    152  CA        -2.8990  -59.8030   -0.7940 C.3   411  VAL411      0.1727
    153  C         -2.5230  -60.5770    0.4720 C.2   411  VAL411      0.2617
    154  O         -2.0240  -61.6940    0.4000 O.2   411  VAL411     -0.2715
    155  CB        -4.4080  -59.9870   -1.0690 C.3   411  VAL411      0.0290
    156  CG1       -4.8770  -59.0490   -2.1760 C.3   411  VAL411      0.0023
    157  CG2       -4.7020  -61.4330   -1.4330 C.3   411  VAL411      0.0023
    158  N         -2.7530  -59.9600    1.6310 N.am  412  THR412     -0.1937
    159  CA        -2.5120  -60.5840    2.9430 C.3   412  THR412      0.2028
    160  C         -3.6250  -61.6000    3.2690 C.2   412  THR412      0.2642
    161  O         -4.7490  -61.4480    2.8090 O.2   412  THR412     -0.2714
    162  CB        -2.4050  -59.5280    4.0440 C.3   412  THR412      0.1808
    163  OG1       -3.6110  -58.7560    4.1000 O.3   412  THR412     -0.2208
    164  CG2       -1.2340  -58.5900    3.7770 C.3   412  THR412      0.0379
    165  N         -3.3070  -62.6240    4.0560 N.am  413  ASP413     -0.1957
    166  CA        -4.2880  -63.6210    4.4870 C.3   413  ASP413      0.1840
    167  C         -5.5030  -63.0530    5.2580 C.2   413  ASP413      0.2622
    168  O         -6.6460  -63.3530    4.9160 O.2   413  ASP413     -0.2715
    169  CB        -3.5840  -64.6860    5.3260 C.3   413  ASP413      0.1450
    170  CG        -2.9900  -64.1270    6.5960 C.2   413  ASP413      0.3671
    171  OD1       -2.6450  -62.9360    6.6060 O.co2 413  ASP413     -0.2456
    172  OD2       -2.7640  -64.8940    7.5480 O.co2 413  ASP413     -0.2456
    173  N         -5.2540  -62.2170    6.2640 N.am  414  ARG414     -0.1963
    174  CA        -6.3020  -61.6810    7.1230 C.3   414  ARG414      0.1729
    175  C         -7.3420  -60.9030    6.3410 C.2   414  ARG414      0.2616
    176  O         -8.5430  -61.0630    6.5560 O.2   414  ARG414     -0.2715
    177  CB        -5.7160  -60.7950    8.2180 C.3   414  ARG414      0.0348
    178  CG        -5.1300  -61.5460    9.4010 C.3   414  ARG414      0.0492
    179  CD        -4.8570  -60.5900   10.5450 C.3   414  ARG414      0.2205
    180  NE        -4.2890  -61.2640   11.7090 N.pl3 414  ARG414     -0.0865
    181  CZ        -3.4250  -60.7010   12.5460 C.cat 414  ARG414      0.5346
    182  NH1       -3.0250  -59.4560   12.3380 N.pl3 414  ARG414      0.1354
    183  NH2       -2.9510  -61.3830   13.5800 N.pl3 414  ARG414      0.1354
    184  N         -6.8820  -60.0630    5.4250 N.am  415  ASP415     -0.1957
    185  CA        -7.7810  -59.1480    4.7500 C.3   415  ASP415      0.1840
    186  C         -8.5080  -59.8690    3.6240 C.2   415  ASP415      0.2622
    187  O         -9.6580  -59.5460    3.3290 O.2   415  ASP415     -0.2715
    188  CB        -7.0180  -57.9360    4.2170 C.3   415  ASP415      0.1450
    189  CG        -7.7890  -56.6410    4.3970 C.2   415  ASP415      0.3671
    190  OD1       -8.6300  -56.5760    5.3210 O.co2 415  ASP415     -0.2456
    191  OD2       -7.5510  -55.6840    3.6280 O.co2 415  ASP415     -0.2456
    192  N         -7.8610  -60.8470    2.9980 N.am  416  ILE416     -0.1963
    193  CA        -8.5490  -61.5900    1.9520 C.3   416  ILE416      0.1727
    194  C         -9.5680  -62.5560    2.5750 C.2   416  ILE416      0.2616
    195  O        -10.5740  -62.8840    1.9470 O.2   416  ILE416     -0.2715
    196  CB        -7.5530  -62.3660    1.0480 C.3   416  ILE416      0.0290
    197  CG1       -8.2110  -62.7460   -0.2770 C.3   416  ILE416      0.0022
    198  CG2       -7.0070  -63.6010    1.7490 C.3   416  ILE416      0.0023
    199  CD1       -8.5550  -61.5580   -1.1450 C.3   416  ILE416      0.0001
    200  N         -9.3080  -63.0170    3.7990 N.am  417  ASP417     -0.1957
    201  CA       -10.2740  -63.8460    4.5240 C.3   417  ASP417      0.1840
    202  C        -11.5380  -63.0770    4.8720 C.2   417  ASP417      0.2621
    203  O        -12.6370  -63.6330    4.9030 O.2   417  ASP417     -0.2715
    204  CB        -9.6640  -64.4170    5.8070 C.3   417  ASP417      0.1450
    205  CG        -8.6020  -65.4540    5.5350 C.2   417  ASP417      0.3671
    206  OD1       -8.4490  -65.8530    4.3620 O.co2 417  ASP417     -0.2456
    207  OD2       -7.9230  -65.8770    6.4930 O.co2 417  ASP417     -0.2456
    208  N        -11.3610  -61.7890    5.1460 N.am  418  ARG418     -0.1977
    209  CA       -12.4730  -60.8800    5.3640 C.3   418  ARG418      0.1597
    210  C        -13.3570  -60.8360    4.1290 C.2   418  ARG418      0.2287
    211  O        -14.5800  -60.9430    4.2200 O.2   418  ARG418     -0.2864
    212  CB       -11.9350  -59.4900    5.6970 C.3   418  ARG418      0.0334
    213  CG       -11.2720  -59.4220    7.0610 C.3   418  ARG418      0.0492
    214  CD       -10.8160  -58.0170    7.4090 C.3   418  ARG418      0.2205
    215  NE       -10.1410  -57.9820    8.7030 N.pl3 418  ARG418     -0.0865
    216  CZ        -8.8370  -57.7700    8.8530 C.cat 418  ARG418      0.5346
    217  NH1       -8.0730  -57.5610    7.7900 N.pl3 418  ARG418      0.1354
    218  NH2       -8.2920  -57.7900   10.0610 N.pl3 418  ARG418      0.1354
    219  N        -10.1770  -54.1770    5.1950 N.3   455  ARG455     -0.1231
    220  CA        -9.6750  -52.9790    5.8100 C.3   455  ARG455      0.1694
    221  C         -9.2300  -52.0370    4.7260 C.2   455  ARG455      0.2592
    222  O         -9.3550  -50.8450    4.8610 O.2   455  ARG455     -0.2718
    223  CB        -8.5500  -53.3260    6.7780 C.3   455  ARG455      0.0321
    224  CG        -7.4910  -52.2670    6.9740 C.3   455  ARG455      0.0489
    225  CD        -7.6780  -51.5240    8.2740 C.3   455  ARG455      0.2205
    226  NE        -6.4400  -50.9380    8.7750 N.pl3 455  ARG455     -0.0865
    227  CZ        -6.0810  -49.6710    8.6080 C.cat 455  ARG455      0.5346
    228  NH1       -4.9370  -49.2340    9.1190 N.pl3 455  ARG455      0.1354
    229  NH2       -6.8630  -48.8390    7.9380 N.pl3 455  ARG455      0.1354
    230  N         -8.7260  -52.5840    3.6340 N.am  456  PHE456     -0.1976
    231  CA        -8.3060  -51.7790    2.5000 C.3   456  PHE456      0.1639
    232  C         -9.1330  -52.0990    1.2640 C.2   456  PHE456      0.2290
    233  O         -9.0000  -53.1700    0.6720 O.2   456  PHE456     -0.2864
    234  CB        -6.8250  -52.0100    2.2000 C.3   456  PHE456      0.0560
    235  CG        -5.9100  -51.5880    3.3080 C.ar  456  PHE456     -0.0200
    236  CD1       -5.8680  -50.2710    3.7280 C.ar  456  PHE456     -0.0042
    237  CD2       -5.0900  -52.5120    3.9320 C.ar  456  PHE456     -0.0042
    238  CE1       -5.0240  -49.8830    4.7510 C.ar  456  PHE456     -0.0003
    239  CE2       -4.2450  -52.1320    4.9550 C.ar  456  PHE456     -0.0003
    240  CZ        -4.2110  -50.8150    5.3650 C.ar  456  PHE456     -0.0000
@<TRIPOS>BOND
     1   140   139    2
     2   123   124    2
     3   123   122    1
     4   139   138    1
     5   149   148   ar
     6   143   144    1
     7   122   121    1
     8   150   148   ar
     9   148   147    1
    10   136   135    2
    11   138   141    1
    12   138   137    1
    13   144   147    1
    14   144   145    1
    15   132   131    1
    16   141   142    1
    17   121   113   am
    18   135   137   am
    19   135   134    1
    20   114   113    2
    21   125   126    1
    22   113   112    1
    23   133   134    1
    24   133   127   am
    25   145   146    2
    26   145   151   am
    27   126   127    1
    28   126   129    1
    29   156   155    1
    30   127   128    2
    31   151   152    1
    32   131   130    1
    33   130   129    1
    34   112   115    1
    35   112   111    1
    36   157   155    1
    37   115   116    1
    38   110   109    2
    39   199   197    1
    40   155   152    1
    41   152   153    1
    42   111   109   am
    43   109   108    1
    44    14    16   ar
    45    14    12   ar
    46    96    97    1
    47   197   196    1
    48    16    15   ar
    49    11    12    1
    50    11     8    1
    51   107   108    1
    52   107    98   am
    53    12    13   ar
    54     6     5    1
    55   116   117   ar
    56   116   118   ar
    57     5     2    1
    58   154   153    2
    59   153   158   am
    60    15    13   ar
    61   104   102   ar
    62   104   106   ar
    63    97    98    1
    64    97   100    1
    65   233   232    2
    66   102   101   ar
    67    98    99    2
    68   117   119   ar
    69     1     2    1
    70   196   198    1
    71   196   193    1
    72     7     8    1
    73     7     3   am
    74   118   120   ar
    75     8     9    1
    76   232   231    1
    77     2     3    1
    78   158   159    1
    79   106   105   ar
    80    71    70    1
    81    65    64    2
    82   101   100    1
    83   101   103   ar
    84     3     4    2
    85   195   194    2
    86   193   194    1
    87   193   192    1
    88   119   120   ar
    89   234   231    1
    90   234   235    1
    91     9    10    2
    92   231   230    1
    93    72    70    1
    94   194   200   am
    95    70    69    2
    96   105   103   ar
    97   161   160    2
    98    64    63    1
    99    63    66    1
   100    63    62    1
   101   159   160    1
   102   159   162    1
   103   192   186   am
   104    67    66    1
   105    67    68    1
   106   160   165   am
   107   235   236   ar
   108   235   237   ar
   109    87    86    1
   110   187   186    2
   111   186   185    1
   112   191   189   ar
   113   230   221   am
   114   236   238   ar
   115    69    68    1
   116   164   162    1
   117   200   201    1
   118   237   239   ar
   119   162   163    1
   120   165   166    1
   121   210   211    2
   122   210   209    1
   123    80    78   ar
   124   188   189    1
   125   188   185    1
   126   206   205   ar
   127   189   190   ar
   128   166   167    1
   129   166   169    1
   130   201   202    1
   131   201   204    1
   132    86    88    1
   133    86    85    1
   134   221   222    2
   135   221   220    1
   136   185   184    1
   137   238   240   ar
   138    79    78   ar
   139   202   203    2
   140   202   208   am
   141   168   167    2
   142   239   240   ar
   143    17    18    1
   144    78    77    1
   145   208   209    1
   146    42    40   ar
   147    42    43   ar
   148   219   220    1
   149   167   173   am
   150    22    21    1
   151   169   170    1
   152   209   212    1
   153   184   175   am
   154   205   204    1
   155   205   207   ar
   156    95    93    1
   157   212   213    1
   158    45    43   ar
   159    45    47   ar
   160    85    82    1
   161    40    39   ar
   162   220   223    1
   163    21    18    1
   164    43    41   ar
   165    37    36    2
   166    18    19    1
   167    94    93    1
   168   173   174    1
   169   175   176    2
   170   175   174    1
   171    77    74    1
   172    51    50    2
   173    73    74    1
   174   170   171   ar
   175   170   172   ar
   176    93    90    1
   177    47    46   ar
   178   223   224    1
   179    81    82    1
   180    81    75   am
   181    39    41   ar
   182    39    38    1
   183   224   225    1
   184    23    19   am
   185    23    24    1
   186   213   214    1
   187    82    83    1
   188    41    44   ar
   189   174   177    1
   190    36    35    1
   191    36    48   am
   192    74    75    1
   193    19    20    2
   194    27    24    1
   195    27    28    1
   196   214   215    1
   197    50    49    1
   198    75    76    2
   199    35    38    1
   200    35    34    1
   201   217   216    1
   202    46    44   ar
   203   229   227    1
   204    24    25    1
   205    29    28    1
   206    29    30    1
   207    90    91    1
   208    90    89    1
   209    49    48    1
   210    49    52    1
   211    84    83    2
   212    32    31    1
   213   177   178    1
   214   225   226    1
   215    92    91    2
   216    25    26    2
   217   227   226    2
   218   227   228    1
   219   215   216    2
   220   216   218    1
   221    58    60   ar
   222    58    55   ar
   223    60    61   ar
   224    30    31    2
   225    31    33    1
   226   178   179    1
   227    52    53    1
   228    55    53   ar
   229    55    57   ar
   230    61    59   ar
   231    53    54   ar
   232   179   180    1
   233    57    59   ar
   234    57    56   ar
   235    54    56   ar
   236   180   181    2
   237   182   181    1
   238   181   183    1
