@<TRIPOS>MOLECULE
tmp/5fc4A00.pdb
 148 137 0 0 0
SMALL
GASTEIGER

@<TRIPOS>ATOM
      1  N         -2.7360   11.9440   10.7580 N.3    44  HIS44      -0.1241
      2  CA        -2.7290   10.9100   11.7740 C.3    44  HIS44       0.1621
      3  C         -2.7910   11.4400   13.1910 C.2    44  HIS44       0.2264
      4  O         -2.4770   10.6690   14.1280 O.2    44  HIS44      -0.2867
      5  CB        -1.4430   10.0670   11.6870 C.3    44  HIS44       0.0745
      6  CG        -1.3380    9.1490   10.5260 C.ar   44  HIS44       0.0817
      7  ND1       -0.9530    9.5610    9.2530 N.ar   44  HIS44      -0.2268
      8  CD2       -1.5050    7.7900   10.4640 C.ar   44  HIS44       0.1154
      9  CE1       -0.9280    8.4850    8.4590 C.ar   44  HIS44       0.1986
     10  NE2       -1.2420    7.4060    9.1690 N.ar   44  HIS44      -0.2212
     11  N         -4.8080    9.1360   15.5750 N.3    47  ALA47      -0.1231
     12  CA        -4.2530    7.7860   15.6590 C.3    47  ALA47       0.1694
     13  C         -2.9110    7.8060   16.3740 C.2    47  ALA47       0.2592
     14  O         -2.6540    6.9760   17.2500 O.2    47  ALA47      -0.2718
     15  CB        -4.0930    7.2230   14.2350 C.3    47  ALA47       0.0304
     16  N         -2.0280    8.7390   15.9810 N.am   48  PHE48      -0.1976
     17  CA        -0.7300    8.8510   16.6260 C.3    48  PHE48       0.1639
     18  C         -0.8810    9.1540   18.0940 C.2    48  PHE48       0.2290
     19  O         -0.1240    8.6090   18.9230 O.2    48  PHE48      -0.2864
     20  CB         0.0620    9.9600   15.9420 C.3    48  PHE48       0.0560
     21  CG         0.7260    9.5870   14.6090 C.ar   48  PHE48      -0.0200
     22  CD1        0.5520    8.3870   13.9910 C.ar   48  PHE48      -0.0042
     23  CD2        1.5610   10.5140   14.0420 C.ar   48  PHE48      -0.0042
     24  CE1        1.2300    8.0270   12.7900 C.ar   48  PHE48      -0.0003
     25  CE2        2.2400   10.2310   12.8220 C.ar   48  PHE48      -0.0003
     26  CZ         2.1060    8.9940   12.2000 C.ar   48  PHE48      -0.0000
     27  N         -1.8450    5.7890   19.8700 N.3    51  MET51      -0.1245
     28  CA        -0.7520    4.8400   20.0440 C.3    51  MET51       0.1570
     29  C          0.2850    5.3860   21.0130 C.2    51  MET51       0.2261
     30  O          0.8090    4.6570   21.8680 O.2    51  MET51      -0.2867
     31  CB        -0.0720    4.5440   18.6990 C.3    51  MET51       0.0387
     32  CG         0.7790    3.2540   18.8100 C.3    51  MET51       0.0595
     33  SD         1.5470    2.7680   17.2620 S.3    51  MET51      -0.1393
     34  CE         2.8740    3.6810   17.5380 C.3    51  MET51       0.0692
     35  N          2.1170    3.6960   24.3030 N.3    55  LEU55      -0.1245
     36  CA         3.5720    3.5320   24.4570 C.3    55  LEU55       0.1561
     37  C          4.0850    4.0540   25.7920 C.2    55  LEU55       0.2260
     38  O          5.0850    3.5220   26.3240 O.2    55  LEU55      -0.2867
     39  CB         4.2870    4.2520   23.3090 C.3    55  LEU55       0.0270
     40  CG         4.2710    3.5240   21.9830 C.3    55  LEU55       0.0019
     41  CD1        4.8410    4.4380   20.8750 C.3    55  LEU55       0.0001
     42  CD2        5.0420    2.1610   21.9000 C.3    55  LEU55       0.0001
     43  N         12.1340    1.4600   21.7590 N.3    66  LEU66      -0.1245
     44  CA        11.4940    1.6010   20.4410 C.3    66  LEU66       0.1561
     45  C         12.3140    1.0080   19.3260 C.2    66  LEU66       0.2260
     46  O         11.7460    0.7710   18.2420 O.2    66  LEU66      -0.2867
     47  CB        11.2240    3.0680   20.1300 C.3    66  LEU66       0.0270
     48  CG        10.2780    3.7510   21.1220 C.3    66  LEU66       0.0019
     49  CD1       10.1130    5.1850   20.6970 C.3    66  LEU66       0.0001
     50  CD2        8.8880    3.0590   21.0530 C.3    66  LEU66       0.0001
     51  N         10.8090   -2.3020   18.5750 N.3    69  VAL69      -0.1231
     52  CA         9.4560   -2.0990   18.0490 C.3    69  VAL69       0.1692
     53  C          9.5300   -1.7580   16.5750 C.2    69  VAL69       0.2591
     54  O          8.7740   -2.3080   15.7420 O.2    69  VAL69      -0.2718
     55  CB         8.7390   -1.0120   18.8670 C.3    69  VAL69       0.0266
     56  CG1        7.3170   -0.7020   18.3450 C.3    69  VAL69       0.0020
     57  CG2        8.6520   -1.4130   20.3220 C.3    69  VAL69       0.0020
     58  N         10.4400   -0.8240   16.2130 N.am   70  MET70      -0.1979
     59  CA        10.5810   -0.4290   14.8070 C.3    70  MET70       0.1605
     60  C         11.0770   -1.5900   13.9430 C.2    70  MET70       0.2287
     61  O         10.5960   -1.7620   12.8250 O.2    70  MET70      -0.2864
     62  CB        11.5140    0.7770   14.6680 C.3    70  MET70       0.0413
     63  CG        10.8880    2.0360   15.2470 C.3    70  MET70       0.0598
     64  SD        11.9430    3.4900   15.0060 S.3    70  MET70      -0.1393
     65  CE        13.3180    3.1510   16.0930 C.3    70  MET70       0.0692
     66  N          8.1750   -3.5500   12.9140 N.3    73  VAL73      -0.1245
     67  CA         7.3540   -3.0100   11.8100 C.3    73  VAL73       0.1561
     68  C          7.7120   -3.6760   10.4710 C.2    73  VAL73       0.2260
     69  O          6.8410   -4.0600    9.6840 O.2    73  VAL73      -0.2867
     70  CB         7.5380   -1.4960   11.7440 C.3    73  VAL73       0.0252
     71  CG1        6.8010   -0.9230   10.5280 C.3    73  VAL73       0.0019
     72  CG2        7.0240   -0.8810   13.0250 C.3    73  VAL73       0.0019
     73  N          8.2100    0.1930    1.1590 N.3    80  ASN80      -0.1240
     74  CA         7.9060    1.2490    0.2020 C.3    80  ASN80       0.1653
     75  C          8.1210    2.5760    0.9170 C.2    80  ASN80       0.2266
     76  O          8.2730    2.6290    2.1410 O.2    80  ASN80      -0.2867
     77  CB         6.4880    1.1320   -0.3820 C.3    80  ASN80       0.1155
     78  CG         5.4190    1.1240    0.6860 C.2    80  ASN80       0.2627
     79  OD1        5.2970    2.0860    1.4690 O.2    80  ASN80      -0.2716
     80  ND2        4.5710    0.0970    0.6720 N.am   80  ASN80      -0.0877
     81  N          6.0570    4.9890    1.3700 N.3    82  GLY82      -0.1210
     82  CA         4.9700    5.3910    2.2600 C.3    82  GLY82       0.1956
     83  C          5.1600    4.8580    3.6590 C.2    82  GLY82       0.2611
     84  O          5.0040    5.5840    4.6560 O.2    82  GLY82      -0.2717
     85  N          5.4990    3.5690    3.7670 N.am   83  ARG83      -0.1979
     86  CA         5.7610    2.9850    5.0790 C.3    83  ARG83       0.1597
     87  C          6.9660    3.6310    5.7320 C.2    83  ARG83       0.2287
     88  O          6.9190    3.9930    6.9130 O.2    83  ARG83      -0.2864
     89  CB         5.9580    1.4900    4.8830 C.3    83  ARG83       0.0334
     90  CG         6.5310    0.7440    6.1220 C.3    83  ARG83       0.0492
     91  CD         5.5430    0.8640    7.3230 C.3    83  ARG83       0.2205
     92  NE         4.1360    0.5220    7.0010 N.pl3  83  ARG83      -0.0865
     93  CZ         3.6920   -0.7210    6.9320 C.cat  83  ARG83       0.5346
     94  NH1        4.5400   -1.7840    7.0800 N.pl3  83  ARG83       0.1354
     95  NH2        2.3750   -0.9460    6.7560 N.pl3  83  ARG83       0.1354
     96  N          6.1400    7.2200    6.8360 N.3    86  THR86      -0.1203
     97  CA         5.2260    7.2580    7.9520 C.3    86  THR86       0.1994
     98  C          5.9030    6.8120    9.2250 C.2    86  THR86       0.2617
     99  O          5.5950    7.3430   10.2900 O.2    86  THR86      -0.2717
    100  CB         3.9570    6.4580    7.6080 C.3    86  THR86       0.1784
    101  OG1        3.4150    6.9870    6.3960 O.3    86  THR86      -0.2211
    102  CG2        2.9190    6.6300    8.6930 C.3    86  THR86       0.0376
    103  N          6.8290    5.8590    9.1510 N.am   87  LEU87      -0.1979
    104  CA         7.6420    5.5010   10.3390 C.3    87  LEU87       0.1596
    105  C          8.4250    6.7000   10.8450 C.2    87  LEU87       0.2287
    106  O          8.4080    7.0190   12.0510 O.2    87  LEU87      -0.2864
    107  CB         8.5680    4.3480    9.9300 C.3    87  LEU87       0.0297
    108  CG         9.5360    3.9300   11.0760 C.3    87  LEU87       0.0022
    109  CD1        9.2420    2.5270   11.4180 C.3    87  LEU87       0.0001
    110  CD2       10.9190    4.0750   10.7080 C.3    87  LEU87       0.0001
    111  N          6.0050    9.2040   12.5290 N.3    90  PHE90      -0.1227
    112  CA         5.6320    8.9000   13.9020 C.3    90  PHE90       0.1736
    113  C          6.8120    9.1540   14.8090 C.2    90  PHE90       0.2596
    114  O          6.6030    9.6310   15.9390 O.2    90  PHE90      -0.2718
    115  CB         5.1010    7.4750   14.0490 C.3    90  PHE90       0.0547
    116  CG         4.6140    7.1820   15.4300 C.ar   90  PHE90      -0.0202
    117  CD1        3.4630    7.7800   15.8930 C.ar   90  PHE90      -0.0042
    118  CD2        5.3140    6.2740   16.2340 C.ar   90  PHE90      -0.0042
    119  CE1        2.9830    7.5570   17.1510 C.ar   90  PHE90      -0.0003
    120  CE2        4.8090    6.0180   17.5220 C.ar   90  PHE90      -0.0003
    121  CZ         3.6700    6.6670   17.9930 C.ar   90  PHE90      -0.0000
    122  N          8.0290    8.8620   14.3380 N.am   91  GLY91      -0.1957
    123  CA         9.1920    9.2550   15.1350 C.3    91  GLY91       0.1869
    124  C          9.1920   10.7350   15.4630 C.2    91  GLY91       0.2309
    125  O          9.5400   11.1310   16.6090 O.2    91  GLY91      -0.2863
    126  N          6.7640   11.4080   18.1530 N.3    94  VAL94      -0.1245
    127  CA         7.3690   11.0840   19.4480 C.3    94  VAL94       0.1561
    128  C          8.3140   12.1850   19.8840 C.2    94  VAL94       0.2260
    129  O          8.3580   12.5200   21.0800 O.2    94  VAL94      -0.2867
    130  CB         8.0520    9.6970   19.4040 C.3    94  VAL94       0.0252
    131  CG1        8.8580    9.3870   20.6620 C.3    94  VAL94       0.0019
    132  CG2        7.0290    8.5550   19.1310 C.3    94  VAL94       0.0019
    133  N         16.8740    8.9430   19.6610 N.3   110  LEU110     -0.1245
    134  CA        15.7810    8.4260   18.8600 C.3   110  LEU110      0.1561
    135  C         16.0610    8.5320   17.3640 C.2   110  LEU110      0.2260
    136  O         15.8270    7.5620   16.6020 O.2   110  LEU110     -0.2867
    137  CB        14.5270    9.2070   19.2360 C.3   110  LEU110      0.0270
    138  CG        13.2910    8.8030   18.4190 C.3   110  LEU110      0.0019
    139  CD1       12.9640    7.3590   18.4840 C.3   110  LEU110      0.0001
    140  CD2       12.0780    9.7210   18.8010 C.3   110  LEU110      0.0001
    141  N         16.1950    5.4340   14.7350 N.3   114  ILE114     -0.1245
    142  CA        15.3920    5.2940   13.5200 C.3   114  ILE114      0.1561
    143  C         16.3170    5.0820   12.3360 C.2   114  ILE114      0.2260
    144  O         16.0750    4.2150   11.4860 O.2   114  ILE114     -0.2867
    145  CB        14.5100    6.5450   13.3180 C.3   114  ILE114      0.0252
    146  CG1       13.4570    6.6560   14.4010 C.3   114  ILE114      0.0019
    147  CG2       13.8660    6.5290   11.9260 C.3   114  ILE114      0.0019
    148  CD1       12.8380    8.0330   14.4450 C.3   114  ILE114      0.0001
@<TRIPOS>BOND
     1    77    74    1
     2    77    78    1
     3    74    75    1
     4    74    73    1
     5    80    78   am
     6    78    79    2
     7    75    76    2
     8    81    82    1
     9    82    83    1
    10    83    85   am
    11    83    84    2
    12    85    86    1
    13    89    86    1
    14    89    90    1
    15    86    87    1
    16    87    88    2
    17    90    91    1
    18   101   100    1
    19    95    93    1
    20    96    97    1
    21    93    92    2
    22    93    94    1
    23    92    91    1
    24   100    97    1
    25   100   102    1
    26    97    98    1
    27     9    10   ar
    28     9     7   ar
    29   103    98   am
    30   103   104    1
    31    10     8   ar
    32    98    99    2
    33     7     6   ar
    34    69    68    2
    35   107   104    1
    36   107   108    1
    37   104   105    1
    38     8     6   ar
    39    68    67    1
    40     6     5    1
    41    71    70    1
    42   110   108    1
    43     1     2    1
    44   105   106    2
    45   108   109    1
    46   144   143    2
    47     5     2    1
    48    70    67    1
    49    70    72    1
    50     2     3    1
    51    67    66    1
    52   147   145    1
    53    26    24   ar
    54    26    25   ar
    55   143   142    1
    56   111   112    1
    57    24    22   ar
    58    25    23   ar
    59    61    60    2
    60     3     4    2
    61   145   142    1
    62   145   146    1
    63   142   141    1
    64   112   115    1
    65   112   113    1
    66    60    59    1
    67    22    21   ar
    68    23    21   ar
    69   115   116    1
    70    15    12    1
    71   122   113   am
    72   122   123    1
    73   146   148    1
    74    21    20    1
    75    62    59    1
    76    62    63    1
    77    59    58    1
    78   113   114    2
    79    64    63    1
    80    64    65    1
    81   123   124    1
    82   116   117   ar
    83   116   118   ar
    84   124   125    2
    85    11    12    1
    86    12    13    1
    87    54    53    2
    88   117   119   ar
    89    20    17    1
    90    16    13   am
    91    16    17    1
    92    58    53   am
    93   118   120   ar
    94    13    14    2
    95    53    52    1
    96   136   135    2
    97    17    18    1
    98   119   121   ar
    99    33    34    1
   100    33    32    1
   101   135   134    1
   102   120   121   ar
   103    52    51    1
   104    52    55    1
   105    18    19    2
   106   126   127    1
   107    46    45    2
   108    56    55    1
   109   138   139    1
   110   138   140    1
   111   138   137    1
   112    31    32    1
   113    31    28    1
   114   134   137    1
   115   134   133    1
   116    55    57    1
   117   132   130    1
   118    45    44    1
   119   130   127    1
   120   130   131    1
   121   127   128    1
   122    27    28    1
   123   128   129    2
   124    28    29    1
   125    47    44    1
   126    47    48    1
   127    44    43    1
   128    49    48    1
   129    41    40    1
   130    29    30    2
   131    50    48    1
   132    42    40    1
   133    40    39    1
   134    39    36    1
   135    35    36    1
   136    36    37    1
   137    37    38    2
