@<TRIPOS>MOLECULE
tmp/5fc4A01.pdb
 91 85 0 0 0
SMALL
GASTEIGER

@<TRIPOS>ATOM
      1  N         -1.8450    5.7890   19.8700 N.3    51  MET51      -0.1245
      2  CA        -0.7520    4.8400   20.0440 C.3    51  MET51       0.1570
      3  C          0.2850    5.3860   21.0130 C.2    51  MET51       0.2261
      4  O          0.8090    4.6570   21.8680 O.2    51  MET51      -0.2867
      5  CB        -0.0720    4.5440   18.6990 C.3    51  MET51       0.0387
      6  CG         0.7790    3.2540   18.8100 C.3    51  MET51       0.0595
      7  SD         1.5470    2.7680   17.2620 S.3    51  MET51      -0.1393
      8  CE         2.8740    3.6810   17.5380 C.3    51  MET51       0.0692
      9  N         -0.4610    4.8210   24.5590 N.3    54  LYS54      -0.1231
     10  CA        -0.2290    3.4430   25.0130 C.3    54  LYS54       0.1693
     11  C          1.2580    3.1450   25.1780 C.2    54  LYS54       0.2591
     12  O          1.6390    2.4000   26.0890 O.2    54  LYS54      -0.2718
     13  CB        -0.8780    2.4170   24.0610 C.3    54  LYS54       0.0285
     14  CG        -2.3460    2.0600   24.3560 C.3    54  LYS54       0.0035
     15  CD        -2.4820    1.4750   25.7090 C.3    54  LYS54       0.0206
     16  CE        -3.8620    0.8710   25.9020 C.3    54  LYS54       0.1093
     17  NZ        -3.8810   -0.0370   27.0770 N.3    54  LYS54      -0.1314
     18  N          2.1170    3.6960   24.3030 N.am   55  LEU55      -0.1980
     19  CA         3.5720    3.5320   24.4570 C.3    55  LEU55       0.1596
     20  C          4.0850    4.0540   25.7920 C.2    55  LEU55       0.2287
     21  O          5.0850    3.5220   26.3240 O.2    55  LEU55      -0.2864
     22  CB         4.2870    4.2520   23.3090 C.3    55  LEU55       0.0297
     23  CG         4.2710    3.5240   21.9830 C.3    55  LEU55       0.0022
     24  CD1        4.8410    4.4380   20.8750 C.3    55  LEU55       0.0001
     25  CD2        5.0420    2.1610   21.9000 C.3    55  LEU55       0.0001
     26  N         13.6490    1.3380   24.0550 N.3    65  SER65      -0.1217
     27  CA        12.8140    0.1720   23.7350 C.3    65  SER65       0.1889
     28  C         12.1980    0.2620   22.3490 C.2    65  SER65       0.2288
     29  O         11.7680   -0.7640   21.7940 O.2    65  SER65      -0.2866
     30  CB        11.6880    0.0260   24.7710 C.3    65  SER65       0.2089
     31  OG        10.6140    0.9130   24.5170 O.3    65  SER65      -0.2183
     32  N         13.5580   -2.0870   18.9520 N.3    68  ARG68      -0.1231
     33  CA        13.0160   -3.3980   18.5900 C.3    68  ARG68       0.1694
     34  C         11.5770   -3.2970   18.0830 C.2    68  ARG68       0.2591
     35  O         11.1990   -4.0610   17.1740 O.2    68  ARG68      -0.2718
     36  CB        13.1220   -4.3440   19.7740 C.3    68  ARG68       0.0321
     37  CG        14.5680   -4.7690   20.0890 C.3    68  ARG68       0.0489
     38  CD        15.3210   -5.4380   18.9170 C.3    68  ARG68       0.2205
     39  NE        14.7110   -6.6620   18.4100 N.pl3  68  ARG68      -0.0865
     40  CZ        15.1520   -7.3060   17.3180 C.cat  68  ARG68       0.5346
     41  NH1       16.2610   -6.8850   16.7030 N.pl3  68  ARG68       0.1354
     42  NH2       14.5350   -8.4200   16.8940 N.pl3  68  ARG68       0.1354
     43  N         10.8090   -2.3020   18.5750 N.am   69  VAL69      -0.1980
     44  CA         9.4560   -2.0990   18.0490 C.3    69  VAL69       0.1595
     45  C          9.5300   -1.7580   16.5750 C.2    69  VAL69       0.2287
     46  O          8.7740   -2.3080   15.7420 O.2    69  VAL69      -0.2864
     47  CB         8.7390   -1.0120   18.8670 C.3    69  VAL69       0.0276
     48  CG1        7.3170   -0.7020   18.3450 C.3    69  VAL69       0.0022
     49  CG2        8.6520   -1.4130   20.3220 C.3    69  VAL69       0.0022
     50  N         10.3510   -4.6510   14.3540 N.3    72  HIS72      -0.1226
     51  CA         9.1420   -5.4610   14.1430 C.3    72  HIS72       0.1752
     52  C          8.1650   -4.8620   13.1200 C.2    72  HIS72       0.2595
     53  O          7.3910   -5.6190   12.5320 O.2    72  HIS72      -0.2718
     54  CB         8.4240   -5.6570   15.4560 C.3    72  HIS72       0.0759
     55  CG         9.1850   -6.5420   16.3700 C.ar   72  HIS72       0.0818
     56  ND1        8.8860   -6.6700   17.6900 N.ar   72  HIS72      -0.2268
     57  CD2       10.2250   -7.3650   16.1210 C.ar   72  HIS72       0.1154
     58  CE1        9.7420   -7.5250   18.2460 C.ar   72  HIS72       0.1986
     59  NE2       10.5600   -7.9610   17.3060 N.ar   72  HIS72      -0.2212
     60  N          8.1750   -3.5500   12.9140 N.am   73  VAL73      -0.1980
     61  CA         7.3540   -3.0100   11.8100 C.3    73  VAL73       0.1595
     62  C          7.7120   -3.6760   10.4710 C.2    73  VAL73       0.2287
     63  O          6.8410   -4.0600    9.6840 O.2    73  VAL73      -0.2864
     64  CB         7.5380   -1.4960   11.7440 C.3    73  VAL73       0.0276
     65  CG1        6.8010   -0.9230   10.5280 C.3    73  VAL73       0.0022
     66  CG2        7.0240   -0.8810   13.0250 C.3    73  VAL73       0.0022
     67  N          8.9440   -6.4640    9.7830 N.3    75  SER75      -0.1202
     68  CA         8.7250   -7.9010    9.7310 C.3    75  SER75       0.2020
     69  C          7.5330   -8.3250    8.8730 C.2    75  SER75       0.2618
     70  O          7.4460   -9.4870    8.5120 O.2    75  SER75      -0.2717
     71  CB         8.5850   -8.4680   11.1690 C.3    75  SER75       0.2103
     72  OG         7.3060   -8.1120   11.7830 O.3    75  SER75      -0.2182
     73  N          6.6290   -7.3810    8.4760 N.am   76  ASP76      -0.1973
     74  CA         5.5450   -7.7310    7.5640 C.3    76  ASP76       0.1709
     75  C          5.9660   -7.8360    6.1050 C.2    76  ASP76       0.2293
     76  O          5.1590   -8.2010    5.2520 O.2    76  ASP76      -0.2864
     77  CB         4.3440   -6.7340    7.6940 C.3    76  ASP76       0.1436
     78  CG         4.6940   -5.3360    7.2810 C.2    76  ASP76       0.3671
     79  OD1        5.8310   -5.0750    6.8400 O.co2  76  ASP76      -0.2456
     80  OD2        3.8170   -4.4740    7.4450 O.co2  76  ASP76      -0.2456
     81  N          5.4990    3.5690    3.7670 N.3    83  ARG83      -0.1245
     82  CA         5.7610    2.9850    5.0790 C.3    83  ARG83       0.1563
     83  C          6.9660    3.6310    5.7320 C.2    83  ARG83       0.2260
     84  O          6.9190    3.9930    6.9130 O.2    83  ARG83      -0.2867
     85  CB         5.9580    1.4900    4.8830 C.3    83  ARG83       0.0307
     86  CG         6.5310    0.7440    6.1220 C.3    83  ARG83       0.0489
     87  CD         5.5430    0.8640    7.3230 C.3    83  ARG83       0.2205
     88  NE         4.1360    0.5220    7.0010 N.pl3  83  ARG83      -0.0865
     89  CZ         3.6920   -0.7210    6.9320 C.cat  83  ARG83       0.5346
     90  NH1        4.5400   -1.7840    7.0800 N.pl3  83  ARG83       0.1354
     91  NH2        2.3750   -0.9460    6.7560 N.pl3  83  ARG83       0.1354
@<TRIPOS>BOND
     1    81    82    1
     2    85    82    1
     3    85    86    1
     4    82    83    1
     5    76    75    2
     6    83    84    2
     7    75    74    1
     8    86    87    1
     9    91    89    1
    10    79    78   ar
    11    89    88    2
    12    89    90    1
    13    88    87    1
    14    78    80   ar
    15    78    77    1
    16    74    77    1
    17    74    73    1
    18    73    69   am
    19    70    69    2
    20    69    68    1
    21    63    62    2
    22    68    67    1
    23    68    71    1
    24    62    61    1
    25    65    64    1
    26    71    72    1
    27    64    61    1
    28    64    66    1
    29    61    60    1
    30    53    52    2
    31    60    52   am
    32    52    51    1
    33    51    50    1
    34    51    54    1
    35    54    55    1
    36    46    45    2
    37    57    55   ar
    38    57    59   ar
    39    55    56   ar
    40    45    44    1
    41    41    40    1
    42    42    40    1
    43    35    34    2
    44     7     8    1
    45     7     6    1
    46    59    58   ar
    47    40    39    2
    48    56    58   ar
    49    44    43    1
    50    44    47    1
    51    34    43   am
    52    34    33    1
    53    48    47    1
    54    39    38    1
    55    33    32    1
    56    33    36    1
    57     5     6    1
    58     5     2    1
    59    47    49    1
    60    38    37    1
    61    36    37    1
    62     1     2    1
    63     2     3    1
    64    24    23    1
    65     3     4    2
    66    29    28    2
    67    25    23    1
    68    23    22    1
    69    28    27    1
    70    22    19    1
    71    27    26    1
    72    27    30    1
    73    13    14    1
    74    13    10    1
    75    18    19    1
    76    18    11   am
    77    14    15    1
    78    19    20    1
    79    31    30    1
    80     9    10    1
    81    10    11    1
    82    11    12    2
    83    15    16    1
    84    20    21    2
    85    16    17    1
