@<TRIPOS>MOLECULE
tmp/5fc4A02.pdb
 85 83 0 0 0
SMALL
GASTEIGER

@<TRIPOS>ATOM
      1  N          7.5480   18.5720    4.1540 N.3    35  ARG35      -0.1231
      2  CA         6.2400   18.7290    3.5190 C.3    35  ARG35       0.1694
      3  C          5.4020   17.4580    3.6870 C.2    35  ARG35       0.2591
      4  O          4.2280   17.5000    4.1550 O.2    35  ARG35      -0.2718
      5  CB         6.4180   19.0450    2.0410 C.3    35  ARG35       0.0321
      6  CG         5.1760   18.7740    1.1650 C.3    35  ARG35       0.0489
      7  CD         5.3680   19.3210   -0.2000 C.3    35  ARG35       0.2205
      8  NE         6.5250   18.7230   -0.8960 N.pl3  35  ARG35      -0.0865
      9  CZ         6.5000   17.5800   -1.5750 C.cat  35  ARG35       0.5346
     10  NH1        5.4500   16.7990   -1.6340 N.pl3  35  ARG35       0.1354
     11  NH2        7.6420   17.1830   -2.1460 N.pl3  35  ARG35       0.1354
     12  N          5.9840   16.3150    3.3540 N.am   36  VAL36      -0.1980
     13  CA         5.2190   15.0590    3.3960 C.3    36  VAL36       0.1595
     14  C          4.9560   14.6550    4.8230 C.2    36  VAL36       0.2287
     15  O          3.8220   14.2890    5.1740 O.2    36  VAL36      -0.2864
     16  CB         5.9800   13.9420    2.6380 C.3    36  VAL36       0.0276
     17  CG1        5.2660   12.5880    2.8560 C.3    36  VAL36       0.0022
     18  CG2        6.1010   14.3050    1.1670 C.3    36  VAL36       0.0022
     19  N          1.5620   13.8600    6.8120 N.3    40  VAL40      -0.1245
     20  CA         1.2770   12.5880    7.4700 C.3    40  VAL40       0.1561
     21  C          0.8880   12.7980    8.9260 C.2    40  VAL40       0.2260
     22  O         -0.0580   12.1830    9.4340 O.2    40  VAL40      -0.2867
     23  CB         2.5070   11.6760    7.3470 C.3    40  VAL40       0.0252
     24  CG1        2.3950   10.4480    8.2360 C.3    40  VAL40       0.0019
     25  CG2        2.7100   11.2980    5.8700 C.3    40  VAL40       0.0019
     26  N         -2.7360   11.9440   10.7580 N.3    44  HIS44      -0.1241
     27  CA        -2.7290   10.9100   11.7740 C.3    44  HIS44       0.1621
     28  C         -2.7910   11.4400   13.1910 C.2    44  HIS44       0.2264
     29  O         -2.4770   10.6690   14.1280 O.2    44  HIS44      -0.2867
     30  CB        -1.4430   10.0670   11.6870 C.3    44  HIS44       0.0745
     31  CG        -1.3380    9.1490   10.5260 C.ar   44  HIS44       0.0817
     32  ND1       -0.9530    9.5610    9.2530 N.ar   44  HIS44      -0.2268
     33  CD2       -1.5050    7.7900   10.4640 C.ar   44  HIS44       0.1154
     34  CE1       -0.9280    8.4850    8.4590 C.ar   44  HIS44       0.1986
     35  NE2       -1.2420    7.4060    9.1690 N.ar   44  HIS44      -0.2212
     36  N          6.0570    4.9890    1.3700 N.3    82  GLY82      -0.1225
     37  CA         4.9700    5.3910    2.2600 C.3    82  GLY82       0.1811
     38  C          5.1600    4.8580    3.6590 C.2    82  GLY82       0.2280
     39  O          5.0040    5.5840    4.6560 O.2    82  GLY82      -0.2866
     40  N          8.2830    6.7250    5.1800 N.3    85  VAL85      -0.1231
     41  CA         8.0680    8.1130    5.5910 C.3    85  VAL85       0.1692
     42  C          7.0960    8.1590    6.7530 C.2    85  VAL85       0.2592
     43  O          7.2090    9.0700    7.5920 O.2    85  VAL85      -0.2718
     44  CB         7.6230    9.0380    4.4300 C.3    85  VAL85       0.0266
     45  CG1        6.1020    8.9060    4.1730 C.3    85  VAL85       0.0020
     46  CG2        8.0010   10.5000    4.7940 C.3    85  VAL85       0.0020
     47  N          6.1400    7.2200    6.8360 N.am   86  THR86      -0.1953
     48  CA         5.2260    7.2580    7.9520 C.3    86  THR86       0.1897
     49  C          5.9030    6.8120    9.2250 C.2    86  THR86       0.2313
     50  O          5.5950    7.3430   10.2900 O.2    86  THR86      -0.2863
     51  CB         3.9570    6.4580    7.6080 C.3    86  THR86       0.1794
     52  OG1        3.4150    6.9870    6.3960 O.3    86  THR86      -0.2208
     53  CG2        2.9190    6.6300    8.6930 C.3    86  THR86       0.0378
     54  N          9.9200   10.2280   -5.4640 N.3   138  PHE138     -0.1227
     55  CA         8.6530    9.5690   -5.2380 C.3   138  PHE138      0.1736
     56  C          7.6290   10.5860   -4.8050 C.2   138  PHE138      0.2595
     57  O          6.4440   10.4770   -5.1780 O.2   138  PHE138     -0.2718
     58  CB         8.8850    8.4890   -4.1620 C.3   138  PHE138      0.0547
     59  CG         7.6860    7.6590   -3.8740 C.ar  138  PHE138     -0.0202
     60  CD1        7.4490    6.5220   -4.6220 C.ar  138  PHE138     -0.0042
     61  CD2        6.8570    7.9980   -2.8840 C.ar  138  PHE138     -0.0042
     62  CE1        6.2900    5.7360   -4.3740 C.ar  138  PHE138     -0.0003
     63  CE2        5.7030    7.2090   -2.5880 C.ar  138  PHE138     -0.0003
     64  CZ         5.4640    6.0680   -3.3080 C.ar  138  PHE138     -0.0000
     65  N          8.0420   11.5640   -3.9700 N.am  139  PHE139     -0.1962
     66  CA         7.0800   12.4820   -3.3630 C.3   139  PHE139      0.1771
     67  C          6.9960   13.8290   -4.0740 C.2   139  PHE139      0.2619
     68  O          6.4870   14.7860   -3.4990 O.2   139  PHE139     -0.2715
     69  CB         7.4760   12.6680   -1.9010 C.3   139  PHE139      0.0574
     70  CG         7.2020   11.4320   -1.0320 C.ar  139  PHE139     -0.0200
     71  CD1        5.8890   11.0230   -0.7930 C.ar  139  PHE139     -0.0042
     72  CD2        8.2280   10.7680   -0.4480 C.ar  139  PHE139     -0.0042
     73  CE1        5.6160    9.8800   -0.0170 C.ar  139  PHE139     -0.0003
     74  CE2        7.9790    9.6270    0.3300 C.ar  139  PHE139     -0.0003
     75  CZ         6.6680    9.2050    0.5450 C.ar  139  PHE139     -0.0000
     76  N          7.5220   13.9320   -5.2930 N.am  140  HIS140     -0.1973
     77  CA         7.4610   15.1940   -6.0000 C.3   140  HIS140      0.1656
     78  C          5.9990   15.5170   -6.3970 C.2   140  HIS140      0.2291
     79  O          5.3150   14.5930   -6.8550 O.2   140  HIS140     -0.2864
     80  CB         8.3700   15.1100   -7.2150 C.3   140  HIS140      0.0771
     81  CG         8.3050   16.3420   -8.0520 C.ar  140  HIS140      0.0820
     82  ND1        8.8580   17.5340   -7.6350 N.ar  140  HIS140     -0.2267
     83  CD2        7.6830   16.5950   -9.2200 C.ar  140  HIS140      0.1154
     84  CE1        8.6360   18.4550   -8.5580 C.ar  140  HIS140      0.1986
     85  NE2        7.8880   17.9180   -9.5030 N.ar  140  HIS140     -0.2212
@<TRIPOS>BOND
     1    85    83   ar
     2    85    84   ar
     3    83    81   ar
     4    84    82   ar
     5    81    82   ar
     6    81    80    1
     7    80    77    1
     8    79    78    2
     9    78    77    1
    10    77    76    1
    11    54    55    1
    12    76    67   am
    13    55    56    1
    14    55    58    1
    15    57    56    2
    16    56    65   am
    17    60    62   ar
    18    60    59   ar
    19    62    64   ar
    20    58    59    1
    21    67    68    2
    22    67    66    1
    23    65    66    1
    24    59    61   ar
    25    66    69    1
    26    64    63   ar
    27    61    63   ar
    28    11     9    1
    29    69    70    1
    30    10     9    1
    31     9     8    2
    32    70    71   ar
    33    70    72   ar
    34     8     7    1
    35    71    73   ar
    36    72    74   ar
    37     7     6    1
    38    73    75   ar
    39    74    75   ar
    40     6     5    1
    41    18    16    1
    42    36    37    1
    43     5     2    1
    44    37    38    1
    45    16    17    1
    46    16    13    1
    47    12    13    1
    48    12     3   am
    49    13    14    1
    50     2     3    1
    51     2     1    1
    52    38    39    2
    53     3     4    2
    54    45    44    1
    55    44    46    1
    56    44    41    1
    57    14    15    2
    58    40    41    1
    59    41    42    1
    60    25    23    1
    61    52    51    1
    62    42    47   am
    63    42    43    2
    64    19    20    1
    65    47    48    1
    66    23    20    1
    67    23    24    1
    68    20    21    1
    69    51    48    1
    70    51    53    1
    71    48    49    1
    72    34    35   ar
    73    34    32   ar
    74    21    22    2
    75    35    33   ar
    76    49    50    2
    77    32    31   ar
    78    33    31   ar
    79    31    30    1
    80    26    27    1
    81    30    27    1
    82    27    28    1
    83    28    29    2
