@<TRIPOS>MOLECULE
tmp/5fc5A04.pdb
 123 120 0 0 0
SMALL
GASTEIGER

@<TRIPOS>ATOM
      1  N         18.5850   37.3230   28.4070 N.3    23  ASP23      -0.1239
      2  CA        17.7970   36.7500   27.3060 C.3    23  ASP23       0.1674
      3  C         18.6130   35.7350   26.4940 C.2    23  ASP23       0.2266
      4  O         18.7730   35.8380   25.2800 O.2    23  ASP23      -0.2867
      5  CB        17.2490   37.8910   26.4470 C.3    23  ASP23       0.1410
      6  CG        16.1920   38.6980   27.2040 C.2    23  ASP23       0.3668
      7  OD1       16.5430   39.6340   27.9580 O.co2  23  ASP23      -0.2456
      8  OD2       14.9910   38.3630   27.1020 O.co2  23  ASP23      -0.2456
      9  N         17.8120   32.4840   26.1050 N.3    25  HIS25      -0.1241
     10  CA        16.8640   31.6930   25.3140 C.3    25  HIS25       0.1621
     11  C         17.5300   30.4980   24.6380 C.2    25  HIS25       0.2264
     12  O         17.6260   30.4500   23.4130 O.2    25  HIS25      -0.2867
     13  CB        16.2030   32.5840   24.2690 C.3    25  HIS25       0.0745
     14  CG        15.2820   33.5950   24.8590 C.ar   25  HIS25       0.0817
     15  ND1       14.0940   33.2400   25.4540 N.ar   25  HIS25      -0.2268
     16  CD2       15.3570   34.9440   24.9280 C.ar   25  HIS25       0.1154
     17  CE1       13.4700   34.3340   25.8750 C.ar   25  HIS25       0.1986
     18  NE2       14.2070   35.3820   25.5410 N.ar   25  HIS25      -0.2212
     19  N         15.0560   35.0230   31.1780 N.3    88  ASP88      -0.1239
     20  CA        14.5420   34.4750   29.9150 C.3    88  ASP88       0.1674
     21  C         15.4430   33.4010   29.2960 C.2    88  ASP88       0.2266
     22  O         16.0900   33.6470   28.2600 O.2    88  ASP88      -0.2867
     23  CB        14.2970   35.6090   28.9010 C.3    88  ASP88       0.1410
     24  CG        12.8360   35.9960   28.8180 C.2    88  ASP88       0.3668
     25  OD1       12.0440   35.5660   29.6850 O.co2  88  ASP88      -0.2456
     26  OD2       12.4790   36.7650   27.8910 O.co2  88  ASP88      -0.2456
     27  N         11.5800   30.2050   22.6260 N.3    92  HIS92      -0.1241
     28  CA        10.2370   30.6300   22.1940 C.3    92  HIS92       0.1621
     29  C          9.6040   29.4800   21.4050 C.2    92  HIS92       0.2264
     30  O          9.8010   29.3420   20.1880 O.2    92  HIS92      -0.2867
     31  CB        10.2640   31.9000   21.3520 C.3    92  HIS92       0.0745
     32  CG        10.8580   33.0850   22.0360 C.ar   92  HIS92       0.0817
     33  ND1       12.2160   33.2330   22.2060 N.ar   92  HIS92      -0.2268
     34  CD2       10.2850   34.1930   22.5740 C.ar   92  HIS92       0.1154
     35  CE1       12.4580   34.3720   22.8420 C.ar   92  HIS92       0.1986
     36  NE2       11.3040   34.9710   23.0810 N.ar   92  HIS92      -0.2212
     37  N          9.9960   36.4470   31.8290 N.3   129  ASN129     -0.1225
     38  CA         8.6330   35.9670   31.6590 C.3   129  ASN129      0.1785
     39  C          8.6080   34.5710   31.0710 C.2   129  ASN129      0.2597
     40  O          7.6420   33.8380   31.2950 O.2   129  ASN129     -0.2718
     41  CB         7.8370   36.9700   30.8200 C.3   129  ASN129      0.1169
     42  CG         8.5120   37.2910   29.4970 C.2   129  ASN129      0.2627
     43  OD1        9.6130   37.8740   29.4590 O.2   129  ASN129     -0.2716
     44  ND2        7.8830   36.9070   28.4170 N.am  129  ASN129     -0.0877
     45  N          9.6680   34.1520   30.3940 N.am  130  HIS130     -0.1975
     46  CA         9.7110   32.7910   29.9210 C.3   130  HIS130      0.1656
     47  C         10.2290   31.8140   30.9630 C.2   130  HIS130      0.2291
     48  O         10.1920   30.5980   30.7060 O.2   130  HIS130     -0.2864
     49  CB        10.5680   32.7160   28.6560 C.3   130  HIS130      0.0771
     50  CG         9.9110   33.3250   27.4660 C.ar  130  HIS130      0.0820
     51  ND1        9.0900   32.5980   26.6300 N.ar  130  HIS130     -0.2267
     52  CD2        9.8880   34.6000   27.0080 C.ar  130  HIS130      0.1154
     53  CE1        8.6250   33.3900   25.6760 C.ar  130  HIS130      0.1986
     54  NE2        9.1030   34.6080   25.8720 N.ar  130  HIS130     -0.2212
     55  N          4.4440   30.1220   30.0350 N.3   135  GLN135     -0.1245
     56  CA         5.1560   31.3840   29.9680 C.3   135  GLN135      0.1566
     57  C          4.2500   32.5240   30.3920 C.2   135  GLN135      0.2260
     58  O          3.0190   32.5030   30.1850 O.2   135  GLN135     -0.2867
     59  CB         5.6930   31.6330   28.5560 C.3   135  GLN135      0.0367
     60  CG         4.6390   31.9140   27.4910 C.3   135  GLN135      0.0905
     61  CD         5.2390   32.4170   26.2030 C.2   135  GLN135      0.2608
     62  OE1        5.7780   31.6420   25.4040 O.2   135  GLN135     -0.2717
     63  NE2        5.1890   33.7420   26.0050 N.am  135  GLN135     -0.0878
     64  N          3.6540   42.3520   33.8600 N.3   192  TYR192     -0.1241
     65  CA         3.6280   42.1750   32.4120 C.3   192  TYR192      0.1605
     66  C          2.2220   41.7940   31.9290 C.2   192  TYR192      0.2264
     67  O          1.5470   40.9360   32.5110 O.2   192  TYR192     -0.2867
     68  CB         4.6970   41.1250   32.0350 C.3   192  TYR192      0.0534
     69  CG         4.9830   40.9080   30.5880 C.ar  192  TYR192     -0.0201
     70  CD1        5.1380   41.9600   29.6960 C.ar  192  TYR192     -0.0009
     71  CD2        5.1000   39.6130   30.0950 C.ar  192  TYR192     -0.0009
     72  CE1        5.4220   41.7200   28.3880 C.ar  192  TYR192      0.0417
     73  CE2        5.3680   39.3700   28.7780 C.ar  192  TYR192      0.0417
     74  CZ         5.5290   40.4200   27.9300 C.ar  192  TYR192      0.1957
     75  OH         5.7840   40.1730   26.6070 O.3   192  TYR192     -0.2866
     76  N          9.3510   51.2790   19.9580 N.3   238  TYR238     -0.1241
     77  CA         9.0020   50.9380   18.5740 C.3   238  TYR238      0.1605
     78  C          7.5070   50.9390   18.3410 C.2   238  TYR238      0.2264
     79  O          7.0620   50.5580   17.2470 O.2   238  TYR238     -0.2867
     80  CB         9.5500   49.5440   18.2160 C.3   238  TYR238      0.0534
     81  CG         9.0730   48.4410   19.1400 C.ar  238  TYR238     -0.0201
     82  CD1        9.8150   48.1030   20.2710 C.ar  238  TYR238     -0.0009
     83  CD2        7.9010   47.7460   18.8900 C.ar  238  TYR238     -0.0009
     84  CE1        9.3870   47.1160   21.1480 C.ar  238  TYR238      0.0417
     85  CE2        7.4720   46.7460   19.7500 C.ar  238  TYR238      0.0417
     86  CZ         8.2290   46.4540   20.8760 C.ar  238  TYR238      0.1957
     87  OH         7.8270   45.5020   21.7140 O.3   238  TYR238     -0.2866
     88  N         14.6370   41.7940   28.3750 N.3   271  HIS271     -0.1226
     89  CA        13.3550   41.5420   27.7030 C.3   271  HIS271      0.1752
     90  C         13.1740   42.0930   26.2760 C.2   271  HIS271      0.2597
     91  O         12.5720   41.4340   25.4410 O.2   271  HIS271     -0.2718
     92  CB        12.2200   42.0700   28.5780 C.3   271  HIS271      0.0759
     93  CG        10.8580   41.7940   28.0240 C.ar  271  HIS271      0.0818
     94  ND1       10.3230   40.5210   27.9290 N.ar  271  HIS271     -0.2268
     95  CD2        9.9170   42.6410   27.5620 C.ar  271  HIS271      0.1154
     96  CE1        9.1080   40.6070   27.4140 C.ar  271  HIS271      0.1986
     97  NE2        8.8430   41.8810   27.1810 N.ar  271  HIS271     -0.2212
     98  N         13.6240   43.2990   25.9870 N.am  272  THR272     -0.1939
     99  CA        13.3540   43.8790   24.6960 C.3   272  THR272      0.2028
    100  C         14.2480   43.3070   23.6080 C.2   272  THR272      0.2642
    101  O         13.8830   43.3780   22.4400 O.2   272  THR272     -0.2714
    102  CB        13.5360   45.3890   24.7450 C.3   272  THR272      0.1808
    103  OG1       14.9320   45.6740   24.7810 O.3   272  THR272     -0.2208
    104  CG2       12.8240   46.0010   25.9610 C.3   272  THR272      0.0379
    105  N         15.3670   42.6870   23.9690 N.am  273  HIS273     -0.1973
    106  CA        16.3600   42.1620   23.0280 C.3   273  HIS273      0.1656
    107  C         17.0170   43.2560   22.2200 C.2   273  HIS273      0.2291
    108  O         17.6200   43.0010   21.1510 O.2   273  HIS273     -0.2864
    109  CB        15.7400   41.0970   22.1150 C.3   273  HIS273      0.0771
    110  CG        15.2580   39.8710   22.8150 C.ar  273  HIS273      0.0820
    111  ND1       15.0610   38.6870   22.1410 N.ar  273  HIS273     -0.2267
    112  CD2       14.9300   39.6250   24.1130 C.ar  273  HIS273      0.1154
    113  CE1       14.6020   37.7700   22.9740 C.ar  273  HIS273      0.1986
    114  NE2       14.5150   38.3120   24.1870 N.ar  273  HIS273     -0.2212
    115  N          9.1620   40.2140   11.1190 N.3   305  GLN305     -0.1245
    116  CA        10.0530   41.3120   11.4640 C.3   305  GLN305      0.1566
    117  C         11.1160   41.4820   10.4070 C.2   305  GLN305      0.2260
    118  O         11.6640   40.5050    9.8940 O.2   305  GLN305     -0.2867
    119  CB        10.7280   41.0590   12.8150 C.3   305  GLN305      0.0367
    120  CG         9.8270   41.0290   14.0020 C.3   305  GLN305      0.0905
    121  CD        10.6270   40.6240   15.2570 C.2   305  GLN305      0.2608
    122  OE1       10.3590   39.5850   15.8510 O.2   305  GLN305     -0.2717
    123  NE2       11.6750   41.3980   15.5920 N.am  305  GLN305     -0.0878
@<TRIPOS>BOND
     1   118   117    2
     2   117   116    1
     3   115   116    1
     4   116   119    1
     5   119   120    1
     6   120   121    1
     7   121   123   am
     8   121   122    2
     9    79    78    2
    10    80    77    1
    11    80    81    1
    12    78    77    1
    13    77    76    1
    14    83    81   ar
    15    83    85   ar
    16    81    82   ar
    17    85    86   ar
    18    30    29    2
    19    82    84   ar
    20    86    84   ar
    21    86    87    1
    22   108   107    2
    23    31    32    1
    24    31    28    1
    25    29    28    1
    26    32    33   ar
    27    32    34   ar
    28   109   110    1
    29   109   106    1
    30   111   110   ar
    31   111   113   ar
    32    28    27    1
    33    33    35   ar
    34   107   106    1
    35   101   100    2
    36    34    36   ar
    37   110   112   ar
    38    35    36   ar
    39   113   114   ar
    40   106   105    1
    41    12    11    2
    42   100   105   am
    43   100    99    1
    44   112   114   ar
    45    13    14    1
    46    13    10    1
    47    11    10    1
    48    99   102    1
    49    99    98    1
    50   102   103    1
    51   102   104    1
    52    14    16   ar
    53    14    15   ar
    54    16    18   ar
    55     4     3    2
    56    10     9    1
    57    62    61    2
    58    91    90    2
    59    15    17   ar
    60    18    17   ar
    61    53    54   ar
    62    53    51   ar
    63    54    52   ar
    64    98    90   am
    65    63    61   am
    66    61    60    1
    67    90    89    1
    68     5     6    1
    69     5     2    1
    70     3     2    1
    71    75    74    1
    72    51    50   ar
    73    52    50   ar
    74     8     6   ar
    75    97    96   ar
    76    97    95   ar
    77     6     7   ar
    78     2     1    1
    79    96    94   ar
    80    50    49    1
    81    60    59    1
    82    95    93   ar
    83    89    88    1
    84    89    92    1
    85    26    24   ar
    86    94    93   ar
    87    74    72   ar
    88    74    73   ar
    89    93    92    1
    90    22    21    2
    91    72    70   ar
    92    44    42   am
    93    59    56    1
    94    49    46    1
    95    73    71   ar
    96    24    23    1
    97    24    25   ar
    98    23    20    1
    99    21    20    1
   100    43    42    2
   101    42    41    1
   102    70    69   ar
   103    20    19    1
   104    46    45    1
   105    46    47    1
   106    56    55    1
   107    56    57    1
   108    71    69   ar
   109    58    57    2
   110    45    39   am
   111    69    68    1
   112    48    47    2
   113    41    38    1
   114    39    40    2
   115    39    38    1
   116    38    37    1
   117    66    65    1
   118    66    67    2
   119    68    65    1
   120    65    64    1
