@<TRIPOS>MOLECULE
tmp/5fc6A04.pdb
 153 149 0 0 0
SMALL
GASTEIGER

@<TRIPOS>ATOM
      1  N         18.7800   37.3450   28.3520 N.3    23  ASP23      -0.1239
      2  CA        17.9680   36.7950   27.2650 C.3    23  ASP23       0.1674
      3  C         18.7720   35.7890   26.4380 C.2    23  ASP23       0.2266
      4  O         18.9510   35.9300   25.2300 O.2    23  ASP23      -0.2867
      5  CB        17.4120   37.9260   26.3990 C.3    23  ASP23       0.1410
      6  CG        16.3230   38.7230   27.1360 C.2    23  ASP23       0.3668
      7  OD1       16.6700   39.7460   27.7680 O.co2  23  ASP23      -0.2456
      8  OD2       15.1450   38.2860   27.1080 O.co2  23  ASP23      -0.2456
      9  N         18.0090   32.5240   25.9690 N.3    25  HIS25      -0.1241
     10  CA        17.0400   31.7420   25.1810 C.3    25  HIS25       0.1621
     11  C         17.7080   30.5670   24.4640 C.2    25  HIS25       0.2264
     12  O         17.7580   30.5010   23.2350 O.2    25  HIS25      -0.2867
     13  CB        16.3050   32.6170   24.1620 C.3    25  HIS25       0.0745
     14  CG        15.3850   33.6250   24.7810 C.ar   25  HIS25       0.0817
     15  ND1       14.1990   33.2790   25.4110 N.ar   25  HIS25      -0.2268
     16  CD2       15.4660   34.9740   24.8330 C.ar   25  HIS25       0.1154
     17  CE1       13.5900   34.3860   25.8200 C.ar   25  HIS25       0.1986
     18  NE2       14.3370   35.4160   25.4760 N.ar   25  HIS25      -0.2212
     19  N         15.2910   34.9660   31.1420 N.3    88  ASP88      -0.1239
     20  CA        14.7520   34.4320   29.8780 C.3    88  ASP88       0.1674
     21  C         15.6440   33.3740   29.2380 C.2    88  ASP88       0.2266
     22  O         16.2860   33.6130   28.2120 O.2    88  ASP88      -0.2867
     23  CB        14.4840   35.5680   28.8930 C.3    88  ASP88       0.1410
     24  CG        13.0150   35.9700   28.8290 C.2    88  ASP88       0.3668
     25  OD1       12.2290   35.5000   29.6710 O.co2  88  ASP88      -0.2456
     26  OD2       12.6830   36.7390   27.8850 O.co2  88  ASP88      -0.2456
     27  N         11.6810   30.2790   22.5420 N.3    92  HIS92      -0.1241
     28  CA        10.3570   30.7210   22.0970 C.3    92  HIS92       0.1621
     29  C          9.7050   29.5870   21.3080 C.2    92  HIS92       0.2264
     30  O          9.8540   29.4880   20.0810 O.2    92  HIS92      -0.2867
     31  CB        10.4620   31.9640   21.2310 C.3    92  HIS92       0.0745
     32  CG        11.0650   33.1490   21.9270 C.ar   92  HIS92       0.0817
     33  ND1       12.4260   33.3220   22.0430 N.ar   92  HIS92      -0.2268
     34  CD2       10.4940   34.2240   22.5310 C.ar   92  HIS92       0.1154
     35  CE1       12.6720   34.4560   22.6860 C.ar   92  HIS92       0.1986
     36  NE2       11.5180   35.0170   22.9950 N.ar   92  HIS92      -0.2212
     37  N         10.1550   36.3810   31.8510 N.3   129  ASN129     -0.1225
     38  CA         8.7900   35.8900   31.6600 C.3   129  ASN129      0.1785
     39  C          8.7630   34.5010   31.0310 C.2   129  ASN129      0.2597
     40  O          7.7730   33.7820   31.2030 O.2   129  ASN129     -0.2718
     41  CB         7.9820   36.9000   30.8150 C.3   129  ASN129      0.1169
     42  CG         8.6620   37.2460   29.4900 C.2   129  ASN129      0.2627
     43  OD1        9.7530   37.8220   29.4570 O.2   129  ASN129     -0.2716
     44  ND2        8.0490   36.8340   28.3940 N.am  129  ASN129     -0.0877
     45  N          9.8130   34.1020   30.3210 N.am  130  HIS130     -0.1975
     46  CA         9.8840   32.7460   29.8040 C.3   130  HIS130      0.1656
     47  C         10.4320   31.7760   30.8320 C.2   130  HIS130      0.2291
     48  O         10.4570   30.5710   30.5580 O.2   130  HIS130     -0.2864
     49  CB        10.7340   32.7110   28.5290 C.3   130  HIS130      0.0771
     50  CG        10.0660   33.3610   27.3550 C.ar  130  HIS130      0.0820
     51  ND1        9.2540   32.6640   26.4870 N.ar  130  HIS130     -0.2267
     52  CD2       10.0640   34.6490   26.9260 C.ar  130  HIS130      0.1154
     53  CE1        8.7940   33.4960   25.5610 C.ar  130  HIS130      0.1986
     54  NE2        9.2770   34.7040   25.8050 N.ar  130  HIS130     -0.2212
     55  N          4.5770   30.1310   29.9700 N.3   135  GLN135     -0.1245
     56  CA         5.2800   31.3990   29.9390 C.3   135  GLN135      0.1566
     57  C          4.3620   32.5210   30.3930 C.2   135  GLN135      0.2260
     58  O          3.1390   32.4890   30.1880 O.2   135  GLN135     -0.2867
     59  CB         5.8210   31.6860   28.5340 C.3   135  GLN135      0.0367
     60  CG         4.7920   31.9980   27.4690 C.3   135  GLN135      0.0905
     61  CD         5.4370   32.5250   26.1860 C.2   135  GLN135      0.2608
     62  OE1        5.9560   31.7650   25.3570 O.2   135  GLN135     -0.2717
     63  NE2        5.4480   33.8500   26.0380 N.am  135  GLN135     -0.0878
     64  N          3.7360   42.3010   33.9870 N.3   192  TYR192     -0.1241
     65  CA         3.7460   42.1800   32.5250 C.3   192  TYR192      0.1605
     66  C          2.3570   41.7930   32.0150 C.2   192  TYR192      0.2264
     67  O          1.6770   40.9270   32.5800 O.2   192  TYR192     -0.2867
     68  CB         4.8190   41.1540   32.1350 C.3   192  TYR192      0.0534
     69  CG         5.0440   40.8980   30.6870 C.ar  192  TYR192     -0.0201
     70  CD1        5.2030   41.9500   29.7810 C.ar  192  TYR192     -0.0009
     71  CD2        5.1760   39.6030   30.2160 C.ar  192  TYR192     -0.0009
     72  CE1        5.4440   41.6970   28.4670 C.ar  192  TYR192      0.0417
     73  CE2        5.4110   39.3400   28.8930 C.ar  192  TYR192      0.0417
     74  CZ         5.5390   40.3930   28.0210 C.ar  192  TYR192      0.1957
     75  OH         5.7810   40.1320   26.7050 O.3   192  TYR192     -0.2866
     76  N          9.4750   51.2210   19.9890 N.3   238  TYR238     -0.1241
     77  CA         9.0880   50.9040   18.6100 C.3   238  TYR238      0.1605
     78  C          7.5870   50.9420   18.3920 C.2   238  TYR238      0.2264
     79  O          7.1260   50.6350   17.2900 O.2   238  TYR238     -0.2867
     80  CB         9.6070   49.5100   18.2220 C.3   238  TYR238      0.0534
     81  CG         9.0930   48.4010   19.1320 C.ar  238  TYR238     -0.0201
     82  CD1        9.8330   48.0040   20.2380 C.ar  238  TYR238     -0.0009
     83  CD2        7.8640   47.7860   18.9110 C.ar  238  TYR238     -0.0009
     84  CE1        9.3900   47.0310   21.0810 C.ar  238  TYR238      0.0417
     85  CE2        7.3930   46.7870   19.7720 C.ar  238  TYR238      0.0417
     86  CZ         8.1710   46.4170   20.8550 C.ar  238  TYR238      0.1957
     87  OH         7.7690   45.4450   21.7300 O.3   238  TYR238     -0.2866
     88  N         14.7130   41.8540   28.2910 N.3   271  HIS271     -0.1226
     89  CA        13.4220   41.6020   27.6370 C.3   271  HIS271      0.1752
     90  C         13.2220   42.1760   26.2360 C.2   271  HIS271      0.2597
     91  O         12.5210   41.5730   25.4130 O.2   271  HIS271     -0.2718
     92  CB        12.2870   42.1180   28.5400 C.3   271  HIS271      0.0759
     93  CG        10.9200   41.8500   27.9990 C.ar  271  HIS271      0.0818
     94  ND1       10.3720   40.5820   27.9160 N.ar  271  HIS271     -0.2268
     95  CD2        9.9630   42.7030   27.5560 C.ar  271  HIS271      0.1154
     96  CE1        9.1520   40.6680   27.4180 C.ar  271  HIS271      0.1986
     97  NE2        8.8810   41.9440   27.1830 N.ar  271  HIS271     -0.2212
     98  N         13.7360   43.3660   25.9480 N.am  272  THR272     -0.1939
     99  CA        13.4510   43.9510   24.6480 C.3   272  THR272      0.2028
    100  C         14.3780   43.4180   23.5650 C.2   272  THR272      0.2642
    101  O         14.0870   43.5680   22.3680 O.2   272  THR272     -0.2714
    102  CB        13.5910   45.4790   24.6960 C.3   272  THR272      0.1808
    103  OG1       14.9580   45.7920   24.7670 O.3   272  THR272     -0.2208
    104  CG2       12.8580   46.0810   25.8820 C.3   272  THR272      0.0379
    105  N         15.4940   42.8170   23.9540 N.am  273  HIS273     -0.1959
    106  CA        16.5020   42.3150   23.0220 C.3   273  HIS273      0.1787
    107  C         17.1420   43.4230   22.2230 C.2   273  HIS273      0.2620
    108  O         17.7020   43.1890   21.1410 O.2   273  HIS273     -0.2715
    109  CB        15.9240   41.2390   22.0660 C.3   273  HIS273      0.0785
    110  CG        15.4170   40.0010   22.7470 C.ar  273  HIS273      0.0821
    111  ND1       15.2710   38.8010   22.0790 N.ar  273  HIS273     -0.2267
    112  CD2       15.0330   39.7660   24.0240 C.ar  273  HIS273      0.1154
    113  CE1       14.7820   37.8960   22.9070 C.ar  273  HIS273      0.1986
    114  NE2       14.6350   38.4520   24.1010 N.ar  273  HIS273     -0.2212
    115  N         17.1010   44.6380   22.7270 N.am  274  ARG274     -0.1977
    116  CA        17.6480   45.7900   22.0300 C.3   274  ARG274      0.1597
    117  C         18.5220   46.5840   22.9980 C.2   274  ARG274      0.2287
    118  O         18.3930   46.4540   24.2120 O.2   274  ARG274     -0.2864
    119  CB        16.5400   46.6970   21.4800 C.3   274  ARG274      0.0334
    120  CG        15.6180   46.0320   20.4910 C.3   274  ARG274      0.0492
    121  CD        16.2910   45.8110   19.1380 C.3   274  ARG274      0.2205
    122  NE        15.3810   45.1690   18.2020 N.pl3 274  ARG274     -0.0865
    123  CZ        15.2740   43.8630   18.0230 C.cat 274  ARG274      0.5346
    124  NH1       16.0190   43.0040   18.7020 N.pl3 274  ARG274      0.1354
    125  NH2       14.3920   43.3980   17.1560 N.pl3 274  ARG274      0.1354
    126  N         17.0870   35.9330   17.7590 N.3   300  VAL300     -0.1245
    127  CA        15.8140   35.5230   17.1870 C.3   300  VAL300      0.1561
    128  C         14.9340   36.7180   16.8260 C.2   300  VAL300      0.2260
    129  O         14.9350   37.7520   17.5000 O.2   300  VAL300     -0.2867
    130  CB        15.1080   34.5630   18.1600 C.3   300  VAL300      0.0252
    131  CG1       14.5020   35.3020   19.3990 C.3   300  VAL300      0.0019
    132  CG2       14.0540   33.7700   17.4240 C.3   300  VAL300      0.0019
    133  N          9.1980   40.4680   11.1880 N.3   305  GLN305     -0.1245
    134  CA        10.0720   41.5650   11.5680 C.3   305  GLN305      0.1566
    135  C         11.1630   41.7440   10.5370 C.2   305  GLN305      0.2260
    136  O         11.7520   40.7670   10.0750 O.2   305  GLN305     -0.2867
    137  CB        10.7180   41.3020   12.9350 C.3   305  GLN305      0.0367
    138  CG         9.7570   41.2460   14.1030 C.3   305  GLN305      0.0905
    139  CD        10.4670   40.8100   15.3870 C.2   305  GLN305      0.2608
    140  OE1       10.3580   39.6590   15.8130 O.2   305  GLN305     -0.2717
    141  NE2       11.2330   41.7210   15.9810 N.am  305  GLN305     -0.0878
    142  N         21.0640   50.2800   18.4280 N.3   388  TYR388     -0.1241
    143  CA        19.8280   49.7160   18.9790 C.3   388  TYR388      0.1605
    144  C         19.6490   48.2590   18.5500 C.2   388  TYR388      0.2264
    145  O         19.2820   47.4040   19.3610 O.2   388  TYR388     -0.2867
    146  CB        18.6660   50.6250   18.5390 C.3   388  TYR388      0.0534
    147  CG        17.2710   50.1270   18.7960 C.ar  388  TYR388     -0.0201
    148  CD1       16.7280   50.1370   20.0850 C.ar  388  TYR388     -0.0009
    149  CD2       16.4490   49.7070   17.7520 C.ar  388  TYR388     -0.0009
    150  CE1       15.4200   49.6990   20.3220 C.ar  388  TYR388      0.0417
    151  CE2       15.1410   49.2640   17.9890 C.ar  388  TYR388      0.0417
    152  CZ        14.6340   49.2700   19.2650 C.ar  388  TYR388      0.1957
    153  OH        13.3530   48.8280   19.4760 O.3   388  TYR388     -0.2866
@<TRIPOS>BOND
     1   136   135    2
     2   135   134    1
     3   133   134    1
     4   134   137    1
     5   137   138    1
     6   138   139    1
     7   139   140    2
     8   139   141   am
     9   128   127    1
    10   128   129    2
    11   125   123    1
    12   127   126    1
    13   127   130    1
    14    79    78    2
    15   132   130    1
    16   149   151   ar
    17   149   147   ar
    18   151   152   ar
    19   123   122    2
    20   123   124    1
    21   130   131    1
    22   122   121    1
    23    80    77    1
    24    80    81    1
    25    78    77    1
    26   142   143    1
    27   146   147    1
    28   146   143    1
    29   144   143    1
    30   144   145    2
    31    77    76    1
    32   147   148   ar
    33    83    81   ar
    34    83    85   ar
    35    81    82   ar
    36   121   120    1
    37   152   153    1
    38   152   150   ar
    39    85    86   ar
    40    30    29    2
    41   148   150   ar
    42    82    84   ar
    43   120   119    1
    44    86    84   ar
    45    86    87    1
    46   108   107    2
    47    31    32    1
    48    31    28    1
    49    29    28    1
    50   119   116    1
    51    32    33   ar
    52    32    34   ar
    53   116   115    1
    54   116   117    1
    55    33    35   ar
    56   109   110    1
    57   109   106    1
    58   111   110   ar
    59   111   113   ar
    60    28    27    1
    61   107   115   am
    62   107   106    1
    63   101   100    2
    64    34    36   ar
    65    35    36   ar
    66   110   112   ar
    67   113   114   ar
    68   117   118    2
    69   106   105    1
    70    12    11    2
    71   100   105   am
    72   100    99    1
    73   112   114   ar
    74    13    14    1
    75    13    10    1
    76    11    10    1
    77    99   102    1
    78    99    98    1
    79   102   103    1
    80   102   104    1
    81    14    16   ar
    82    14    15   ar
    83    16    18   ar
    84    10     9    1
    85     4     3    2
    86    62    61    2
    87    15    17   ar
    88    91    90    2
    89    18    17   ar
    90    53    54   ar
    91    53    51   ar
    92    54    52   ar
    93    98    90   am
    94    63    61   am
    95    61    60    1
    96    90    89    1
    97     5     6    1
    98     5     2    1
    99     3     2    1
   100    51    50   ar
   101    75    74    1
   102    52    50   ar
   103     8     6   ar
   104     6     7   ar
   105    97    96   ar
   106    97    95   ar
   107     2     1    1
   108    50    49    1
   109    96    94   ar
   110    60    59    1
   111    95    93   ar
   112    89    88    1
   113    89    92    1
   114    26    24   ar
   115    94    93   ar
   116    93    92    1
   117    74    72   ar
   118    74    73   ar
   119    22    21    2
   120    44    42   am
   121    72    70   ar
   122    49    46    1
   123    59    56    1
   124    24    23    1
   125    24    25   ar
   126    73    71   ar
   127    23    20    1
   128    21    20    1
   129    43    42    2
   130    42    41    1
   131    70    69   ar
   132    46    45    1
   133    46    47    1
   134    20    19    1
   135    56    55    1
   136    56    57    1
   137    58    57    2
   138    71    69   ar
   139    45    39   am
   140    48    47    2
   141    69    68    1
   142    41    38    1
   143    39    40    2
   144    39    38    1
   145    38    37    1
   146    66    65    1
   147    66    67    2
   148    68    65    1
   149    65    64    1
