@<TRIPOS>MOLECULE
tmp/5fcbA05.pdb
 139 138 0 0 0
SMALL
GASTEIGER

@<TRIPOS>ATOM
      1  N         15.2540   34.8740   30.8190 N.3    88  ASP88      -0.1239
      2  CA        14.7110   34.3620   29.5540 C.3    88  ASP88       0.1674
      3  C         15.5920   33.2940   28.9260 C.2    88  ASP88       0.2266
      4  O         16.2540   33.5250   27.9040 O.2    88  ASP88      -0.2867
      5  CB        14.4480   35.5070   28.5650 C.3    88  ASP88       0.1410
      6  CG        12.9610   35.8290   28.4220 C.2    88  ASP88       0.3668
      7  OD1       12.1720   35.3560   29.2640 O.co2  88  ASP88      -0.2456
      8  OD2       12.5940   36.5760   27.4830 O.co2  88  ASP88      -0.2456
      9  N         11.5840   30.2240   22.3200 N.3    92  HIS92      -0.1241
     10  CA        10.2530   30.6250   21.8580 C.3    92  HIS92       0.1621
     11  C          9.6310   29.4750   21.0700 C.2    92  HIS92       0.2264
     12  O          9.7860   29.3730   19.8440 O.2    92  HIS92      -0.2867
     13  CB        10.3310   31.8770   20.9920 C.3    92  HIS92       0.0745
     14  CG        10.9150   33.0750   21.6810 C.ar   92  HIS92       0.0817
     15  ND1       12.2710   33.2560   21.8460 N.ar   92  HIS92      -0.2268
     16  CD2       10.3220   34.1720   22.2110 C.ar   92  HIS92       0.1154
     17  CE1       12.4890   34.4090   22.4610 C.ar   92  HIS92       0.1986
     18  NE2       11.3230   34.9860   22.6870 N.ar   92  HIS92      -0.2212
     19  N         10.1410   36.3170   31.4750 N.3   129  ASN129     -0.1225
     20  CA         8.7730   35.8380   31.3030 C.3   129  ASN129      0.1785
     21  C          8.7150   34.4370   30.6950 C.2   129  ASN129      0.2597
     22  O          7.7290   33.7280   30.9050 O.2   129  ASN129     -0.2718
     23  CB         7.9670   36.8330   30.4640 C.3   129  ASN129      0.1169
     24  CG         8.6160   37.1440   29.1410 C.2   129  ASN129      0.2627
     25  OD1        9.7180   37.6910   29.0930 O.2   129  ASN129     -0.2716
     26  ND2        7.9270   36.8090   28.0510 N.am  129  ASN129     -0.0877
     27  N          9.7480   34.0090   29.9830 N.am  130  HIS130     -0.1975
     28  CA         9.8240   32.6360   29.5020 C.3   130  HIS130      0.1656
     29  C         10.3760   31.6660   30.5340 C.2   130  HIS130      0.2291
     30  O         10.3940   30.4580   30.2600 O.2   130  HIS130     -0.2864
     31  CB        10.6800   32.5690   28.2390 C.3   130  HIS130      0.0771
     32  CG        10.0260   33.2000   27.0550 C.ar  130  HIS130      0.0820
     33  ND1        9.2220   32.4960   26.1840 N.ar  130  HIS130     -0.2267
     34  CD2       10.0080   34.4860   26.6330 C.ar  130  HIS130      0.1154
     35  CE1        8.7710   33.3180   25.2480 C.ar  130  HIS130      0.1986
     36  NE2        9.2270   34.5320   25.5040 N.ar  130  HIS130     -0.2212
     37  N          4.5700   30.0550   29.7030 N.3   135  GLN135     -0.1245
     38  CA         5.2750   31.3260   29.6800 C.3   135  GLN135      0.1566
     39  C          4.3570   32.4510   30.1410 C.2   135  GLN135      0.2260
     40  O          3.1390   32.4230   29.9290 O.2   135  GLN135     -0.2867
     41  CB         5.8130   31.6260   28.2760 C.3   135  GLN135      0.0367
     42  CG         4.7720   31.8970   27.2120 C.3   135  GLN135      0.0905
     43  CD         5.3980   32.4300   25.9250 C.2   135  GLN135      0.2608
     44  OE1        5.8520   31.6680   25.0740 O.2   135  GLN135     -0.2717
     45  NE2        5.4210   33.7460   25.7810 N.am  135  GLN135     -0.0878
     46  N          3.7220   42.2020   33.6730 N.3   192  TYR192     -0.1241
     47  CA         3.7350   42.0710   32.2200 C.3   192  TYR192      0.1605
     48  C          2.3390   41.7070   31.7160 C.2   192  TYR192      0.2264
     49  O          1.6730   40.8400   32.2900 O.2   192  TYR192     -0.2867
     50  CB         4.7870   41.0200   31.8580 C.3   192  TYR192      0.0534
     51  CG         5.0150   40.7480   30.4010 C.ar  192  TYR192     -0.0201
     52  CD1        5.2560   41.7750   29.4970 C.ar  192  TYR192     -0.0009
     53  CD2        5.0540   39.4400   29.9380 C.ar  192  TYR192     -0.0009
     54  CE1        5.4970   41.5010   28.1670 C.ar  192  TYR192      0.0417
     55  CE2        5.2850   39.1560   28.6250 C.ar  192  TYR192      0.0417
     56  CZ         5.5040   40.1860   27.7340 C.ar  192  TYR192      0.1957
     57  OH         5.7440   39.8880   26.4140 O.3   192  TYR192     -0.2866
     58  N          9.5220   51.0710   19.7140 N.3   238  TYR238     -0.1241
     59  CA         9.1500   50.7450   18.3370 C.3   238  TYR238      0.1605
     60  C          7.6450   50.7850   18.1150 C.2   238  TYR238      0.2264
     61  O          7.1800   50.4790   17.0110 O.2   238  TYR238     -0.2867
     62  CB         9.6730   49.3480   17.9600 C.3   238  TYR238      0.0534
     63  CG         9.1670   48.2480   18.8660 C.ar  238  TYR238     -0.0201
     64  CD1        9.8810   47.8750   19.9930 C.ar  238  TYR238     -0.0009
     65  CD2        7.9620   47.5980   18.6150 C.ar  238  TYR238     -0.0009
     66  CE1        9.4320   46.8850   20.8290 C.ar  238  TYR238      0.0417
     67  CE2        7.5000   46.5920   19.4580 C.ar  238  TYR238      0.0417
     68  CZ         8.2440   46.2430   20.5660 C.ar  238  TYR238      0.1957
     69  OH         7.8250   45.2590   21.4180 O.3   238  TYR238     -0.2866
     70  N         14.7180   41.7140   27.9720 N.3   271  HIS271     -0.1226
     71  CA        13.4040   41.4400   27.3840 C.3   271  HIS271      0.1752
     72  C         13.2030   41.9730   25.9620 C.2   271  HIS271      0.2597
     73  O         12.6290   41.2650   25.1210 O.2   271  HIS271     -0.2718
     74  CB        12.2850   41.9710   28.3000 C.3   271  HIS271      0.0759
     75  CG        10.9100   41.7580   27.7470 C.ar  271  HIS271      0.0818
     76  ND1       10.3280   40.5100   27.6320 N.ar  271  HIS271     -0.2268
     77  CD2       10.0050   42.6430   27.2670 C.ar  271  HIS271      0.1154
     78  CE1        9.1250   40.6400   27.0990 C.ar  271  HIS271      0.1986
     79  NE2        8.9070   41.9220   26.8670 N.ar  271  HIS271     -0.2212
     80  N         13.6340   43.2060   25.6600 N.am  272  THR272     -0.1939
     81  CA        13.3690   43.7500   24.3300 C.3   272  THR272      0.2028
     82  C         14.3250   43.2290   23.2750 C.2   272  THR272      0.2642
     83  O         14.0460   43.3870   22.0820 O.2   272  THR272     -0.2714
     84  CB        13.4770   45.2680   24.3050 C.3   272  THR272      0.1808
     85  OG1       14.8440   45.6270   24.4620 O.3   272  THR272     -0.2208
     86  CG2       12.6300   45.8870   25.4050 C.3   272  THR272      0.0379
     87  N         15.4390   42.6430   23.6890 N.am  273  HIS273     -0.1959
     88  CA        16.4670   42.1350   22.7870 C.3   273  HIS273      0.1787
     89  C         17.1270   43.2440   21.9800 C.2   273  HIS273      0.2620
     90  O         17.7300   42.9830   20.9320 O.2   273  HIS273     -0.2715
     91  CB        15.9040   41.0680   21.8350 C.3   273  HIS273      0.0785
     92  CG        15.4050   39.8290   22.5130 C.ar  273  HIS273      0.0821
     93  ND1       15.2190   38.6450   21.8310 N.ar  273  HIS273     -0.2267
     94  CD2       15.0220   39.5900   23.7910 C.ar  273  HIS273      0.1154
     95  CE1       14.7450   37.7300   22.6590 C.ar  273  HIS273      0.1986
     96  NE2       14.6250   38.2740   23.8600 N.ar  273  HIS273     -0.2212
     97  N         17.0500   44.4840   22.4500 N.am  274  ARG274     -0.1977
     98  CA        17.6260   45.6300   21.7670 C.3   274  ARG274      0.1597
     99  C         18.5070   46.4220   22.7310 C.2   274  ARG274      0.2287
    100  O         18.4050   46.2860   23.9510 O.2   274  ARG274     -0.2864
    101  CB        16.5320   46.5400   21.2070 C.3   274  ARG274      0.0334
    102  CG        15.5720   45.8500   20.2620 C.3   274  ARG274      0.0492
    103  CD        16.2220   45.5880   18.9170 C.3   274  ARG274      0.2205
    104  NE        15.2860   44.9310   18.0030 N.pl3 274  ARG274     -0.0865
    105  CZ        15.2130   43.6160   17.8150 C.cat 274  ARG274      0.5346
    106  NH1       16.0190   42.7920   18.4650 N.pl3 274  ARG274      0.1354
    107  NH2       14.3300   43.1190   16.9680 N.pl3 274  ARG274      0.1354
    108  N          9.1650   40.3810   10.9880 N.3   305  GLN305     -0.1245
    109  CA        10.0830   41.4580   11.3420 C.3   305  GLN305      0.1566
    110  C         11.1490   41.6260   10.2770 C.2   305  GLN305      0.2260
    111  O         11.7050   40.6450    9.7830 O.2   305  GLN305     -0.2867
    112  CB        10.7600   41.1840   12.6880 C.3   305  GLN305      0.0367
    113  CG         9.8120   41.2180   13.8710 C.3   305  GLN305      0.0905
    114  CD        10.4690   40.7390   15.1600 C.2   305  GLN305      0.2608
    115  OE1       10.2080   39.6310   15.6240 O.2   305  GLN305     -0.2717
    116  NE2       11.3360   41.5710   15.7360 N.am  305  GLN305     -0.0878
    117  N         20.9950   50.1140   18.0890 N.3   388  TYR388     -0.1227
    118  CA        19.7490   49.5640   18.6330 C.3   388  TYR388      0.1736
    119  C         19.5830   48.0960   18.2330 C.2   388  TYR388      0.2595
    120  O         19.1990   47.2500   19.0560 O.2   388  TYR388     -0.2718
    121  CB        18.5790   50.4520   18.1430 C.3   388  TYR388      0.0548
    122  CG        17.1790   49.9690   18.4500 C.ar  388  TYR388     -0.0200
    123  CD1       16.6640   49.9850   19.7480 C.ar  388  TYR388     -0.0009
    124  CD2       16.3440   49.5260   17.4220 C.ar  388  TYR388     -0.0009
    125  CE1       15.3680   49.5400   20.0180 C.ar  388  TYR388      0.0417
    126  CE2       15.0530   49.0900   17.6810 C.ar  388  TYR388      0.0417
    127  CZ        14.5650   49.0920   18.9700 C.ar  388  TYR388      0.1957
    128  OH        13.2790   48.6390   19.1980 O.3   388  TYR388     -0.2866
    129  N         19.9320   47.7620   16.9870 N.am  389  PHE389     -0.1976
    130  CA        19.9310   46.3940   16.4860 C.3   389  PHE389      0.1639
    131  C         21.3040   45.7290   16.5980 C.2   389  PHE389      0.2290
    132  O         21.5440   44.6980   15.9500 O.2   389  PHE389     -0.2864
    133  CB        19.4840   46.3660   15.0110 C.3   389  PHE389      0.0560
    134  CG        18.0920   46.9010   14.7600 C.ar  389  PHE389     -0.0200
    135  CD1       16.9670   46.2180   15.1990 C.ar  389  PHE389     -0.0042
    136  CD2       17.9140   48.0660   14.0310 C.ar  389  PHE389     -0.0042
    137  CE1       15.6820   46.7070   14.9370 C.ar  389  PHE389     -0.0003
    138  CE2       16.6410   48.5580   13.7760 C.ar  389  PHE389     -0.0003
    139  CZ        15.5300   47.8830   14.2260 C.ar  389  PHE389     -0.0000
@<TRIPOS>BOND
     1   111   110    2
     2   110   109    1
     3   108   109    1
     4   109   112    1
     5   112   113    1
     6   138   136   ar
     7   138   139   ar
     8   113   114    1
     9   136   134   ar
    10   139   137   ar
    11   134   133    1
    12   134   135   ar
    13   137   135   ar
    14   133   130    1
    15   114   115    2
    16   114   116   am
    17   132   131    2
    18   130   131    1
    19   130   129    1
    20   107   105    1
    21   129   119   am
    22    61    60    2
    23   124   126   ar
    24   124   122   ar
    25   126   127   ar
    26   105   104    2
    27   105   106    1
    28    62    59    1
    29    62    63    1
    30   104   103    1
    31   117   118    1
    32    60    59    1
    33   121   122    1
    34   121   118    1
    35   119   118    1
    36   119   120    2
    37    59    58    1
    38   122   123   ar
    39    65    63   ar
    40    65    67   ar
    41    63    64   ar
    42   103   102    1
    43   127   128    1
    44   127   125   ar
    45    67    68   ar
    46   123   125   ar
    47    12    11    2
    48    64    66   ar
    49   102   101    1
    50    68    66   ar
    51    68    69    1
    52    90    89    2
    53    13    14    1
    54    13    10    1
    55    11    10    1
    56   101    98    1
    57    14    15   ar
    58    14    16   ar
    59    98    97    1
    60    98    99    1
    61    93    92   ar
    62    93    95   ar
    63    91    92    1
    64    91    88    1
    65    15    17   ar
    66    10     9    1
    67    89    97   am
    68    89    88    1
    69    83    82    2
    70    16    18   ar
    71    17    18   ar
    72    92    94   ar
    73    95    96   ar
    74    99   100    2
    75    88    87    1
    76    82    87   am
    77    82    81    1
    78    94    96   ar
    79    84    81    1
    80    84    85    1
    81    84    86    1
    82    81    80    1
    83    44    43    2
    84    73    72    2
    85    35    36   ar
    86    35    33   ar
    87    36    34   ar
    88    80    72   am
    89    45    43   am
    90    43    42    1
    91    72    71    1
    92    33    32   ar
    93    57    56    1
    94    34    32   ar
    95    79    78   ar
    96    79    77   ar
    97    32    31    1
    98    78    76   ar
    99    42    41    1
   100    77    75   ar
   101    71    70    1
   102    71    74    1
   103     8     6   ar
   104    76    75   ar
   105    56    54   ar
   106    56    55   ar
   107    75    74    1
   108     4     3    2
   109    26    24   am
   110    54    52   ar
   111    31    28    1
   112    41    38    1
   113     6     5    1
   114     6     7   ar
   115     5     2    1
   116    55    53   ar
   117     3     2    1
   118    25    24    2
   119    24    23    1
   120    52    51   ar
   121    28    27    1
   122    28    29    1
   123     2     1    1
   124    38    37    1
   125    38    39    1
   126    40    39    2
   127    53    51   ar
   128    27    21   am
   129    30    29    2
   130    51    50    1
   131    23    20    1
   132    21    22    2
   133    21    20    1
   134    20    19    1
   135    48    47    1
   136    48    49    2
   137    50    47    1
   138    47    46    1
