@<TRIPOS>MOLECULE
tmp/5fcdD00.pdb
 107 102 0 0 0
SMALL
GASTEIGER

@<TRIPOS>ATOM
      1  N         20.8080  -19.1350  -33.7270 N.3     4  PRO4       -0.2102
      2  CA        20.2090  -20.4270  -34.0780 C.3     4  PRO4        0.1504
      3  C         19.4240  -20.3470  -35.3860 C.2     4  PRO4        0.2576
      4  O         18.5590  -19.4820  -35.5260 O.2     4  PRO4       -0.2718
      5  CB        19.2800  -20.7280  -32.8930 C.3     4  PRO4        0.0282
      6  CG        19.0980  -19.4340  -32.1840 C.3     4  PRO4        0.0208
      7  CD        20.3570  -18.6600  -32.4050 C.3     4  PRO4        0.0893
      8  N         19.7310  -21.2330  -36.3290 N.am    5  GLY5       -0.1957
      9  CA        19.0810  -21.2270  -37.6300 C.3     5  GLY5        0.1869
     10  C         19.8800  -20.4960  -38.6970 C.2     5  GLY5        0.2309
     11  O         19.5780  -20.6030  -39.8870 O.2     5  GLY5       -0.2863
     12  N         18.6720  -19.1760  -42.3890 N.3     8  TYR8       -0.1227
     13  CA        17.2210  -19.2460  -42.3370 C.3     8  TYR8        0.1736
     14  C         16.6970  -18.1220  -41.4490 C.2     8  TYR8        0.2596
     15  O         15.7530  -17.4150  -41.8040 O.2     8  TYR8       -0.2718
     16  CB        16.7650  -20.6090  -41.8140 C.3     8  TYR8        0.0548
     17  CG        15.2700  -20.7580  -41.7510 C.ar    8  TYR8       -0.0200
     18  CD1       14.5640  -20.3620  -40.6280 C.ar    8  TYR8       -0.0009
     19  CD2       14.5630  -21.2920  -42.8150 C.ar    8  TYR8       -0.0009
     20  CE1       13.2020  -20.4910  -40.5650 C.ar    8  TYR8        0.0417
     21  CE2       13.1960  -21.4290  -42.7620 C.ar    8  TYR8        0.0417
     22  CZ        12.5200  -21.0260  -41.6350 C.ar    8  TYR8        0.1957
     23  OH        11.1560  -21.1590  -41.5790 O.3     8  TYR8       -0.2866
     24  N         17.3360  -17.9560  -40.2970 N.am    9  THR9       -0.1953
     25  CA        16.9510  -16.9310  -39.3360 C.3     9  THR9        0.1897
     26  C         17.1450  -15.5360  -39.9270 C.2     9  THR9        0.2313
     27  O         16.2480  -14.6870  -39.8400 O.2     9  THR9       -0.2863
     28  CB        17.7630  -17.0710  -38.0370 C.3     9  THR9        0.1794
     29  OG1       17.4330  -18.3160  -37.4100 O.3     9  THR9       -0.2208
     30  CG2       17.4750  -15.9280  -37.0690 C.3     9  THR9        0.0378
     31  N         22.1300  -14.4400  -22.6450 N.3   100  PHE100     -0.1241
     32  CA        23.5230  -14.5730  -22.2220 C.3   100  PHE100      0.1605
     33  C         24.1580  -13.2640  -21.7410 C.2   100  PHE100      0.2264
     34  O         24.9960  -13.2800  -20.8420 O.2   100  PHE100     -0.2867
     35  CB        24.3520  -15.1530  -23.3720 C.3   100  PHE100      0.0534
     36  CG        23.8030  -16.4420  -23.9180 C.ar  100  PHE100     -0.0203
     37  CD1       24.0750  -17.6470  -23.2900 C.ar  100  PHE100     -0.0042
     38  CD2       23.0100  -16.4490  -25.0530 C.ar  100  PHE100     -0.0042
     39  CE1       23.5690  -18.8350  -23.7860 C.ar  100  PHE100     -0.0003
     40  CE2       22.5000  -17.6340  -25.5550 C.ar  100  PHE100     -0.0003
     41  CZ        22.7800  -18.8270  -24.9200 C.ar  100  PHE100     -0.0000
     42  N         16.2470  -19.5640  -27.7440 N.3   124  PHE124     -0.1241
     43  CA        15.9370  -20.8930  -27.2380 C.3   124  PHE124      0.1605
     44  C         14.8890  -20.7560  -26.1440 C.2   124  PHE124      0.2264
     45  O         14.8300  -19.7360  -25.4580 O.2   124  PHE124     -0.2867
     46  CB        17.1870  -21.5880  -26.6900 C.3   124  PHE124      0.0534
     47  CG        18.2300  -21.8760  -27.7300 C.ar  124  PHE124     -0.0203
     48  CD1       18.1200  -22.9850  -28.5510 C.ar  124  PHE124     -0.0042
     49  CD2       19.3250  -21.0410  -27.8830 C.ar  124  PHE124     -0.0042
     50  CE1       19.0790  -23.2550  -29.5100 C.ar  124  PHE124     -0.0003
     51  CE2       20.2890  -21.3060  -28.8390 C.ar  124  PHE124     -0.0003
     52  CZ        20.1650  -22.4140  -29.6530 C.ar  124  PHE124     -0.0000
     53  N          9.9670  -23.3510  -33.7460 N.3   171  HIS171     -0.1241
     54  CA        10.4420  -24.6400  -34.2290 C.3   171  HIS171      0.1621
     55  C         10.7870  -25.5420  -33.0510 C.2   171  HIS171      0.2264
     56  O         11.6780  -25.2310  -32.2590 O.2   171  HIS171     -0.2867
     57  CB        11.6620  -24.4660  -35.1360 C.3   171  HIS171      0.0745
     58  CG        11.3880  -23.6590  -36.3690 C.ar  171  HIS171      0.0817
     59  ND1       11.2490  -24.2290  -37.6140 N.ar  171  HIS171     -0.2268
     60  CD2       11.2210  -22.3270  -36.5420 C.ar  171  HIS171      0.1154
     61  CE1       11.0100  -23.2820  -38.5060 C.ar  171  HIS171      0.1986
     62  NE2       10.9890  -22.1200  -37.8810 N.ar  171  HIS171     -0.2212
     63  N         28.3960  -33.2110  -25.1350 N.3   204  ARG204     -0.1245
     64  CA        27.3110  -33.0700  -26.1010 C.3   204  ARG204      0.1563
     65  C         26.1240  -33.9730  -25.7780 C.2   204  ARG204      0.2260
     66  O         24.9930  -33.6740  -26.1600 O.2   204  ARG204     -0.2867
     67  CB        27.8200  -33.3700  -27.5120 C.3   204  ARG204      0.0307
     68  CG        28.4380  -32.1670  -28.2140 C.3   204  ARG204      0.0489
     69  CD        27.5350  -31.6310  -29.3180 C.3   204  ARG204      0.2205
     70  NE        27.9080  -32.1560  -30.6300 N.pl3 204  ARG204     -0.0865
     71  CZ        27.0600  -32.3660  -31.6350 C.cat 204  ARG204      0.5346
     72  NH1       27.5100  -32.8430  -32.7870 N.pl3 204  ARG204      0.1354
     73  NH2       25.7650  -32.1120  -31.4960 N.pl3 204  ARG204      0.1354
     74  N         23.4380  -32.0780  -23.5810 N.3   207  LEU207     -0.1245
     75  CA        22.9130  -31.0320  -24.4500 C.3   207  LEU207      0.1561
     76  C         21.9570  -31.6400  -25.4620 C.2   207  LEU207      0.2260
     77  O         20.8600  -31.1290  -25.6790 O.2   207  LEU207     -0.2867
     78  CB        24.0470  -30.3030  -25.1720 C.3   207  LEU207      0.0270
     79  CG        25.1310  -29.6950  -24.2820 C.3   207  LEU207      0.0019
     80  CD1       26.2780  -29.1750  -25.1330 C.3   207  LEU207      0.0001
     81  CD2       24.5590  -28.5850  -23.4160 C.3   207  LEU207      0.0001
     82  N         17.3690  -31.4110  -25.7210 N.3   211  ARG211     -0.1245
     83  CA        16.7420  -30.8220  -26.9050 C.3   211  ARG211      0.1563
     84  C         15.2660  -31.1980  -27.0280 C.2   211  ARG211      0.2260
     85  O         14.4750  -30.4510  -27.6050 O.2   211  ARG211     -0.2867
     86  CB        17.4870  -31.2490  -28.1710 C.3   211  ARG211      0.0307
     87  CG        18.8700  -30.6370  -28.3080 C.3   211  ARG211      0.0489
     88  CD        19.6330  -31.2430  -29.4750 C.3   211  ARG211      0.2205
     89  NE        18.9970  -30.9470  -30.7580 N.pl3 211  ARG211     -0.0865
     90  CZ        19.3190  -29.9270  -31.5500 C.cat 211  ARG211      0.5346
     91  NH1       18.6700  -29.7530  -32.6930 N.pl3 211  ARG211      0.1354
     92  NH2       20.2850  -29.0790  -31.2140 N.pl3 211  ARG211      0.1354
     93  N         13.0440  -23.2940  -30.6230 N.3   216  VAL216     -0.1245
     94  CA        13.6180  -22.0100  -31.0160 C.3   216  VAL216      0.1561
     95  C         12.5170  -21.1240  -31.5780 C.2   216  VAL216      0.2260
     96  O         11.8100  -21.5120  -32.5070 O.2   216  VAL216     -0.2867
     97  CB        14.7480  -22.1780  -32.0570 C.3   216  VAL216      0.0252
     98  CG1       15.1890  -20.8260  -32.6250 C.3   216  VAL216      0.0019
     99  CG2       15.9280  -22.8850  -31.4280 C.3   216  VAL216      0.0019
    100  N         11.5090  -17.6450  -33.4460 N.3   218  LEU218     -0.1245
    101  CA        11.9080  -16.5010  -34.2510 C.3   218  LEU218      0.1561
    102  C         10.8300  -15.4410  -34.1260 C.2   218  LEU218      0.2260
    103  O          9.6600  -15.7120  -34.3870 O.2   218  LEU218     -0.2867
    104  CB        12.1120  -16.9020  -35.7110 C.3   218  LEU218      0.0270
    105  CG        13.1000  -18.0490  -35.9410 C.3   218  LEU218      0.0019
    106  CD1       13.1050  -18.4650  -37.4040 C.3   218  LEU218      0.0001
    107  CD2       14.4990  -17.6530  -35.4940 C.3   218  LEU218      0.0001
@<TRIPOS>BOND
     1    19    21   ar
     2    19    17   ar
     3    21    22   ar
     4    12    13    1
     5    13    16    1
     6    13    14    1
     7    16    17    1
     8    15    14    2
     9    17    18   ar
    10    22    23    1
    11    22    20   ar
    12    14    24   am
    13    18    20   ar
    14    24    25    1
    15    26    27    2
    16    26    25    1
    17    11    10    2
    18    25    28    1
    19    10     9    1
    20    61    62   ar
    21    61    59   ar
    22    28    29    1
    23    28    30    1
    24    62    60   ar
    25     9     8    1
    26    59    58   ar
    27   106   105    1
    28    60    58   ar
    29    58    57    1
    30     8     3   am
    31   105   104    1
    32   105   107    1
    33   104   101    1
    34     4     3    2
    35     3     2    1
    36    57    54    1
    37   103   102    2
    38   101   102    1
    39   101   100    1
    40    54    53    1
    41    54    55    1
    42     2     1    1
    43     2     5    1
    44     1     7    1
    45    55    56    2
    46     5     6    1
    47    72    71    1
    48    91    90    1
    49    98    97    1
    50    96    95    2
    51     7     6    1
    52    97    99    1
    53    97    94    1
    54    71    73    1
    55    71    70    2
    56    95    94    1
    57    90    92    1
    58    90    89    2
    59    94    93    1
    60    89    88    1
    61    70    69    1
    62    52    50   ar
    63    52    51   ar
    64    50    48   ar
    65    88    87    1
    66    69    68    1
    67    51    49   ar
    68    48    47   ar
    69    87    86    1
    70    68    67    1
    71    86    83    1
    72    49    47   ar
    73    42    43    1
    74    47    46    1
    75    85    84    2
    76    67    64    1
    77    43    46    1
    78    43    44    1
    79    84    83    1
    80    83    82    1
    81    66    65    2
    82    44    45    2
    83    64    65    1
    84    64    63    1
    85    77    76    2
    86    40    38   ar
    87    40    41   ar
    88    76    75    1
    89    78    75    1
    90    78    79    1
    91    80    79    1
    92    38    36   ar
    93    41    39   ar
    94    75    74    1
    95    79    81    1
    96    36    35    1
    97    36    37   ar
    98    39    37   ar
    99    35    32    1
   100    31    32    1
   101    32    33    1
   102    33    34    2
