@<TRIPOS>MOLECULE
tmp/5fckA00.pdb
 167 163 0 0 0
SMALL
GASTEIGER

@<TRIPOS>ATOM
      1  N          6.6210  -10.2050   17.6100 N.3    24  HIS24      -0.1226
      2  CA         5.8490   -9.1110   17.0600 C.3    24  HIS24       0.1752
      3  C          4.8500   -9.6440   16.0720 C.2    24  HIS24       0.2596
      4  O          5.1970  -10.3550   15.1630 O.2    24  HIS24      -0.2718
      5  CB         6.7410   -8.0940   16.3580 C.3    24  HIS24       0.0759
      6  CG         5.9520   -7.0010   15.6950 C.ar   24  HIS24       0.0818
      7  ND1        5.4500   -5.9130   16.3800 N.ar   24  HIS24      -0.2268
      8  CD2        5.5410   -6.8530   14.4070 C.ar   24  HIS24       0.1154
      9  CE1        4.7730   -5.1390   15.5450 C.ar   24  HIS24       0.1986
     10  NE2        4.7610   -5.7140   14.3560 N.ar   24  HIS24      -0.2212
     11  N          3.6130   -9.2440   16.2470 N.am   25  LEU25      -0.1966
     12  CA         2.5010   -9.6340   15.3730 C.3    25  LEU25       0.1728
     13  C          1.9360   -8.4270   14.5590 C.2    25  LEU25       0.2616
     14  O          1.8010   -8.5070   13.3440 O.2    25  LEU25      -0.2715
     15  CB         1.4220  -10.2570   16.2660 C.3    25  LEU25       0.0311
     16  CG         0.0290  -10.6740   15.7520 C.3    25  LEU25       0.0022
     17  CD1        0.1080  -11.7820   14.7060 C.3    25  LEU25       0.0001
     18  CD2       -0.7650  -11.1420   16.9760 C.3    25  LEU25       0.0001
     19  N          1.6760   -7.3000   15.2430 N.am   26  CYS26      -0.1968
     20  CA         1.0760   -6.0770   14.6570 C.3    26  CYS26       0.1712
     21  C          1.4840   -4.8510   15.4470 C.2    26  CYS26       0.2296
     22  O          1.8180   -4.9310   16.6530 O.2    26  CYS26      -0.2864
     23  CB        -0.4560   -6.1480   14.7530 C.3    26  CYS26       0.0983
     24  SG        -1.2360   -7.2280   13.5530 S.3    26  CYS26      -0.0798
     25  N         -7.6860   -8.0850   12.0750 N.3    41  HIS41      -0.1226
     26  CA        -7.1870   -9.3720   11.6080 C.3    41  HIS41       0.1752
     27  C         -5.9080   -9.7880   12.2670 C.2    41  HIS41       0.2596
     28  O         -5.4020  -10.8850   12.0150 O.2    41  HIS41      -0.2718
     29  CB        -7.0080   -9.3810   10.1020 C.3    41  HIS41       0.0759
     30  CG        -8.2860   -9.1880    9.3570 C.ar   41  HIS41       0.0818
     31  ND1       -8.6440   -7.9840    8.8050 N.ar   41  HIS41      -0.2268
     32  CD2       -9.2850  -10.0460    9.0680 C.ar   41  HIS41       0.1154
     33  CE1       -9.8020   -8.1030    8.1960 C.ar   41  HIS41       0.1986
     34  NE2      -10.2160   -9.3440    8.3390 N.ar   41  HIS41      -0.2212
     35  N         -5.3610   -8.9080   13.0950 N.am   42  CYS42      -0.1970
     36  CA        -4.1840   -9.2520   13.8460 C.3    42  CYS42       0.1712
     37  C         -4.3940  -10.5420   14.6670 C.2    42  CYS42       0.2296
     38  O         -3.4480  -11.3260   14.8460 O.2    42  CYS42      -0.2864
     39  CB        -3.8010   -8.1240   14.7700 C.3    42  CYS42       0.0983
     40  SG        -3.2030   -6.7350   13.8190 S.3    42  CYS42      -0.0798
     41  N          7.0370   -2.0290   13.1670 N.3   124  TRP124     -0.1227
     42  CA         8.1110   -3.0220   13.1260 C.3   124  TRP124      0.1737
     43  C          7.9110   -4.0150   11.9770 C.2   124  TRP124      0.2596
     44  O          8.4450   -5.1860   11.9760 O.2   124  TRP124     -0.2718
     45  CB         8.2130   -3.7660   14.4560 C.3   124  TRP124      0.0564
     46  CG         8.7750   -2.9950   15.6210 C.ar  124  TRP124      0.0003
     47  CD1       10.1100   -2.8560   15.9660 C.ar  124  TRP124      0.0946
     48  CD2        8.0250   -2.2870   16.6100 C.ar  124  TRP124      0.0152
     49  NE1       10.2250   -2.1150   17.1030 N.ar  124  TRP124     -0.2442
     50  CE2        8.9640   -1.7550   17.5320 C.ar  124  TRP124      0.0810
     51  CE3        6.6550   -2.0130   16.7900 C.ar  124  TRP124      0.0012
     52  CZ2        8.5720   -1.0140   18.6260 C.ar  124  TRP124      0.0191
     53  CZ3        6.2740   -1.3310   17.8990 C.ar  124  TRP124      0.0001
     54  CH2        7.2370   -0.8160   18.8060 C.ar  124  TRP124      0.0015
     55  N          7.1640   -3.5660   10.9740 N.am  125  GLY125     -0.1942
     56  CA         6.8420   -4.4050    9.8550 C.3   125  GLY125      0.2014
     57  C          8.0470   -4.6230    8.9670 C.2   125  GLY125      0.2638
     58  O          9.1390   -4.0550    9.2070 O.2   125  GLY125     -0.2714
     59  N          7.8510   -5.3920    7.9220 N.am  126  ILE126     -0.1977
     60  CA         8.9410   -5.7060    7.0000 C.3   126  ILE126      0.1596
     61  C          9.4960   -4.4920    6.2480 C.2   126  ILE126      0.2287
     62  O          8.8170   -3.5060    6.0200 O.2   126  ILE126     -0.2864
     63  CB         8.6120   -6.8560    6.0290 C.3   126  ILE126      0.0276
     64  CG1        7.5630   -6.4400    5.0120 C.3   126  ILE126      0.0022
     65  CG2        8.2030   -8.1040    6.8000 C.3   126  ILE126      0.0022
     66  CD1        7.1950   -7.5500    4.0460 C.3   126  ILE126      0.0001
     67  N         11.5470   -9.5840    2.7550 N.3   131  GLY131     -0.1225
     68  CA        10.8780   -9.7690    4.0360 C.3   131  GLY131      0.1811
     69  C         11.7200   -9.5090    5.2970 C.2   131  GLY131      0.2280
     70  O         11.3680   -9.9840    6.4140 O.2   131  GLY131     -0.2866
     71  N         12.9400   -8.1150    8.6280 N.3   133  ARG133     -0.1245
     72  CA        12.2090   -7.6270    9.7530 C.3   133  ARG133      0.1563
     73  C         13.1660   -6.8160   10.6160 C.2   133  ARG133      0.2260
     74  O         14.1920   -7.3380   11.0400 O.2   133  ARG133     -0.2867
     75  CB        11.7160   -8.7920   10.5560 C.3   133  ARG133      0.0307
     76  CG        10.5370   -9.5100    9.9480 C.3   133  ARG133      0.0489
     77  CD         9.8330  -10.3670   10.9950 C.3   133  ARG133      0.2205
     78  NE        10.6550  -11.4590   11.4840 N.pl3 133  ARG133     -0.0865
     79  CZ        10.8390  -12.6230   10.8580 C.cat 133  ARG133      0.5346
     80  NH1       11.6130  -13.5440   11.4460 N.pl3 133  ARG133      0.1354
     81  NH2       10.2400  -12.8980    9.6780 N.pl3 133  ARG133      0.1354
     82  N          3.4470    1.4980    4.5550 N.3   174  SER174     -0.1202
     83  CA         3.1920    0.4260    5.4970 C.3   174  SER174      0.2020
     84  C          3.2770   -0.9090    4.7830 C.2   174  SER174      0.2619
     85  O          3.0520   -1.0080    3.6000 O.2   174  SER174     -0.2717
     86  CB         1.8530    0.5970    6.1950 C.3   174  SER174      0.2103
     87  OG         0.8130    1.0050    5.3420 O.3   174  SER174     -0.2182
     88  N          3.6170   -1.9390    5.5270 N.am  175  CYS175     -0.1955
     89  CA         3.6480   -3.2670    5.0250 C.3   175  CYS175      0.1843
     90  C          3.3260   -4.2990    6.1460 C.2   175  CYS175      0.2625
     91  O          2.8440   -3.9560    7.2440 O.2   175  CYS175     -0.2714
     92  CB         5.0180   -3.5090    4.3110 C.3   175  CYS175      0.0997
     93  SG         5.0130   -4.8780    3.0830 S.3   175  CYS175     -0.0797
     94  N          3.6080   -5.5660    5.8540 N.am  176  LYS176     -0.1963
     95  CA         3.2930   -6.6880    6.7390 C.3   176  LYS176      0.1728
     96  C          3.9530   -6.4070    8.0760 C.2   176  LYS176      0.2616
     97  O          5.1330   -6.0370    8.1020 O.2   176  LYS176     -0.2715
     98  CB         3.8920   -7.9410    6.1660 C.3   176  LYS176      0.0311
     99  CG         3.4540   -9.2350    6.8020 C.3   176  LYS176      0.0038
    100  CD         4.1480  -10.3700    6.0480 C.3   176  LYS176      0.0206
    101  CE         3.7540  -11.7640    6.5020 C.3   176  LYS176      0.1093
    102  NZ         2.4120  -12.1890    6.0190 N.3   176  LYS176     -0.1314
    103  N          3.1750   -6.5550    9.1460 N.am  177  GLY177     -0.1955
    104  CA         3.6330   -6.3210   10.4700 C.3   177  GLY177      0.1869
    105  C          3.3940   -4.9190   10.9350 C.2   177  GLY177      0.2309
    106  O          3.5680   -4.6750   12.1260 O.2   177  GLY177     -0.2863
    107  N          0.4260   -3.5120   10.2070 N.3   179  SER179     -0.1217
    108  CA        -1.0060   -3.5880   10.5060 C.3   179  SER179      0.1889
    109  C         -1.3070   -3.3180   12.0010 C.2   179  SER179      0.2288
    110  O         -0.5810   -3.7990   12.9350 O.2   179  SER179     -0.2866
    111  CB        -1.5200   -4.9380    9.9970 C.3   179  SER179      0.2089
    112  OG        -0.6570   -5.9430   10.4790 O.3   179  SER179     -0.2183
    113  N         -3.4900    1.4810   10.6300 N.3   193  VAL193     -0.1231
    114  CA        -3.0810    0.6870    9.4740 C.3   193  VAL193      0.1692
    115  C         -4.0080   -0.5650    9.3630 C.2   193  VAL193      0.2593
    116  O         -4.2040   -1.2940   10.3580 O.2   193  VAL193     -0.2718
    117  CB        -1.6050    0.2310    9.6150 C.3   193  VAL193      0.0266
    118  CG1       -1.0910   -0.3110    8.2670 C.3   193  VAL193      0.0020
    119  CG2       -0.6710    1.3570   10.0440 C.3   193  VAL193      0.0020
    120  N         -4.6090   -0.7790    8.1880 N.am  194  THR194     -0.1939
    121  CA        -5.3540   -1.9740    7.9600 C.3   194  THR194      0.2028
    122  C         -4.4710   -3.2470    8.0260 C.2   194  THR194      0.2643
    123  O         -3.2120   -3.1800    8.0240 O.2   194  THR194     -0.2714
    124  CB        -6.0720   -1.9650    6.6550 C.3   194  THR194      0.1808
    125  OG1       -5.1120   -1.7500    5.5950 O.3   194  THR194     -0.2208
    126  CG2       -7.1750   -0.9490    6.7210 C.3   194  THR194      0.0379
    127  N         -5.1490   -4.3840    8.1250 N.am  195  SER195     -0.1935
    128  CA        -4.4910   -5.6490    8.4410 C.3   195  SER195      0.2055
    129  C         -4.9090   -6.7430    7.4580 C.2   195  SER195      0.2644
    130  O         -4.6530   -7.9430    7.6760 O.2   195  SER195     -0.2714
    131  CB        -4.8240   -5.9840    9.8530 C.3   195  SER195      0.2130
    132  OG        -6.1730   -6.4230    9.9960 O.3   195  SER195     -0.2179
    133  N         -5.5130   -6.3470    6.3480 N.am  196  GLY196     -0.1939
    134  CA        -5.5990   -7.2370    5.1950 C.3   196  GLY196      0.2014
    135  C         -4.2890   -7.2420    4.4370 C.2   196  GLY196      0.2640
    136  O         -3.5240   -6.2400    4.4620 O.2   196  GLY196     -0.2714
    137  N         -3.9750   -8.3780    3.8080 N.am  197  SER197     -0.1935
    138  CA        -2.8000   -8.4230    2.9470 C.3   197  SER197      0.2055
    139  C         -3.0390   -7.4500    1.8230 C.2   197  SER197      0.2642
    140  O         -4.1570   -7.3750    1.3210 O.2   197  SER197     -0.2714
    141  CB        -2.5650   -9.8110    2.3530 C.3   197  SER197      0.2130
    142  OG        -2.5230  -10.8040    3.3700 O.3   197  SER197     -0.2179
    143  N         -1.9730   -6.7470    1.4180 N.am  198  ARG198     -0.1977
    144  CA        -2.0240   -5.8260    0.2930 C.3   198  ARG198      0.1597
    145  C         -0.5880   -5.5910   -0.2090 C.2   198  ARG198      0.2287
    146  O          0.3860   -5.9130    0.5240 O.2   198  ARG198     -0.2864
    147  CB        -2.6170   -4.4930    0.7550 C.3   198  ARG198      0.0334
    148  CG        -1.8940   -3.9360    2.0090 C.3   198  ARG198      0.0492
    149  CD        -2.1970   -2.4800    2.3420 C.3   198  ARG198      0.2205
    150  NE        -1.7210   -1.5460    1.3420 N.pl3 198  ARG198     -0.0865
    151  CZ        -0.5190   -0.9640    1.3210 C.cat 198  ARG198      0.5346
    152  NH1        0.3780   -1.1720    2.2920 N.pl3 198  ARG198      0.1354
    153  NH2       -0.2440   -0.1000    0.3590 N.pl3 198  ARG198      0.1354
    154  N          2.7910   -3.7770   -1.0170 N.3   200  CYS200     -0.1235
    155  CA         3.5190   -2.6730   -0.3790 C.3   200  CYS200      0.1677
    156  C          4.4790   -1.9870   -1.3590 C.2   200  CYS200      0.2270
    157  O          5.2480   -2.6690   -2.0860 O.2   200  CYS200     -0.2867
    158  CB         4.3260   -3.1970    0.8040 C.3   200  CYS200      0.0956
    159  SG         3.4610   -4.3680    1.8590 S.3   200  CYS200     -0.0801
    160  N         -3.9290    1.7490    3.0070 N.3   208  ILE208     -0.1245
    161  CA        -5.2390    1.9270    3.5110 C.3   208  ILE208      0.1561
    162  C         -5.1880    1.9120    5.0480 C.2   208  ILE208      0.2260
    163  O         -4.5250    1.0750    5.6910 O.2   208  ILE208     -0.2867
    164  CB        -6.1800    0.8680    2.9060 C.3   208  ILE208      0.0252
    165  CG1       -5.9860    0.7550    1.3990 C.3   208  ILE208      0.0019
    166  CG2       -7.6240    1.1640    3.2100 C.3   208  ILE208      0.0019
    167  CD1       -6.8530   -0.3600    0.7920 C.3   208  ILE208      0.0001
@<TRIPOS>BOND
     1   157   156    2
     2   156   155    1
     3   154   155    1
     4   155   158    1
     5   145   144    1
     6   145   146    2
     7   144   147    1
     8   144   143    1
     9   153   151    1
    10   147   148    1
    11   167   165    1
    12   158   159    1
    13   140   139    2
    14   151   150    2
    15   151   152    1
    16   150   149    1
    17   165   164    1
    18   143   139   am
    19   139   138    1
    20   159    93    1
    21   148   149    1
    22   141   138    1
    23   141   142    1
    24    67    68    1
    25   164   166    1
    26   164   161    1
    27   138   137    1
    28   160   161    1
    29    93    92    1
    30   161   162    1
    31    85    84    2
    32   137   135   am
    33    68    69    1
    34    66    64    1
    35    92    89    1
    36   135   136    2
    37   135   134    1
    38    82    83    1
    39    84    83    1
    40    84    88   am
    41    64    63    1
    42    89    88    1
    43    89    90    1
    44   162   163    2
    45   134   133    1
    46    69    70    2
    47    87    86    1
    48    83    86    1
    49   125   124    1
    50    94    90   am
    51    94    95    1
    52   102   101    1
    53    62    61    2
    54    63    65    1
    55    63    60    1
    56   100   101    1
    57   100    99    1
    58    90    91    2
    59    98    95    1
    60    98    99    1
    61    61    60    1
    62   133   129   am
    63   124   126    1
    64   124   121    1
    65    95    96    1
    66    60    59    1
    67   129   130    2
    68   129   128    1
    69    59    57   am
    70   121   122    1
    71   121   120    1
    72   123   122    2
    73   122   127   am
    74    96    97    2
    75    96   103   am
    76   127   128    1
    77   120   115   am
    78    33    34   ar
    79    33    31   ar
    80   118   117    1
    81    34    32   ar
    82   128   131    1
    83    71    72    1
    84    31    30   ar
    85    57    58    2
    86    57    56    1
    87    32    30   ar
    88   103   104    1
    89    30    29    1
    90   115   114    1
    91   115   116    2
    92   114   117    1
    93   114   113    1
    94   117   119    1
    95    81    79    1
    96    72    75    1
    97    72    73    1
    98   131   132    1
    99    56    55    1
   100    76    75    1
   101    76    77    1
   102   111   112    1
   103   111   108    1
   104    29    26    1
   105   107   108    1
   106   104   105    1
   107   108   109    1
   108    73    74    2
   109    79    80    1
   110    79    78    2
   111   105   106    2
   112    55    43   am
   113    77    78    1
   114    26    25    1
   115    26    27    1
   116    44    43    2
   117    43    42    1
   118   109   110    2
   119    28    27    2
   120    27    35   am
   121    35    36    1
   122    42    41    1
   123    42    45    1
   124    14    13    2
   125    24    40    1
   126    24    23    1
   127    40    39    1
   128    36    37    1
   129    36    39    1
   130    10     8   ar
   131    10     9   ar
   132     8     6   ar
   133    45    46    1
   134    13    19   am
   135    13    12    1
   136    20    23    1
   137    20    19    1
   138    20    21    1
   139    37    38    2
   140    17    16    1
   141     4     3    2
   142    12    11    1
   143    12    15    1
   144    21    22    2
   145     9     7   ar
   146    46    47   ar
   147    46    48   ar
   148     6     5    1
   149     6     7   ar
   150    16    15    1
   151    16    18    1
   152    47    49   ar
   153     3    11   am
   154     3     2    1
   155     5     2    1
   156    48    51   ar
   157    48    50   ar
   158    51    53   ar
   159     2     1    1
   160    49    50   ar
   161    50    52   ar
   162    53    54   ar
   163    52    54   ar
