@<TRIPOS>MOLECULE
tmp/5fctB01.pdb
 114 109 0 0 0
SMALL
GASTEIGER

@<TRIPOS>ATOM
      1  N         -1.8730  -17.1390   -0.5010 N.3    24  ARG24      -0.1231
      2  CA        -3.0720  -16.3050   -0.5270 C.3    24  ARG24       0.1694
      3  C         -3.4600  -15.7830   -1.9030 C.2    24  ARG24       0.2592
      4  O         -4.6570  -15.7610   -2.2510 O.2    24  ARG24      -0.2718
      5  CB        -2.8570  -15.1120    0.4060 C.3    24  ARG24       0.0321
      6  CG        -3.9810  -14.0760    0.4280 C.3    24  ARG24       0.0489
      7  CD        -3.6330  -12.8850    1.3180 C.3    24  ARG24       0.2205
      8  NE        -2.3890  -12.2260    0.9050 N.pl3  24  ARG24      -0.0865
      9  CZ        -2.2860  -11.3330   -0.0870 C.cat  24  ARG24       0.5346
     10  NH1       -3.3510  -10.9460   -0.7840 N.pl3  24  ARG24       0.1354
     11  NH2       -1.0970  -10.8130   -0.3930 N.pl3  24  ARG24       0.1354
     12  N         -2.4650  -15.3350   -2.6690 N.am   25  THR25      -0.1953
     13  CA        -2.7390  -14.6940   -3.9650 C.3    25  THR25       0.1897
     14  C         -3.0800  -15.6870   -5.0660 C.2    25  THR25       0.2313
     15  O         -3.5390  -15.2900   -6.1430 O.2    25  THR25      -0.2863
     16  CB        -1.5530  -13.8320   -4.4740 C.3    25  THR25       0.1794
     17  OG1       -0.4750  -14.6730   -4.8820 O.3    25  THR25      -0.2208
     18  CG2       -1.0590  -12.8660   -3.4140 C.3    25  THR25       0.0378
     19  N          7.0390    6.2850   -0.0440 N.3    61  GLU61      -0.1245
     20  CA         6.3330    5.3660    0.8360 C.3    61  GLU61       0.1567
     21  C          6.7360    5.5870    2.3080 C.2    61  GLU61       0.2260
     22  O          5.8980    5.6000    3.1910 O.2    61  GLU61      -0.2867
     23  CB         6.5620    3.9190    0.4310 C.3    61  GLU61       0.0388
     24  CG         5.7490    2.9350    1.2640 C.3    61  GLU61       0.1160
     25  CD         6.2480    1.5010    1.1660 C.2    61  GLU61       0.3649
     26  OE1        7.4690    1.2920    1.1550 O.co2  61  GLU61      -0.2457
     27  OE2        5.4110    0.5780    1.0860 O.co2  61  GLU61      -0.2457
     28  N          0.6450    0.7870   -3.6990 N.3    83  TRP83      -0.1241
     29  CA        -0.4120    0.3950   -2.7610 C.3    83  TRP83       0.1605
     30  C         -1.8300    0.4740   -3.3450 C.2    83  TRP83       0.2264
     31  O         -2.8150    0.1980   -2.6540 O.2    83  TRP83      -0.2867
     32  CB        -0.3180    1.2470   -1.4970 C.3    83  TRP83       0.0550
     33  CG         0.7160    0.7240   -0.5570 C.ar   83  TRP83       0.0003
     34  CD1        1.9760    1.1970   -0.3580 C.ar   83  TRP83       0.0946
     35  CD2        0.5660   -0.4050    0.3040 C.ar   83  TRP83       0.0152
     36  NE1        2.6320    0.4240    0.5990 N.ar   83  TRP83      -0.2442
     37  CE2        1.7880   -0.5740    1.0020 C.ar   83  TRP83       0.0810
     38  CE3       -0.4780   -1.3080    0.5340 C.ar   83  TRP83       0.0012
     39  CZ2        1.9790   -1.6000    1.9410 C.ar   83  TRP83       0.0191
     40  CZ3       -0.2890   -2.3160    1.4490 C.ar   83  TRP83       0.0001
     41  CH2        0.9360   -2.4570    2.1470 C.ar   83  TRP83       0.0015
     42  N          0.4650    0.4440    8.7770 N.3   109  TYR109     -0.1241
     43  CA         1.7280    0.9900    9.2850 C.3   109  TYR109      0.1605
     44  C          1.6610    2.3930    9.8610 C.2   109  TYR109      0.2264
     45  O          2.0150    2.6080   11.0300 O.2   109  TYR109     -0.2867
     46  CB         2.7980    0.9650    8.2110 C.3   109  TYR109      0.0534
     47  CG         3.0130   -0.3710    7.4990 C.ar  109  TYR109     -0.0201
     48  CD1        3.8380   -1.3720    8.0290 C.ar  109  TYR109     -0.0009
     49  CD2        2.3980   -0.6210    6.2910 C.ar  109  TYR109     -0.0009
     50  CE1        4.0350   -2.5780    7.3380 C.ar  109  TYR109      0.0417
     51  CE2        2.5740   -1.8160    5.6060 C.ar  109  TYR109      0.0417
     52  CZ         3.3870   -2.7860    6.1140 C.ar  109  TYR109      0.1957
     53  OH         3.5480   -3.9590    5.3910 O.3   109  TYR109     -0.2866
     54  N          3.7010   -6.5560    6.5200 N.3   169  CYS169     -0.1221
     55  CA         4.7510   -7.4940    6.1080 C.3   169  CYS169      0.1808
     56  C          5.9640   -7.2430    6.9790 C.2   169  CYS169      0.2601
     57  O          6.5710   -8.1840    7.4820 O.2   169  CYS169     -0.2717
     58  CB         5.1580   -7.3130    4.6410 C.3   169  CYS169      0.0970
     59  SG         3.8370   -7.3120    3.3670 S.3   169  CYS169     -0.0800
     60  N          6.3060   -5.9530    7.1460 N.am  170  HIS170     -0.1975
     61  CA         7.3690   -5.5250    8.0590 C.3   170  HIS170      0.1656
     62  C          6.7130   -5.2770    9.4170 C.2   170  HIS170      0.2291
     63  O          6.0440   -4.2650    9.6250 O.2   170  HIS170     -0.2864
     64  CB         8.2410   -4.3470    7.5150 C.3   170  HIS170      0.0771
     65  CG         7.5070   -3.2130    6.8660 C.ar  170  HIS170      0.0820
     66  ND1        7.4640   -1.9440    7.4190 N.ar  170  HIS170     -0.2267
     67  CD2        6.8910   -3.1180    5.6640 C.ar  170  HIS170      0.1154
     68  CE1        6.8220   -1.1270    6.6020 C.ar  170  HIS170      0.1986
     69  NE2        6.4500   -1.8170    5.5360 N.ar  170  HIS170     -0.2212
     70  N          8.4300  -10.9920   -0.2170 N.3   192  ASP192     -0.1239
     71  CA         8.4160  -11.1810   -1.6640 C.3   192  ASP192      0.1674
     72  C          9.8100  -10.8020   -2.1540 C.2   192  ASP192      0.2266
     73  O         10.1420   -9.6210   -2.2450 O.2   192  ASP192     -0.2867
     74  CB         7.3120  -10.2810   -2.2430 C.3   192  ASP192      0.1410
     75  CG         7.2530  -10.2730   -3.7460 C.2   192  ASP192      0.3668
     76  OD1        8.1750  -10.7690   -4.3890 O.co2 192  ASP192     -0.2456
     77  OD2        6.2430   -9.7420   -4.2760 O.co2 192  ASP192     -0.2456
     78  N          8.9720   -6.7560   -3.0320 N.3   196  GLY196     -0.1225
     79  CA         8.9860   -6.0930   -1.7390 C.3   196  GLY196      0.1811
     80  C         10.3470   -6.0080   -1.1060 C.2   196  GLY196      0.2280
     81  O         10.6970   -4.9810   -0.5790 O.2   196  GLY196     -0.2866
     82  N         12.0320   -3.0390    1.0000 N.3   200  ASN200     -0.1240
     83  CA        12.1580   -3.1140    2.4740 C.3   200  ASN200      0.1653
     84  C         13.5750   -2.8130    2.9610 C.2   200  ASN200      0.2266
     85  O         13.7910   -2.0870    3.9430 O.2   200  ASN200     -0.2867
     86  CB        11.7530   -4.4970    3.0070 C.3   200  ASN200      0.1155
     87  CG        10.2700   -4.7760    2.9050 C.2   200  ASN200      0.2627
     88  OD1        9.8600   -5.7140    2.2080 O.2   200  ASN200     -0.2716
     89  ND2        9.4620   -4.0010    3.6330 N.am  200  ASN200     -0.0877
     90  N          7.8430  -15.8070   -5.8510 N.3   232  TYR232     -0.1241
     91  CA         6.6420  -16.1120   -6.5890 C.3   232  TYR232      0.1605
     92  C          7.0280  -16.8050   -7.8900 C.2   232  TYR232      0.2264
     93  O          8.0690  -16.5140   -8.4690 O.2   232  TYR232     -0.2867
     94  CB         5.8270  -14.8550   -6.8450 C.3   232  TYR232      0.0534
     95  CG         5.0630  -14.3770   -5.6330 C.ar  232  TYR232     -0.0201
     96  CD1        3.9310  -15.0750   -5.1800 C.ar  232  TYR232     -0.0009
     97  CD2        5.4450  -13.2280   -4.9410 C.ar  232  TYR232     -0.0009
     98  CE1        3.2310  -14.6550   -4.0750 C.ar  232  TYR232      0.0417
     99  CE2        4.7240  -12.8020   -3.8190 C.ar  232  TYR232      0.0417
    100  CZ         3.6110  -13.5140   -3.4090 C.ar  232  TYR232      0.1957
    101  OH         2.8860  -13.1250   -2.3020 O.3   232  TYR232     -0.2866
    102  N          3.2760   -7.8910   -9.8020 N.3   285  MET285     -0.1230
    103  CA         2.8590   -8.0090   -8.4050 C.3   285  MET285      0.1702
    104  C          1.7020   -8.9970   -8.2540 C.2   285  MET285      0.2592
    105  O          0.7440   -8.9900   -9.0340 O.2   285  MET285     -0.2718
    106  CB         2.4490   -6.6580   -7.8270 C.3   285  MET285      0.0401
    107  CG         2.5250   -6.6190   -6.3080 C.3   285  MET285      0.0596
    108  SD         1.5970   -5.2680   -5.5740 S.3   285  MET285     -0.1393
    109  CE         0.1790   -6.1620   -4.9540 C.3   285  MET285      0.0692
    110  N          1.8210   -9.8450   -7.2380 N.am  286  ALA286     -0.1980
    111  CA         0.7660  -10.7840   -6.8420 C.3   286  ALA286      0.1597
    112  C         -0.2060  -10.0630   -5.9030 C.2   286  ALA286      0.2287
    113  O          0.1990   -9.5370   -4.8530 O.2   286  ALA286     -0.2864
    114  CB         1.3930  -11.9810   -6.1380 C.3   286  ALA286      0.0319
@<TRIPOS>BOND
     1   102   103    1
     2   105   104    2
     3    93    92    2
     4   103   104    1
     5   103   106    1
     6   104   110   am
     7    92    91    1
     8   106   107    1
     9   110   111    1
    10    94    91    1
    11    94    95    1
    12   111   114    1
    13   111   112    1
    14    91    90    1
    15   107   108    1
    16    15    14    2
    17   112   113    2
    18    95    96   ar
    19    95    97   ar
    20   108   109    1
    21    96    98   ar
    22    14    13    1
    23    97    99   ar
    24    17    16    1
    25    16    13    1
    26    16    18    1
    27    76    75   ar
    28    77    75   ar
    29    98   100   ar
    30    13    12    1
    31    99   100   ar
    32    75    74    1
    33    28    29    1
    34   100   101    1
    35    30    29    1
    36    30    31    2
    37    78    79    1
    38    29    32    1
    39    12     3   am
    40     4     3    2
    41    73    72    2
    42    74    71    1
    43    72    71    1
    44     3     2    1
    45    79    80    1
    46    71    70    1
    47    32    33    1
    48    80    81    2
    49    10     9    1
    50    33    34   ar
    51    33    35   ar
    52     2     1    1
    53     2     5    1
    54    11     9    1
    55    34    36   ar
    56     9     8    2
    57    19    20    1
    58    35    38   ar
    59    35    37   ar
    60     5     6    1
    61     6     7    1
    62    23    20    1
    63    23    24    1
    64    38    40   ar
    65    36    37   ar
    66    20    21    1
    67     8     7    1
    68    82    83    1
    69    37    39   ar
    70    27    25   ar
    71    26    25   ar
    72    25    24    1
    73    40    41   ar
    74    39    41   ar
    75    88    87    2
    76    21    22    2
    77    83    84    1
    78    83    86    1
    79    87    86    1
    80    87    89   am
    81    84    85    2
    82    59    58    1
    83    58    55    1
    84    53    52    1
    85    69    67   ar
    86    69    68   ar
    87    51    52   ar
    88    51    49   ar
    89    67    65   ar
    90    55    54    1
    91    55    56    1
    92    52    50   ar
    93    49    47   ar
    94    68    66   ar
    95    65    66   ar
    96    65    64    1
    97    56    60   am
    98    56    57    2
    99    60    61    1
   100    50    48   ar
   101    47    48   ar
   102    47    46    1
   103    64    61    1
   104    61    62    1
   105    46    43    1
   106    42    43    1
   107    43    44    1
   108    62    63    2
   109    44    45    2
