@<TRIPOS>MOLECULE
tmp/5fcwB00.pdb
 130 129 0 0 0
SMALL
GASTEIGER

@<TRIPOS>ATOM
      1  N         29.2900   14.8420  107.2730 N.3    76  TYR76      -0.1227
      2  CA        30.0690   14.5010  108.4640 C.3    76  TYR76       0.1736
      3  C         30.3940   15.7680  109.2660 C.2    76  TYR76       0.2595
      4  O         29.6090   16.2020  110.1200 O.2    76  TYR76      -0.2718
      5  CB        31.3550   13.7810  108.0250 C.3    76  TYR76       0.0548
      6  CG        32.1300   13.0430  109.1040 C.ar   76  TYR76      -0.0200
      7  CD1       31.8870   13.2590  110.4620 C.ar   76  TYR76      -0.0009
      8  CD2       33.1200   12.1340  108.7550 C.ar   76  TYR76      -0.0009
      9  CE1       32.6090   12.5790  111.4310 C.ar   76  TYR76       0.0417
     10  CE2       33.8430   11.4590  109.7080 C.ar   76  TYR76       0.0417
     11  CZ        33.5880   11.6770  111.0380 C.ar   76  TYR76       0.1957
     12  OH        34.3240   10.9860  111.9710 O.3    76  TYR76      -0.2866
     13  N         31.5620   16.3480  108.9900 N.am   77  ASP77      -0.1974
     14  CA        31.9900   17.5970  109.6170 C.3    77  ASP77       0.1709
     15  C         31.0720   18.7330  109.1860 C.2    77  ASP77       0.2293
     16  O         30.9390   19.7450  109.8890 O.2    77  ASP77      -0.2864
     17  CB        33.4290   17.9270  109.2000 C.3    77  ASP77       0.1436
     18  CG        33.5980   17.9720  107.6880 C.2    77  ASP77       0.3671
     19  OD1       33.4850   16.8970  107.0530 O.co2  77  ASP77      -0.2456
     20  OD2       33.8310   19.0740  107.1340 O.co2  77  ASP77      -0.2456
     21  N         36.4810   30.6060  107.1530 N.3   117  TRP117     -0.1227
     22  CA        36.2800   29.1870  106.8620 C.3   117  TRP117      0.1737
     23  C         37.0450   28.7530  105.6190 C.2   117  TRP117      0.2595
     24  O         36.5020   28.5900  104.5220 O.2   117  TRP117     -0.2718
     25  CB        34.7800   28.8730  106.8480 C.3   117  TRP117      0.0564
     26  CG        34.2400   29.2390  108.2080 C.ar  117  TRP117      0.0003
     27  CD1       33.5450   30.3740  108.5480 C.ar  117  TRP117      0.0946
     28  CD2       34.4490   28.5140  109.4310 C.ar  117  TRP117      0.0152
     29  NE1       33.2710   30.3690  109.9010 N.ar  117  TRP117     -0.2442
     30  CE2       33.8170   29.2430  110.4640 C.ar  117  TRP117      0.0810
     31  CE3       35.0960   27.3090  109.7490 C.ar  117  TRP117      0.0012
     32  CZ2       33.8120   28.8060  111.7910 C.ar  117  TRP117      0.0191
     33  CZ3       35.0930   26.8790  111.0670 C.ar  117  TRP117      0.0001
     34  CH2       34.4540   27.6250  112.0710 C.ar  117  TRP117      0.0015
     35  N         38.3320   28.5260  105.8380 N.am  118  HIS118     -0.1961
     36  CA        39.3310   28.5170  104.7790 C.3   118  HIS118      0.1787
     37  C         39.4600   27.2240  103.9700 C.2   118  HIS118      0.2620
     38  O         40.2010   27.2090  102.9880 O.2   118  HIS118     -0.2715
     39  CB        40.6980   28.8980  105.3860 C.3   118  HIS118      0.0785
     40  CG        41.1340   28.0270  106.5280 C.ar  118  HIS118      0.0821
     41  ND1       42.4040   28.0830  107.0610 N.ar  118  HIS118     -0.2267
     42  CD2       40.4630   27.0920  107.2520 C.ar  118  HIS118      0.1154
     43  CE1       42.5010   27.2210  108.0620 C.ar  118  HIS118      0.1986
     44  NE2       41.3360   26.6120  108.1990 N.ar  118  HIS118     -0.2212
     45  N         38.7700   26.1460  104.3650 N.am  119  HIS119     -0.1973
     46  CA        38.9120   24.8650  103.6470 C.3   119  HIS119      0.1656
     47  C         37.9530   24.6830  102.4610 C.2   119  HIS119      0.2291
     48  O         38.1950   23.8560  101.5720 O.2   119  HIS119     -0.2864
     49  CB        38.7270   23.6740  104.5860 C.3   119  HIS119      0.0771
     50  CG        39.7590   23.5830  105.6640 C.ar  119  HIS119      0.0820
     51  ND1       41.1150   23.5850  105.4070 N.ar  119  HIS119     -0.2267
     52  CD2       39.6300   23.4680  107.0080 C.ar  119  HIS119      0.1154
     53  CE1       41.7770   23.4800  106.5480 C.ar  119  HIS119      0.1986
     54  NE2       40.8980   23.4060  107.5340 N.ar  119  HIS119     -0.2212
     55  N         36.1540   20.2540  105.8430 N.3   127  GLY127     -0.1210
     56  CA        36.6140   20.5830  107.1850 C.3   127  GLY127      0.1956
     57  C         35.8260   21.6410  107.9310 C.2   127  GLY127      0.2611
     58  O         36.3900   22.6670  108.3060 O.2   127  GLY127     -0.2717
     59  N         34.5270   21.3960  108.1060 N.am  128  PHE128     -0.1976
     60  CA        33.6020   22.3100  108.7870 C.3   128  PHE128      0.1639
     61  C         33.2230   23.5440  107.9830 C.2   128  PHE128      0.2290
     62  O         32.4190   24.3530  108.4580 O.2   128  PHE128     -0.2864
     63  CB        34.1310   22.7690  110.1540 C.3   128  PHE128      0.0560
     64  CG        34.4160   21.6470  111.1040 C.ar  128  PHE128     -0.0200
     65  CD1       33.4030   20.7930  111.5160 C.ar  128  PHE128     -0.0042
     66  CD2       35.6960   21.4560  111.5950 C.ar  128  PHE128     -0.0042
     67  CE1       33.6630   19.7630  112.3900 C.ar  128  PHE128     -0.0003
     68  CE2       35.9660   20.4310  112.4800 C.ar  128  PHE128     -0.0003
     69  CZ        34.9510   19.5840  112.8760 C.ar  128  PHE128     -0.0000
     70  N         45.7360   29.9700  111.3760 N.3   154  ASP154     -0.1239
     71  CA        45.0110   28.7970  111.8570 C.3   154  ASP154      0.1674
     72  C         45.9610   27.5740  111.9360 C.2   154  ASP154      0.2266
     73  O         46.9470   27.4850  111.1880 O.2   154  ASP154     -0.2867
     74  CB        43.8470   28.5380  110.8970 C.3   154  ASP154      0.1410
     75  CG        42.8980   27.4770  111.3920 C.2   154  ASP154      0.3668
     76  OD1       41.7640   27.8050  111.7990 O.co2 154  ASP154     -0.2456
     77  OD2       43.3040   26.3060  111.3470 O.co2 154  ASP154     -0.2456
     78  N         45.5470   24.7290  110.8330 N.3   156  HIS156     -0.1241
     79  CA        45.4310   23.9160  109.6280 C.3   156  HIS156      0.1621
     80  C         45.8510   24.7030  108.3670 C.2   156  HIS156      0.2264
     81  O         45.7490   25.9350  108.3060 O.2   156  HIS156     -0.2867
     82  CB        43.9950   23.3540  109.5120 C.3   156  HIS156      0.0745
     83  CG        43.6330   22.3760  110.5950 C.ar  156  HIS156      0.0817
     84  ND1       42.9590   22.7390  111.7430 N.ar  156  HIS156     -0.2268
     85  CD2       43.8390   21.0380  110.6980 C.ar  156  HIS156      0.1154
     86  CE1       42.7690   21.6790  112.5050 C.ar  156  HIS156      0.1986
     87  NE2       43.2950   20.6320  111.8930 N.ar  156  HIS156     -0.2212
     88  N         45.1570   16.5400  108.9550 N.3   184  PHE184     -0.1241
     89  CA        44.3240   17.2740  107.9960 C.3   184  PHE184      0.1605
     90  C         44.8660   18.6570  107.6170 C.2   184  PHE184      0.2264
     91  O         45.3300   19.4070  108.4750 O.2   184  PHE184     -0.2867
     92  CB        42.9110   17.4300  108.5800 C.3   184  PHE184      0.0534
     93  CG        41.9230   18.0200  107.6170 C.ar  184  PHE184     -0.0203
     94  CD1       41.2160   17.2050  106.7500 C.ar  184  PHE184     -0.0042
     95  CD2       41.7080   19.3950  107.5740 C.ar  184  PHE184     -0.0042
     96  CE1       40.3100   17.7470  105.8470 C.ar  184  PHE184     -0.0003
     97  CE2       40.7940   19.9460  106.6890 C.ar  184  PHE184     -0.0003
     98  CZ        40.1030   19.1210  105.8200 C.ar  184  PHE184     -0.0000
     99  N         42.7250   27.4660  117.0200 N.3   243  ASP243     -0.1239
    100  CA        42.9550   26.0660  117.3640 C.3   243  ASP243      0.1674
    101  C         44.4530   25.7570  117.5190 C.2   243  ASP243      0.2266
    102  O         44.8470   24.6020  117.6820 O.2   243  ASP243     -0.2867
    103  CB        42.2680   25.1080  116.3980 C.3   243  ASP243      0.1410
    104  CG        42.5000   25.4690  114.9460 C.2   243  ASP243      0.3668
    105  OD1       43.2740   26.3990  114.6310 O.co2 243  ASP243     -0.2456
    106  OD2       41.8550   24.8130  114.1130 O.co2 243  ASP243     -0.2456
    107  N         42.4210   19.9350  119.6220 N.3   250  MET250     -0.1245
    108  CA        43.3890   19.5110  118.5980 C.3   250  MET250      0.1570
    109  C         44.7170   19.1550  119.2600 C.2   250  MET250      0.2261
    110  O         45.4840   18.3380  118.7400 O.2   250  MET250     -0.2867
    111  CB        43.6400   20.6200  117.5800 C.3   250  MET250      0.0387
    112  CG        42.4150   21.0770  116.7910 C.3   250  MET250      0.0595
    113  SD        41.7990   19.7940  115.6860 S.3   250  MET250     -0.1393
    114  CE        43.3540   19.2940  114.9570 C.3   250  MET250      0.0692
    115  N         39.0940   28.2600  113.0780 N.3   280  GLY280     -0.1225
    116  CA        38.9960   27.1670  114.0210 C.3   280  GLY280      0.1811
    117  C         39.1540   27.6740  115.4340 C.2   280  GLY280      0.2280
    118  O         39.4930   28.8440  115.6580 O.2   280  GLY280     -0.2866
    119  N         38.2910   25.3160  119.2390 N.3   282  TYR282     -0.1241
    120  CA        37.3210   24.3320  119.6870 C.3   282  TYR282      0.1605
    121  C         37.2480   24.1860  121.1980 C.2   282  TYR282      0.2264
    122  O         36.4000   23.4640  121.7200 O.2   282  TYR282     -0.2867
    123  CB        37.5780   23.0100  118.9750 C.3   282  TYR282      0.0534
    124  CG        37.6250   23.2560  117.4870 C.ar  282  TYR282     -0.0201
    125  CD1       36.4720   23.6060  116.7920 C.ar  282  TYR282     -0.0009
    126  CD2       38.8220   23.2180  116.7940 C.ar  282  TYR282     -0.0009
    127  CE1       36.5080   23.8640  115.4380 C.ar  282  TYR282      0.0417
    128  CE2       38.8670   23.4730  115.4440 C.ar  282  TYR282      0.0417
    129  CZ        37.7070   23.7900  114.7740 C.ar  282  TYR282      0.1957
    130  OH        37.7400   24.0450  113.4200 O.3   282  TYR282     -0.2866
@<TRIPOS>BOND
     1    48    47    2
     2    47    46    1
     3    38    37    2
     4    46    45    1
     5    46    49    1
     6    37    45   am
     7    37    36    1
     8    24    23    2
     9    49    50    1
    10    36    39    1
    11    36    35    1
    12    39    40    1
    13    51    50   ar
    14    51    53   ar
    15    23    35   am
    16    23    22    1
    17    50    52   ar
    18    98    96   ar
    19    98    97   ar
    20    55    56    1
    21    96    94   ar
    22    40    41   ar
    23    40    42   ar
    24    53    54   ar
    25    97    95   ar
    26    94    93   ar
    27    25    22    1
    28    25    26    1
    29    22    21    1
    30    52    54   ar
    31    19    18   ar
    32    41    43   ar
    33    20    18   ar
    34    56    57    1
    35    42    44   ar
    36     1     2    1
    37    95    93   ar
    38    93    92    1
    39    90    89    1
    40    90    91    2
    41    18    17    1
    42    57    59   am
    43    57    58    2
    44    61    62    2
    45    61    60    1
    46    89    92    1
    47    89    88    1
    48     5     2    1
    49     5     6    1
    50    43    44   ar
    51    59    60    1
    52    26    27   ar
    53    26    28   ar
    54    81    80    2
    55    80    79    1
    56     2     3    1
    57    27    29   ar
    58     8     6   ar
    59     8    10   ar
    60    60    63    1
    61    13     3   am
    62    13    14    1
    63     6     7   ar
    64    15    14    1
    65    15    16    2
    66    17    14    1
    67     3     4    2
    68    28    31   ar
    69    28    30   ar
    70    82    79    1
    71    82    83    1
    72    79    78    1
    73    10    11   ar
    74    31    33   ar
    75    29    30   ar
    76    63    64    1
    77     7     9   ar
    78    30    32   ar
    79    83    85   ar
    80    83    84   ar
    81    85    87   ar
    82    74    75    1
    83    74    71    1
    84    11     9   ar
    85    11    12    1
    86    33    34   ar
    87    64    65   ar
    88    64    66   ar
    89    73    72    2
    90    77    75   ar
    91    70    71    1
    92    75    76   ar
    93    65    67   ar
    94    66    68   ar
    95    84    86   ar
    96    32    34   ar
    97    71    72    1
    98    87    86   ar
    99    67    69   ar
   100    68    69   ar
   101   115   116    1
   102   130   129    1
   103   116   117    1
   104   106   104   ar
   105   105   104   ar
   106   129   127   ar
   107   129   128   ar
   108   104   103    1
   109   114   113    1
   110   117   118    2
   111   127   125   ar
   112   128   126   ar
   113   113   112    1
   114   103   100    1
   115   112   111    1
   116   125   124   ar
   117   126   124   ar
   118    99   100    1
   119   100   101    1
   120   124   123    1
   121   101   102    2
   122   111   108    1
   123   108   109    1
   124   108   107    1
   125   110   109    2
   126   123   120    1
   127   119   120    1
   128   120   121    1
   129   121   122    2
