@<TRIPOS>MOLECULE
tmp/5fcxB01.pdb
 254 249 0 0 0
SMALL
GASTEIGER

@<TRIPOS>ATOM
      1  N        166.5220  317.3220  126.4090 N.3    16  ASP16      -0.1239
      2  CA       167.4870  316.4480  125.7520 C.3    16  ASP16       0.1674
      3  C        168.8860  316.5670  126.3710 C.2    16  ASP16       0.2266
      4  O        169.5900  315.5680  126.5100 O.2    16  ASP16      -0.2867
      5  CB       167.5320  316.7470  124.2490 C.3    16  ASP16       0.1410
      6  CG       166.3150  316.2080  123.5080 C.2    16  ASP16       0.3668
      7  OD1      165.3370  315.8020  124.1720 O.co2  16  ASP16      -0.2456
      8  OD2      166.3340  316.1930  122.2580 O.co2  16  ASP16      -0.2456
      9  N        168.9580  314.6110  129.6970 N.3    19  LEU19      -0.1231
     10  CA       169.1280  313.1900  129.4210 C.3    19  LEU19       0.1693
     11  C        170.5780  312.8810  129.0740 C.2    19  LEU19       0.2591
     12  O        171.1540  311.9120  129.5750 O.2    19  LEU19      -0.2718
     13  CB       168.2120  312.7450  128.2800 C.3    19  LEU19       0.0284
     14  CG       166.7030  312.8570  128.5040 C.3    19  LEU19       0.0019
     15  CD1      165.9620  312.5190  127.2220 C.3    19  LEU19       0.0001
     16  CD2      166.2460  311.9530  129.6410 C.3    19  LEU19       0.0001
     17  N        171.1590  313.7180  128.2170 N.am   20  ALA20      -0.1980
     18  CA       172.5420  313.5530  127.7800 C.3    20  ALA20       0.1597
     19  C        173.5020  313.5710  128.9650 C.2    20  ALA20       0.2287
     20  O        174.3650  312.7010  129.0850 O.2    20  ALA20      -0.2864
     21  CB       172.9120  314.6360  126.7820 C.3    20  ALA20       0.0319
     22  N        172.8030  312.9400  132.0550 N.3    22  PHE22      -0.1227
     23  CA       172.5340  311.7690  132.8830 C.3    22  PHE22       0.1736
     24  C        173.2500  310.5440  132.3260 C.2    22  PHE22       0.2595
     25  O        173.8910  309.7960  133.0670 O.2    22  PHE22      -0.2718
     26  CB       171.0280  311.4990  132.9770 C.3    22  PHE22       0.0547
     27  CG       170.5870  310.9480  134.3120 C.ar   22  PHE22      -0.0202
     28  CD1      171.4340  310.9780  135.4070 C.ar   22  PHE22      -0.0042
     29  CD2      169.3160  310.4160  134.4740 C.ar   22  PHE22      -0.0042
     30  CE1      171.0240  310.4780  136.6350 C.ar   22  PHE22      -0.0003
     31  CE2      168.9030  309.9140  135.6990 C.ar   22  PHE22      -0.0003
     32  CZ       169.7580  309.9470  136.7800 C.ar   22  PHE22      -0.0000
     33  N        173.1370  310.3460  131.0160 N.am   23  TRP23      -0.1976
     34  CA       173.7910  309.2250  130.3500 C.3    23  TRP23       0.1640
     35  C        175.2940  309.2530  130.5860 C.2    23  TRP23       0.2290
     36  O        175.9100  308.2150  130.8180 O.2    23  TRP23      -0.2864
     37  CB       173.4840  309.2380  128.8490 C.3    23  TRP23       0.0576
     38  CG       174.3960  308.3770  128.0120 C.ar   23  TRP23       0.0006
     39  CD1      175.3790  308.8080  127.1680 C.ar   23  TRP23       0.0946
     40  CD2      174.4030  306.9470  127.9340 C.ar   23  TRP23       0.0152
     41  NE1      175.9970  307.7360  126.5710 N.ar   23  TRP23      -0.2442
     42  CE2      175.4170  306.5810  127.0250 C.ar   23  TRP23       0.0810
     43  CE3      173.6520  305.9400  128.5460 C.ar   23  TRP23       0.0012
     44  CZ2      175.6990  305.2500  126.7120 C.ar   23  TRP23       0.0191
     45  CZ3      173.9340  304.6140  128.2340 C.ar   23  TRP23       0.0001
     46  CH2      174.9480  304.2840  127.3250 C.ar   23  TRP23       0.0015
     47  N        176.8850  310.7910  133.1130 N.3    25  ILE25      -0.1231
     48  CA       177.1170  310.5230  134.5290 C.3    25  ILE25       0.1692
     49  C        177.0770  309.0160  134.7690 C.2    25  ILE25       0.2592
     50  O        177.7780  308.4880  135.6340 O.2    25  ILE25      -0.2718
     51  CB       176.0820  311.2320  135.4270 C.3    25  ILE25       0.0266
     52  CG1      176.3440  312.7390  135.4480 C.3    25  ILE25       0.0019
     53  CG2      176.1200  310.6690  136.8400 C.3    25  ILE25       0.0020
     54  CD1      175.3340  313.5190  136.2490 C.3    25  ILE25       0.0001
     55  N        176.2620  308.3270  133.9790 N.am   26  TYR26      -0.1976
     56  CA       176.1760  306.8740  134.0370 C.3    26  TYR26       0.1639
     57  C        177.4590  306.2290  133.5220 C.2    26  TYR26       0.2290
     58  O        178.0010  305.3180  134.1500 O.2    26  TYR26      -0.2864
     59  CB       174.9690  306.3860  133.2300 C.3    26  TYR26       0.0560
     60  CG       174.9520  304.8980  132.9620 C.ar   26  TYR26      -0.0198
     61  CD1      174.4880  304.0040  133.9170 C.ar   26  TYR26      -0.0009
     62  CD2      175.3870  304.3890  131.7470 C.ar   26  TYR26      -0.0009
     63  CE1      174.4680  302.6440  133.6740 C.ar   26  TYR26       0.0417
     64  CE2      175.3690  303.0320  131.4950 C.ar   26  TYR26       0.0417
     65  CZ       174.9090  302.1640  132.4610 C.ar   26  TYR26       0.1957
     66  OH       174.8900  300.8110  132.2120 O.3    26  TYR26      -0.2866
     67  N        180.4180  306.3900  135.7440 N.3    29  MET29      -0.1245
     68  CA       180.3100  305.4480  136.8530 C.3    29  MET29       0.1570
     69  C        180.9460  304.0950  136.5240 C.2    29  MET29       0.2261
     70  O        181.2330  303.3050  137.4280 O.2    29  MET29      -0.2867
     71  CB       178.8410  305.2530  137.2450 C.3    29  MET29       0.0387
     72  CG       178.2260  306.4370  137.9740 C.3    29  MET29       0.0595
     73  SD       176.5050  306.1830  138.4770 S.3    29  MET29      -0.1393
     74  CE       176.3320  304.4050  138.3000 C.3    29  MET29       0.0692
     75  N        163.6510  301.5580  148.6460 N.3    34  VAL34      -0.1245
     76  CA       163.7520  301.0390  147.2860 C.3    34  VAL34       0.1561
     77  C        163.1120  299.6630  147.1430 C.2    34  VAL34       0.2260
     78  O        163.3250  298.7710  147.9670 O.2    34  VAL34      -0.2867
     79  CB       165.2150  300.9570  146.8170 C.3    34  VAL34       0.0252
     80  CG1      166.0040  300.0100  147.7010 C.3    34  VAL34       0.0019
     81  CG2      165.2780  300.5250  145.3610 C.3    34  VAL34       0.0019
     82  N        162.1420  306.9120  124.1210 N.3    55  LEU55      -0.1245
     83  CA       162.6650  308.2680  124.2410 C.3    55  LEU55       0.1561
     84  C        161.5700  309.2270  124.6980 C.2    55  LEU55       0.2260
     85  O        161.7810  310.0500  125.5930 O.2    55  LEU55      -0.2867
     86  CB       163.2580  308.7370  122.9110 C.3    55  LEU55       0.0270
     87  CG       163.7040  310.2000  122.8620 C.3    55  LEU55       0.0019
     88  CD1      164.5520  310.5310  124.0760 C.3    55  LEU55       0.0001
     89  CD2      164.4690  310.5020  121.5850 C.3    55  LEU55       0.0001
     90  N        160.8160  309.0650  128.4800 N.3    58  GLN58      -0.1231
     91  CA       161.8190  309.7300  129.2950 C.3    58  GLN58       0.1698
     92  C        161.6710  311.2460  129.2000 C.2    58  GLN58       0.2592
     93  O        161.8090  311.9640  130.1960 O.2    58  GLN58      -0.2718
     94  CB       163.2130  309.2880  128.8650 C.3    58  GLN58       0.0381
     95  CG       163.3830  307.7830  128.9080 C.3    58  GLN58       0.0905
     96  CD       164.6750  307.3190  128.2770 C.2    58  GLN58       0.2608
     97  OE1      165.7450  307.4200  128.8780 O.2    58  GLN58      -0.2717
     98  NE2      164.5850  306.8060  127.0550 N.am   58  GLN58      -0.0878
     99  N        161.3820  311.7270  127.9970 N.am   59  ARG59      -0.1980
    100  CA       161.0840  313.1360  127.8020 C.3    59  ARG59       0.1597
    101  C        159.8550  313.5370  128.6040 C.2    59  ARG59       0.2287
    102  O        159.8430  314.5850  129.2510 O.2    59  ARG59      -0.2864
    103  CB       160.8700  313.4390  126.3240 C.3    59  ARG59       0.0334
    104  CG       162.1510  313.5440  125.5430 C.3    59  ARG59       0.0492
    105  CD       161.8600  313.6760  124.0730 C.3    59  ARG59       0.2205
    106  NE       163.0360  314.1000  123.3250 N.pl3  59  ARG59      -0.0865
    107  CZ       163.1860  313.9090  122.0210 C.cat  59  ARG59       0.5346
    108  NH1      162.2350  313.2910  121.3300 N.pl3  59  ARG59       0.1354
    109  NH2      164.2860  314.3260  121.4100 N.pl3  59  ARG59       0.1354
    110  N        164.1710  306.5400  145.8430 N.3    79  THR79      -0.1218
    111  CA       165.3000  305.6960  145.4730 C.3    79  THR79       0.1862
    112  C        164.8990  304.6510  144.4310 C.2    79  THR79       0.2287
    113  O        165.7250  304.2200  143.6290 O.2    79  THR79      -0.2866
    114  CB       165.8970  304.9920  146.6990 C.3    79  THR79       0.1770
    115  OG1      164.8370  304.4260  147.4750 O.3    79  THR79      -0.2211
    116  CG2      166.6680  305.9850  147.5590 C.3    79  THR79       0.0375
    117  N        165.1760  306.3140  141.0960 N.3    82  LEU82      -0.1231
    118  CA       166.5560  306.3550  140.6220 C.3    82  LEU82       0.1693
    119  C        166.9990  304.9940  140.0780 C.2    82  LEU82       0.2591
    120  O        167.6320  304.9160  139.0250 O.2    82  LEU82      -0.2718
    121  CB       167.4960  306.8100  141.7400 C.3    82  LEU82       0.0284
    122  CG       168.9780  306.9430  141.3800 C.3    82  LEU82       0.0019
    123  CD1      169.1690  307.8740  140.1950 C.3    82  LEU82       0.0001
    124  CD2      169.7660  307.4450  142.5700 C.3    82  LEU82       0.0001
    125  N        166.6600  303.9260  140.7940 N.am   83  LEU83      -0.1980
    126  CA       166.9970  302.5770  140.3500 C.3    83  LEU83       0.1596
    127  C        166.3760  302.2810  138.9890 C.2    83  LEU83       0.2287
    128  O        166.9460  301.5510  138.1760 O.2    83  LEU83      -0.2864
    129  CB       166.5360  301.5410  141.3740 C.3    83  LEU83       0.0297
    130  CG       166.7880  300.0750  141.0220 C.3    83  LEU83       0.0022
    131  CD1      168.2660  299.8280  140.7710 C.3    83  LEU83       0.0001
    132  CD2      166.2770  299.1830  142.1360 C.3    83  LEU83       0.0001
    133  N        165.8300  304.5530  136.5590 N.3    85  TRP85      -0.1227
    134  CA       166.6440  305.2480  135.5660 C.3    85  TRP85       0.1737
    135  C        167.9150  304.4740  135.2480 C.2    85  TRP85       0.2595
    136  O        168.3480  304.4370  134.0950 O.2    85  TRP85      -0.2718
    137  CB       166.9980  306.6600  136.0400 C.3    85  TRP85       0.0564
    138  CG       165.8930  307.6360  135.8370 C.ar   85  TRP85       0.0003
    139  CD1      165.0160  308.0920  136.7770 C.ar   85  TRP85       0.0946
    140  CD2      165.5320  308.2730  134.6090 C.ar   85  TRP85       0.0152
    141  NE1      164.1330  308.9780  136.2100 N.ar   85  TRP85      -0.2442
    142  CE2      164.4300  309.1060  134.8770 C.ar   85  TRP85       0.0810
    143  CE3      166.0370  308.2220  133.3060 C.ar   85  TRP85       0.0012
    144  CZ2      163.8220  309.8800  133.8930 C.ar   85  TRP85       0.0191
    145  CZ3      165.4350  308.9890  132.3300 C.ar   85  TRP85       0.0001
    146  CH2      164.3390  309.8080  132.6280 C.ar   85  TRP85       0.0015
    147  N        168.5130  303.8610  136.2670 N.am   86  TYR86      -0.1976
    148  CA       169.7110  303.0600  136.0510 C.3    86  TYR86       0.1639
    149  C        169.3770  301.8750  135.1540 C.2    86  TYR86       0.2290
    150  O        170.1480  301.5230  134.2600 O.2    86  TYR86      -0.2864
    151  CB       170.3130  302.5720  137.3740 C.3    86  TYR86       0.0560
    152  CG       171.5940  301.7780  137.1830 C.ar   86  TYR86      -0.0198
    153  CD1      171.5590  300.4060  136.9550 C.ar   86  TYR86      -0.0009
    154  CD2      172.8350  302.4020  137.2080 C.ar   86  TYR86      -0.0009
    155  CE1      172.7230  299.6800  136.7670 C.ar   86  TYR86       0.0417
    156  CE2      174.0030  301.6840  137.0220 C.ar   86  TYR86       0.0417
    157  CZ       173.9410  300.3220  136.8020 C.ar   86  TYR86       0.1957
    158  OH       175.0990  299.5960  136.6170 O.3    86  TYR86      -0.2866
    159  N        167.1460  301.7210  132.8550 N.3    88  LEU88      -0.1231
    160  CA       167.0090  302.2140  131.4880 C.3    88  LEU88       0.1693
    161  C        168.3610  302.3080  130.7860 C.2    88  LEU88       0.2592
    162  O        168.5730  301.6970  129.7350 O.2    88  LEU88      -0.2718
    163  CB       166.3240  303.5830  131.4730 C.3    88  LEU88       0.0284
    164  CG       164.8370  303.6260  131.8190 C.3    88  LEU88       0.0019
    165  CD1      164.3160  305.0430  131.6900 C.3    88  LEU88       0.0001
    166  CD2      164.0460  302.6840  130.9290 C.3    88  LEU88       0.0001
    167  N        169.2670  303.0810  131.3800 N.am   89  SER89      -0.1952
    168  CA       170.6100  303.2750  130.8420 C.3    89  SER89       0.1924
    169  C        171.3400  301.9490  130.6450 C.2    89  SER89       0.2314
    170  O        172.0400  301.7540  129.6490 O.2    89  SER89      -0.2863
    171  CB       171.4190  304.1860  131.7640 C.3    89  SER89       0.2116
    172  OG       171.4520  303.6680  133.0800 O.3    89  SER89      -0.2180
    173  N        170.1130  300.4030  127.7140 N.3    92  MET92      -0.1245
    174  CA       170.6720  301.0440  126.5310 C.3    92  MET92       0.1570
    175  C        171.9630  300.3520  126.1140 C.2    92  MET92       0.2261
    176  O        172.1430  300.0150  124.9400 O.2    92  MET92      -0.2867
    177  CB       170.9090  302.5330  126.7880 C.3    92  MET92       0.0387
    178  CG       169.6190  303.3080  126.9980 C.3    92  MET92       0.0595
    179  SD       169.8670  305.0460  127.4070 S.3    92  MET92      -0.1393
    180  CE       170.7170  305.6340  125.9430 C.3    92  MET92       0.0692
    181  N        166.5590  302.3850  123.6990 N.3    98  VAL98      -0.1231
    182  CA       167.0890  303.3390  122.7260 C.3    98  VAL98       0.1678
    183  C        168.5500  303.6700  122.9380 C.2    98  VAL98       0.2434
    184  O        168.9300  304.1480  124.0030 O.2    98  VAL98      -0.2733
    185  CB       166.3140  304.6570  122.7630 C.3    98  VAL98       0.0265
    186  CG1      166.7950  305.5780  121.6530 C.3    98  VAL98       0.0020
    187  CG2      164.8360  304.3910  122.6420 C.3    98  VAL98       0.0020
    188  N        169.3770  303.4220  121.9150 N.am   99  PRO99      -0.2718
    189  CA       170.8040  303.7320  121.9980 C.3    99  PRO99       0.1535
    190  C        171.0470  305.2370  121.9550 C.2    99  PRO99       0.2598
    191  O        170.4170  305.9350  121.1570 O.2    99  PRO99      -0.2715
    192  CB       171.3780  303.0450  120.7610 C.3    99  PRO99       0.0310
    193  CG       170.2530  303.0680  119.7870 C.3    99  PRO99       0.0237
    194  CD       169.0080  302.8660  120.6030 C.3    99  PRO99       0.0939
    195  N        171.9370  305.7240  122.8130 N.am  100  PHE100     -0.1961
    196  CA       172.3320  307.1280  122.8020 C.3   100  PHE100      0.1756
    197  C        172.9990  307.4790  121.4690 C.2   100  PHE100      0.2461
    198  O        173.8450  306.7280  120.9830 O.2   100  PHE100     -0.2730
    199  CB       173.2770  307.4220  123.9740 C.3   100  PHE100      0.0574
    200  CG       173.5720  308.8830  124.1730 C.ar  100  PHE100     -0.0200
    201  CD1      174.6010  309.4990  123.4800 C.ar  100  PHE100     -0.0042
    202  CD2      172.8220  309.6370  125.0630 C.ar  100  PHE100     -0.0042
    203  CE1      174.8720  310.8410  123.6640 C.ar  100  PHE100     -0.0003
    204  CE2      173.0880  310.9820  125.2530 C.ar  100  PHE100     -0.0003
    205  CZ       174.1140  311.5840  124.5540 C.ar  100  PHE100     -0.0000
    206  N        172.6120  308.6190  120.8710 N.am  101  PRO101     -0.2727
    207  CA       173.1700  309.0520  119.5860 C.3   101  PRO101      0.1402
    208  C        174.6880  309.0870  119.6160 C.2   101  PRO101      0.2269
    209  O        175.2680  309.6560  120.5410 O.2   101  PRO101     -0.2865
    210  CB       172.5980  310.4610  119.4100 C.3   101  PRO101      0.0296
    211  CG       171.3470  310.4550  120.2040 C.3   101  PRO101      0.0237
    212  CD       171.6320  309.5850  121.3950 C.3   101  PRO101      0.0939
    213  N        176.2080  312.6890  119.1590 N.3   104  TYR104     -0.1241
    214  CA       175.8610  313.6920  120.1620 C.3   104  TYR104      0.1605
    215  C        177.0620  314.1720  120.9790 C.2   104  TYR104      0.2264
    216  O        177.7820  313.3750  121.5830 O.2   104  TYR104     -0.2867
    217  CB       174.7920  313.1430  121.1080 C.3   104  TYR104      0.0534
    218  CG       174.0200  314.2170  121.8410 C.ar  104  TYR104     -0.0201
    219  CD1      174.5440  314.8330  122.9710 C.ar  104  TYR104     -0.0009
    220  CD2      172.7690  314.6250  121.3940 C.ar  104  TYR104     -0.0009
    221  CE1      173.8370  315.8210  123.6390 C.ar  104  TYR104      0.0417
    222  CE2      172.0560  315.6090  122.0560 C.ar  104  TYR104      0.0417
    223  CZ       172.5930  316.2040  123.1760 C.ar  104  TYR104      0.1957
    224  OH       171.8830  317.1850  123.8320 O.3   104  TYR104     -0.2866
    225  N        180.5960  310.9180  147.9190 N.3   122  PHE122     -0.1241
    226  CA       179.7600  309.8050  147.4840 C.3   122  PHE122      0.1605
    227  C        178.3050  310.0590  147.8640 C.2   122  PHE122      0.2264
    228  O        177.4160  310.0140  147.0150 O.2   122  PHE122     -0.2867
    229  CB       180.2480  308.4860  148.0890 C.3   122  PHE122      0.0534
    230  CG       179.6770  307.2650  147.4240 C.ar  122  PHE122     -0.0203
    231  CD1      180.2610  306.7490  146.2770 C.ar  122  PHE122     -0.0042
    232  CD2      178.5630  306.6280  147.9440 C.ar  122  PHE122     -0.0042
    233  CE1      179.7430  305.6220  145.6580 C.ar  122  PHE122     -0.0003
    234  CE2      178.0410  305.4980  147.3280 C.ar  122  PHE122     -0.0003
    235  CZ       178.6310  304.9960  146.1840 C.ar  122  PHE122     -0.0000
    236  N        174.8760  310.8540  145.3820 N.3   126  ILE126     -0.1245
    237  CA       173.6910  310.0070  145.4050 C.3   126  ILE126      0.1561
    238  C        172.4620  310.7850  145.8660 C.2   126  ILE126      0.2260
    239  O        171.3450  310.5220  145.4200 O.2   126  ILE126     -0.2867
    240  CB       173.9020  308.7840  146.3060 C.3   126  ILE126      0.0252
    241  CG1      175.0220  307.9150  145.7390 C.3   126  ILE126      0.0019
    242  CG2      172.6240  307.9760  146.4170 C.3   126  ILE126      0.0019
    243  CD1      175.1780  306.6010  146.4470 C.3   126  ILE126      0.0001
    244  N        171.3750  312.8230  142.7130 N.3   129  PHE129     -0.1241
    245  CA       170.6670  312.0210  141.7210 C.3   129  PHE129      0.1605
    246  C        169.2320  311.7300  142.1530 C.2   129  PHE129      0.2264
    247  O        168.2910  311.9040  141.3780 O.2   129  PHE129     -0.2867
    248  CB       171.4100  310.7080  141.4650 C.3   129  PHE129      0.0534
    249  CG       172.8520  310.8890  141.0700 C.ar  129  PHE129     -0.0203
    250  CD1      173.2970  312.0870  140.5340 C.ar  129  PHE129     -0.0042
    251  CD2      173.7630  309.8570  141.2360 C.ar  129  PHE129     -0.0042
    252  CE1      174.6260  312.2500  140.1720 C.ar  129  PHE129     -0.0003
    253  CE2      175.0900  310.0140  140.8750 C.ar  129  PHE129     -0.0003
    254  CZ       175.5220  311.2120  140.3420 C.ar  129  PHE129     -0.0000
@<TRIPOS>BOND
     1   213   214    1
     2   210   207    1
     3   210   211    1
     4   207   208    1
     5   207   206    1
     6   208   209    2
     7   193   194    1
     8   193   192    1
     9   214   215    1
    10   214   217    1
    11   211   212    1
    12   194   188    1
    13   192   189    1
    14   206   212    1
    15   206   197   am
    16   215   216    2
    17   198   197    2
    18   217   218    1
    19   191   190    2
    20   108   107    1
    21   220   218   ar
    22   220   222   ar
    23   109   107    1
    24   197   196    1
    25    89    87    1
    26   186   185    1
    27   218   219   ar
    28   188   189    1
    29   188   183   am
    30   190   189    1
    31   190   195   am
    32   107   106    2
    33   222   223   ar
    34     8     6   ar
    35   187   185    1
    36   182   185    1
    37   182   183    1
    38   182   181    1
    39   196   195    1
    40   196   199    1
    41    87    86    1
    42    87    88    1
    43    86    83    1
    44   183   184    2
    45   219   221   ar
    46   223   221   ar
    47   223   224    1
    48   106   105    1
    49   201   203   ar
    50   201   200   ar
    51     6     7   ar
    52     6     5    1
    53   203   205   ar
    54   199   200    1
    55   105   104    1
    56    82    83    1
    57   200   202   ar
    58    83    84    1
    59     5     2    1
    60   205   204   ar
    61    84    85    2
    62   176   175    2
    63   202   204   ar
    64   104   103    1
    65     2     3    1
    66     2     1    1
    67   180   179    1
    68   175   174    1
    69   103   100    1
    70     3     4    2
    71   174   177    1
    72   174   173    1
    73    41    42   ar
    74    41    39   ar
    75    44    42   ar
    76    44    46   ar
    77    21    18    1
    78   177   178    1
    79   178   179    1
    80    42    40   ar
    81    98    96   am
    82    39    38   ar
    83    15    14    1
    84    46    45   ar
    85    18    17    1
    86    18    19    1
    87   100    99    1
    88   100   101    1
    89    40    38   ar
    90    40    43   ar
    91    99    92   am
    92    38    37    1
    93    17    11   am
    94    45    43   ar
    95    96    97    2
    96    96    95    1
    97    13    14    1
    98    13    10    1
    99    90    91    1
   100    14    16    1
   101   101   102    2
   102    37    34    1
   103    94    95    1
   104    94    91    1
   105    19    20    2
   106    11    10    1
   107    11    12    2
   108    92    91    1
   109    92    93    2
   110    10     9    1
   111   170   169    2
   112   162   161    2
   113    34    35    1
   114    34    33    1
   115    35    36    2
   116   169   168    1
   117   161   167   am
   118   161   160    1
   119   168   167    1
   120   168   171    1
   121   166   164    1
   122    33    24   am
   123   163   160    1
   124   163   164    1
   125   160   159    1
   126    64    62   ar
   127    64    65   ar
   128   165   164    1
   129    62    60   ar
   130   171   172    1
   131    22    23    1
   132    66    65    1
   133    24    23    1
   134    24    25    2
   135   145   146   ar
   136   145   143   ar
   137    65    63   ar
   138   146   144   ar
   139    23    26    1
   140    60    59    1
   141    60    61   ar
   142    26    27    1
   143    47    48    1
   144    59    56    1
   145   143   140   ar
   146    57    56    1
   147    57    58    2
   148    63    61   ar
   149   144   142   ar
   150    55    56    1
   151    55    49   am
   152   136   135    2
   153   150   149    2
   154    27    29   ar
   155    27    28   ar
   156    29    31   ar
   157    48    49    1
   158    48    51    1
   159   140   142   ar
   160   140   138   ar
   161    49    50    2
   162   142   141   ar
   163   149   148    1
   164   135   134    1
   165   135   147   am
   166    28    30   ar
   167    51    52    1
   168    51    53    1
   169    52    54    1
   170   134   137    1
   171   134   133    1
   172    31    32   ar
   173    67    68    1
   174   138   137    1
   175   138   139   ar
   176   148   147    1
   177   148   151    1
   178   141   139   ar
   179    69    68    1
   180    69    70    2
   181   158   157    1
   182    30    32   ar
   183   155   157   ar
   184   155   153   ar
   185   157   156   ar
   186    68    71    1
   187   153   152   ar
   188   156   154   ar
   189   152   154   ar
   190   152   151    1
   191    71    72    1
   192    72    73    1
   193   128   127    2
   194    74    73    1
   195   127   126    1
   196   120   119    2
   197   119   118    1
   198   119   125   am
   199   252   254   ar
   200   252   250   ar
   201   123   122    1
   202   254   253   ar
   203   126   125    1
   204   126   129    1
   205   250   249   ar
   206   118   117    1
   207   118   121    1
   208   131   130    1
   209   253   251   ar
   210   130   129    1
   211   130   132    1
   212   249   251   ar
   213   249   248    1
   214   247   246    2
   215   122   121    1
   216   122   124    1
   217   248   245    1
   218   245   246    1
   219   245   244    1
   220   113   112    2
   221   112   111    1
   222    81    79    1
   223   236   237    1
   224   237   238    1
   225   237   240    1
   226   239   238    2
   227   111   110    1
   228   111   114    1
   229   233   235   ar
   230   233   231   ar
   231   241   240    1
   232   241   243    1
   233   235   234   ar
   234   231   230   ar
   235   240   242    1
   236   114   115    1
   237   114   116    1
   238    79    76    1
   239    79    80    1
   240   228   227    2
   241    77    76    1
   242    77    78    2
   243    76    75    1
   244   234   232   ar
   245   230   232   ar
   246   230   229    1
   247   226   227    1
   248   226   225    1
   249   226   229    1
