@<TRIPOS>MOLECULE
tmp/5fczA00.pdb
 154 151 0 0 0
SMALL
GASTEIGER

@<TRIPOS>ATOM
      1  N         -1.1780   73.0490    1.7110 N.3   155  ARG155     -0.1245
      2  CA        -0.7760   73.8880    2.8420 C.3   155  ARG155      0.1563
      3  C          0.4400   74.7240    2.4870 C.2   155  ARG155      0.2260
      4  O          0.4090   75.9530    2.6050 O.2   155  ARG155     -0.2867
      5  CB        -0.5160   73.0440    4.0790 C.3   155  ARG155      0.0307
      6  CG        -1.7400   72.8880    4.8920 C.3   155  ARG155      0.0489
      7  CD        -2.9420   72.4010    4.0540 C.3   155  ARG155      0.2205
      8  NE        -4.0980   72.2140    4.9220 N.pl3 155  ARG155     -0.0865
      9  CZ        -4.3320   71.1270    5.6490 C.cat 155  ARG155      0.5346
     10  NH1       -3.5230   70.0620    5.5910 N.pl3 155  ARG155      0.1354
     11  NH2       -5.3810   71.1070    6.4470 N.pl3 155  ARG155      0.1354
     12  N         -7.3660   72.3670   -0.1840 N.3   184  ASP184     -0.1239
     13  CA        -7.7030   72.4670    1.2200 C.3   184  ASP184      0.1674
     14  C         -8.1220   73.9080    1.4980 C.2   184  ASP184      0.2266
     15  O         -8.4960   74.6400    0.5760 O.2   184  ASP184     -0.2867
     16  CB        -6.5280   72.0060    2.0920 C.3   184  ASP184      0.1410
     17  CG        -6.9830   71.4570    3.4040 C.2   184  ASP184      0.3668
     18  OD1       -7.3420   72.2750    4.2830 O.co2 184  ASP184     -0.2456
     19  OD2       -6.9830   70.2180    3.5480 O.co2 184  ASP184     -0.2456
     20  N        -12.7280   71.2990    4.4900 N.3   243  HIS243     -0.1241
     21  CA       -11.4190   71.6890    3.9620 C.3   243  HIS243      0.1621
     22  C        -11.5610   72.3280    2.5660 C.2   243  HIS243      0.2264
     23  O        -10.7960   72.0640    1.6350 O.2   243  HIS243     -0.2867
     24  CB       -10.4660   70.4710    3.9530 C.3   243  HIS243      0.0745
     25  CG        -9.9650   70.1080    5.3080 C.ar  243  HIS243      0.0817
     26  ND1       -8.9000   70.7470    5.9030 N.ar  243  HIS243     -0.2268
     27  CD2      -10.4170   69.2050    6.2110 C.ar  243  HIS243      0.1154
     28  CE1       -8.7090   70.2350    7.1070 C.ar  243  HIS243      0.1986
     29  NE2       -9.6180   69.3010    7.3180 N.ar  243  HIS243     -0.2212
     30  N         -8.2090   73.9110   11.3600 N.3   269  VAL269     -0.1245
     31  CA        -9.0690   73.0500   10.5590 C.3   269  VAL269      0.1561
     32  C        -10.4960   73.1480   11.0880 C.2   269  VAL269      0.2260
     33  O        -10.7370   73.5610   12.2250 O.2   269  VAL269     -0.2867
     34  CB        -8.5850   71.5770   10.5600 C.3   269  VAL269      0.0252
     35  CG1       -7.0740   71.4980   10.2130 C.3   269  VAL269      0.0019
     36  CG2       -8.8890   70.8390   11.9240 C.3   269  VAL269      0.0019
     37  N        -12.9070   64.4920    5.5630 N.3   306  ASP306     -0.1225
     38  CA       -12.4300   64.6630    6.9230 C.3   306  ASP306      0.1805
     39  C        -12.8080   66.0260    7.4820 C.2   306  ASP306      0.2597
     40  O        -12.8410   67.0290    6.7620 O.2   306  ASP306     -0.2718
     41  CB       -10.9080   64.5490    6.9740 C.3   306  ASP306      0.1424
     42  CG       -10.2400   65.6080    6.1340 C.2   306  ASP306      0.3668
     43  OD1      -10.5950   65.6390    4.9140 O.co2 306  ASP306     -0.2456
     44  OD2       -9.4220   66.4050    6.6970 O.co2 306  ASP306     -0.2456
     45  N        -13.0660   66.0470    8.7890 N.am  307  GLU307     -0.1979
     46  CA       -13.1710   67.2670    9.5840 C.3   307  GLU307      0.1602
     47  C        -14.1220   68.2690    8.9510 C.2   307  GLU307      0.2287
     48  O        -13.8600   69.4780    8.9200 O.2   307  GLU307     -0.2864
     49  CB       -11.7940   67.8820    9.8160 C.3   307  GLU307      0.0415
     50  CG       -10.8430   66.9240   10.4780 C.3   307  GLU307      0.1163
     51  CD        -9.4730   67.5270   10.6490 C.2   307  GLU307      0.3649
     52  OE1       -9.0740   68.2770    9.7270 O.co2 307  GLU307     -0.2457
     53  OE2       -8.8040   67.2490   11.6810 O.co2 307  GLU307     -0.2457
     54  N        -11.6190   59.6700    3.4470 N.3   337  TRP337     -0.1241
     55  CA       -11.1850   59.4700    4.8180 C.3   337  TRP337      0.1605
     56  C        -12.2900   58.7160    5.5660 C.2   337  TRP337      0.2264
     57  O        -13.4280   58.6570    5.1110 O.2   337  TRP337     -0.2867
     58  CB       -10.8530   60.8220    5.4620 C.3   337  TRP337      0.0550
     59  CG        -9.7330   61.5790    4.7660 C.ar  337  TRP337      0.0003
     60  CD1       -9.8460   62.7010    3.9650 C.ar  337  TRP337      0.0946
     61  CD2       -8.3310   61.2770    4.8220 C.ar  337  TRP337      0.0152
     62  NE1       -8.5990   63.1010    3.5270 N.ar  337  TRP337     -0.2442
     63  CE2       -7.6550   62.2430    4.0300 C.ar  337  TRP337      0.0810
     64  CE3       -7.5820   60.2880    5.4620 C.ar  337  TRP337      0.0012
     65  CZ2       -6.2650   62.2380    3.8710 C.ar  337  TRP337      0.0191
     66  CZ3       -6.2050   60.2800    5.2990 C.ar  337  TRP337      0.0001
     67  CH2       -5.5600   61.2440    4.5090 C.ar  337  TRP337      0.0015
     68  N         -7.5870   57.2990    9.7610 N.3   354  TRP354     -0.1241
     69  CA        -6.5450   58.1580   10.3030 C.3   354  TRP354      0.1605
     70  C         -6.7120   58.3710   11.7980 C.2   354  TRP354      0.2264
     71  O         -6.1710   59.3310   12.3520 O.2   354  TRP354     -0.2867
     72  CB        -6.5040   59.5000    9.5690 C.3   354  TRP354      0.0550
     73  CG        -7.7490   60.3170    9.5900 C.ar  354  TRP354      0.0003
     74  CD1       -8.8650   60.0870    8.8870 C.ar  354  TRP354      0.0946
     75  CD2       -7.9820   61.5260   10.3420 C.ar  354  TRP354      0.0152
     76  NE1       -9.8060   61.0670    9.1500 N.ar  354  TRP354     -0.2442
     77  CE2       -9.2810   61.9540   10.0500 C.ar  354  TRP354      0.0810
     78  CE3       -7.2210   62.2640   11.2450 C.ar  354  TRP354      0.0012
     79  CZ2       -9.8350   63.0860   10.6140 C.ar  354  TRP354      0.0191
     80  CZ3       -7.7740   63.3850   11.8090 C.ar  354  TRP354      0.0001
     81  CH2       -9.0690   63.7910   11.4860 C.ar  354  TRP354      0.0015
     82  N          1.8770   59.2400   10.1860 N.3   386  TYR386     -0.1241
     83  CA         1.8120   60.6390    9.7850 C.3   386  TYR386      0.1605
     84  C          3.2220   61.1880    9.8590 C.2   386  TYR386      0.2264
     85  O          3.7380   61.3940   10.9500 O.2   386  TYR386     -0.2867
     86  CB         0.8580   61.4250   10.6830 C.3   386  TYR386      0.0534
     87  CG        -0.5810   61.4270   10.1840 C.ar  386  TYR386     -0.0201
     88  CD1       -1.0800   60.3420    9.4980 C.ar  386  TYR386     -0.0009
     89  CD2       -1.4230   62.5220   10.3890 C.ar  386  TYR386     -0.0009
     90  CE1       -2.3770   60.3350    9.0170 C.ar  386  TYR386      0.0417
     91  CE2       -2.6780   62.5370    9.9280 C.ar  386  TYR386      0.0417
     92  CZ        -3.1640   61.4350    9.2100 C.ar  386  TYR386      0.1957
     93  OH        -4.4410   61.3950    8.6800 O.3   386  TYR386     -0.2866
     94  N          4.2930   64.0610    9.2200 N.3   388  ASP388     -0.1225
     95  CA         4.3760   65.4010    9.7790 C.3   388  ASP388      0.1805
     96  C          4.4040   65.4180   11.2990 C.2   388  ASP388      0.2597
     97  O          4.5940   66.4940   11.8650 O.2   388  ASP388     -0.2718
     98  CB         3.2010   66.2670    9.3010 C.3   388  ASP388      0.1424
     99  CG         1.8510   65.7160    9.7440 C.2   388  ASP388      0.3668
    100  OD1        1.6870   64.4690    9.7110 O.co2 388  ASP388     -0.2456
    101  OD2        0.9670   66.5150   10.1350 O.co2 388  ASP388     -0.2456
    102  N          4.2060   64.2800   11.9730 N.am  389  MET389     -0.1979
    103  CA         4.1770   64.2330   13.4370 C.3   389  MET389      0.1605
    104  C          5.5970   64.2260   14.0190 C.2   389  MET389      0.2287
    105  O          6.4580   63.4510   13.5820 O.2   389  MET389     -0.2864
    106  CB         3.4160   62.9910   13.9150 C.3   389  MET389      0.0413
    107  CG         2.6020   63.2480   15.1590 C.3   389  MET389      0.0598
    108  SD         1.2610   64.4560   14.8870 S.3   389  MET389     -0.1393
    109  CE         0.2850   63.7520   13.5390 C.3   389  MET389      0.0692
    110  N          3.8890   68.6130   13.8060 N.3   399  LEU399     -0.1245
    111  CA         2.8220   68.7450   14.7920 C.3   399  LEU399      0.1561
    112  C          2.9210   67.6650   15.8700 C.2   399  LEU399      0.2260
    113  O          3.7210   66.7300   15.7940 O.2   399  LEU399     -0.2867
    114  CB         1.4650   68.6650   14.1050 C.3   399  LEU399      0.0270
    115  CG         1.2060   69.6870   12.9700 C.3   399  LEU399      0.0019
    116  CD1       -0.2040   69.4950   12.3440 C.3   399  LEU399      0.0001
    117  CD2        1.3650   71.0810   13.4650 C.3   399  LEU399      0.0001
    118  N         -0.3620   66.9230   17.7450 N.3   401  TRP401     -0.1241
    119  CA        -1.7110   66.6620   18.2080 C.3   401  TRP401      0.1605
    120  C         -1.9590   65.1730   18.4060 C.2   401  TRP401      0.2264
    121  O         -2.8330   64.7930   19.1880 O.2   401  TRP401     -0.2867
    122  CB        -2.7120   67.2580   17.2240 C.3   401  TRP401      0.0550
    123  CG        -2.7950   66.5960   15.8680 C.ar  401  TRP401      0.0003
    124  CD1       -2.1760   67.0040   14.7280 C.ar  401  TRP401      0.0946
    125  CD2       -3.5710   65.4390   15.5120 C.ar  401  TRP401      0.0152
    126  NE1       -2.5170   66.1700   13.6750 N.ar  401  TRP401     -0.2442
    127  CE2       -3.3700   65.2030   14.1340 C.ar  401  TRP401      0.0810
    128  CE3       -4.4080   64.5810   16.2230 C.ar  401  TRP401      0.0012
    129  CZ2       -3.9810   64.1380   13.4470 C.ar  401  TRP401      0.0191
    130  CZ3       -5.0160   63.5260   15.5450 C.ar  401  TRP401      0.0001
    131  CH2       -4.8020   63.3190   14.1580 C.ar  401  TRP401      0.0015
    132  N          1.7030   65.8350    5.7760 N.3   435  TRP435     -0.1241
    133  CA         0.9970   67.1160    5.7450 C.3   435  TRP435      0.1605
    134  C          1.9930   68.2590    5.8660 C.2   435  TRP435      0.2264
    135  O          3.0600   68.1080    6.4670 O.2   435  TRP435     -0.2867
    136  CB        -0.0440   67.1910    6.8690 C.3   435  TRP435      0.0550
    137  CG        -1.0220   66.0730    6.8190 C.ar  435  TRP435      0.0003
    138  CD1       -0.9450   64.9070    7.4990 C.ar  435  TRP435      0.0946
    139  CD2       -2.2010   66.0020    6.0260 C.ar  435  TRP435      0.0152
    140  NE1       -2.0020   64.0950    7.1820 N.ar  435  TRP435     -0.2442
    141  CE2       -2.7980   64.7490    6.2800 C.ar  435  TRP435      0.0810
    142  CE3       -2.8170   66.8770    5.1100 C.ar  435  TRP435      0.0012
    143  CZ2       -3.9980   64.3470    5.6680 C.ar  435  TRP435      0.0191
    144  CZ3       -4.0020   66.4850    4.5100 C.ar  435  TRP435      0.0001
    145  CH2       -4.5900   65.2380    4.8030 C.ar  435  TRP435      0.0015
    146  N          1.4680   71.7800    6.9520 N.3   437  GLU437     -0.1245
    147  CA         1.2700   73.0290    7.7080 C.3   437  GLU437      0.1567
    148  C          2.5920   73.6980    8.0530 C.2   437  GLU437      0.2260
    149  O          2.6900   74.9340    8.0530 O.2   437  GLU437     -0.2867
    150  CB         0.5020   72.8090    9.0110 C.3   437  GLU437      0.0388
    151  CG        -0.9820   72.6680    8.8290 C.3   437  GLU437      0.1160
    152  CD        -1.3910   71.2240    8.5910 C.2   437  GLU437      0.3649
    153  OE1       -0.5380   70.3840    8.1860 O.co2 437  GLU437     -0.2457
    154  OE2       -2.5760   70.9280    8.8230 O.co2 437  GLU437     -0.2457
@<TRIPOS>BOND
     1    12    13    1
     2    15    14    2
     3    13    14    1
     4    13    16    1
     5    23    22    2
     6     1     2    1
     7    16    17    1
     8     3     4    2
     9     3     2    1
    10    22    21    1
    11     2     5    1
    12    17    19   ar
    13    17    18   ar
    14    54    55    1
    15    62    60   ar
    16    62    63   ar
    17    65    63   ar
    18    65    67   ar
    19    24    21    1
    20    24    25    1
    21    21    20    1
    22    60    59   ar
    23    63    61   ar
    24     7     6    1
    25     7     8    1
    26     5     6    1
    27    67    66   ar
    28   144   145   ar
    29   144   142   ar
    30    59    61   ar
    31    59    58    1
    32   145   143   ar
    33    55    58    1
    34    55    56    1
    35    61    64   ar
    36    43    42   ar
    37     8     9    2
    38   142   139   ar
    39    57    56    2
    40    66    64   ar
    41    25    26   ar
    42    25    27   ar
    43    37    38    1
    44    10     9    1
    45     9    11    1
    46   143   141   ar
    47   133   132    1
    48   133   134    1
    49   133   136    1
    50   134   135    2
    51    26    28   ar
    52   139   141   ar
    53   139   137   ar
    54    42    44   ar
    55    42    41    1
    56    27    29   ar
    57   141   140   ar
    58    40    39    2
    59   137   136    1
    60   137   138   ar
    61    38    41    1
    62    38    39    1
    63   146   147    1
    64    28    29   ar
    65   140   138   ar
    66    39    45   am
    67   147   148    1
    68   147   150    1
    69   148   149    2
    70   153   152   ar
    71   152   154   ar
    72   152   151    1
    73    93    92    1
    74    45    46    1
    75   151   150    1
    76    74    76   ar
    77    74    73   ar
    78    48    47    2
    79    47    46    1
    80    90    92   ar
    81    90    88   ar
    82    76    77   ar
    83    92    91   ar
    84    94    95    1
    85    98    99    1
    86    98    95    1
    87    88    87   ar
    88    72    73    1
    89    72    69    1
    90    46    49    1
    91    73    75   ar
    92   100    99   ar
    93    52    51   ar
    94    99   101   ar
    95    68    69    1
    96    95    96    1
    97    83    84    1
    98    83    82    1
    99    83    86    1
   100    49    50    1
   101    84    85    2
   102    91    89   ar
   103    77    75   ar
   104    77    79   ar
   105    87    89   ar
   106    87    86    1
   107    35    34    1
   108    69    70    1
   109    75    78   ar
   110    50    51    1
   111    31    34    1
   112    31    32    1
   113    31    30    1
   114    34    36    1
   115    79    81   ar
   116    51    53   ar
   117    32    33    2
   118    78    80   ar
   119    96    97    2
   120    96   102   am
   121    81    80   ar
   122    70    71    2
   123   102   103    1
   124   116   115    1
   125   115   117    1
   126   115   114    1
   127   103   106    1
   128   103   104    1
   129   129   127   ar
   130   129   131   ar
   131   109   108    1
   132   105   104    2
   133   126   127   ar
   134   126   124   ar
   135   110   111    1
   136   106   107    1
   137   114   111    1
   138   127   125   ar
   139   131   130   ar
   140   124   123   ar
   141   111   112    1
   142   108   107    1
   143   125   123   ar
   144   125   128   ar
   145   130   128   ar
   146   113   112    2
   147   123   122    1
   148   122   119    1
   149   118   119    1
   150   119   120    1
   151   120   121    2
