@<TRIPOS>MOLECULE
tmp/5fd2B00.pdb
 154 147 0 0 0
SMALL
GASTEIGER

@<TRIPOS>ATOM
      1  N         22.1630   52.8700  -63.1020 N.3    12  THR12      -0.1203
      2  CA        21.1070   53.4860  -62.2920 C.3    12  THR12       0.1994
      3  C         19.7690   53.3640  -63.0280 C.2    12  THR12       0.2617
      4  O         19.7290   53.1340  -64.2390 O.2    12  THR12      -0.2717
      5  CB        21.4120   54.9790  -61.9840 C.3    12  THR12       0.1784
      6  OG1       22.7290   55.1040  -61.4380 O.3    12  THR12      -0.2211
      7  CG2       20.4160   55.5680  -60.9870 C.3    12  THR12       0.0376
      8  N         18.6780   53.4970  -62.2790 N.am   13  VAL13      -0.1979
      9  CA        17.3380   53.5010  -62.8510 C.3    13  VAL13       0.1595
     10  C         17.0700   54.7960  -63.6210 C.2    13  VAL13       0.2287
     11  O         17.5360   55.8740  -63.2410 O.2    13  VAL13      -0.2864
     12  CB        16.2680   53.3370  -61.7490 C.3    13  VAL13       0.0276
     13  CG1       14.8690   53.5470  -62.3100 C.3    13  VAL13       0.0022
     14  CG2       16.3860   51.9680  -61.0950 C.3    13  VAL13       0.0022
     15  N          9.0890   53.0220  -62.7350 N.3    23  ALA23      -0.1245
     16  CA        10.5150   52.9730  -62.4490 C.3    23  ALA23       0.1562
     17  C         11.0480   51.6670  -63.0250 C.2    23  ALA23       0.2260
     18  O         10.5030   50.5950  -62.7510 O.2    23  ALA23      -0.2867
     19  CB        10.7580   53.0410  -60.9510 C.3    23  ALA23       0.0290
     20  N         14.3340   49.1760  -63.6010 N.3    25  LYS25      -0.1245
     21  CA        15.6780   48.8230  -63.1520 C.3    25  LYS25       0.1561
     22  C         16.5080   48.3280  -64.3280 C.2    25  LYS25       0.2260
     23  O         16.2010   47.2910  -64.9140 O.2    25  LYS25      -0.2867
     24  CB        15.6280   47.7520  -62.0570 C.3    25  LYS25       0.0271
     25  CG        15.0090   48.2000  -60.7540 C.3    25  LYS25       0.0035
     26  CD        15.1610   47.0870  -59.7310 C.3    25  LYS25       0.0206
     27  CE        14.5920   47.4680  -58.3780 C.3    25  LYS25       0.1093
     28  NZ        13.1630   47.8550  -58.4520 N.3    25  LYS25      -0.1314
     29  N          7.7500   37.4830  -57.4590 N.3    36  LEU36      -0.1245
     30  CA         7.3920   38.9020  -57.4170 C.3    36  LEU36       0.1561
     31  C          5.9500   39.1870  -57.8470 C.2    36  LEU36       0.2260
     32  O          5.3750   40.1970  -57.4340 O.2    36  LEU36      -0.2867
     33  CB         8.3640   39.7260  -58.2650 C.3    36  LEU36       0.0270
     34  CG         9.8160   39.7160  -57.7830 C.3    36  LEU36       0.0019
     35  CD1       10.7390   40.3380  -58.8160 C.3    36  LEU36       0.0001
     36  CD2        9.9410   40.4420  -56.4520 C.3    36  LEU36       0.0001
     37  N          3.9900   39.1160  -54.8320 N.3    39  THR39      -0.1218
     38  CA         4.4320   40.1120  -53.8470 C.3    39  THR39       0.1862
     39  C          3.6080   41.3850  -54.0070 C.2    39  THR39       0.2287
     40  O          3.9720   42.2990  -54.7550 O.2    39  THR39      -0.2866
     41  CB         5.9290   40.4580  -53.9770 C.3    39  THR39       0.1770
     42  OG1        6.1870   41.0230  -55.2680 O.3    39  THR39      -0.2211
     43  CG2        6.7850   39.2230  -53.7690 C.3    39  THR39       0.0375
     44  N          7.0960   47.9240  -52.8450 N.3    45  LEU45      -0.1245
     45  CA         7.1120   48.4770  -54.1950 C.3    45  LEU45       0.1561
     46  C          6.4450   47.4790  -55.1340 C.2    45  LEU45       0.2260
     47  O          6.8520   46.3170  -55.1950 O.2    45  LEU45      -0.2867
     48  CB         8.5490   48.7620  -54.6420 C.3    45  LEU45       0.0270
     49  CG         8.7660   49.8130  -55.7300 C.3    45  LEU45       0.0019
     50  CD1        8.1680   51.1480  -55.3170 C.3    45  LEU45       0.0001
     51  CD2       10.2500   49.9650  -56.0220 C.3    45  LEU45       0.0001
     52  N          5.2870   45.3010  -58.1590 N.3    47  PHE47      -0.1241
     53  CA         5.8980   44.6960  -59.3380 C.3    47  PHE47       0.1605
     54  C          4.8680   44.5580  -60.4570 C.2    47  PHE47       0.2264
     55  O          3.8270   43.9300  -60.2650 O.2    47  PHE47      -0.2867
     56  CB         6.4500   43.3160  -58.9750 C.3    47  PHE47       0.0534
     57  CG         7.0180   42.5610  -60.1400 C.ar   47  PHE47      -0.0203
     58  CD1        8.1380   43.0360  -60.8080 C.ar   47  PHE47      -0.0042
     59  CD2        6.4410   41.3700  -60.5640 C.ar   47  PHE47      -0.0042
     60  CE1        8.6690   42.3440  -61.8820 C.ar   47  PHE47      -0.0003
     61  CE2        6.9680   40.6720  -61.6370 C.ar   47  PHE47      -0.0003
     62  CZ         8.0820   41.1610  -62.2990 C.ar   47  PHE47      -0.0000
     63  N         13.8580   44.9650  -64.5430 N.3    58  ILE58      -0.1245
     64  CA        12.6740   44.8850  -63.6820 C.3    58  ILE58       0.1561
     65  C         11.9640   46.2340  -63.6450 C.2    58  ILE58       0.2260
     66  O         12.6090   47.2810  -63.5450 O.2    58  ILE58      -0.2867
     67  CB        13.0420   44.5100  -62.2300 C.3    58  ILE58       0.0252
     68  CG1       13.9400   43.2740  -62.1950 C.3    58  ILE58       0.0019
     69  CG2       11.7860   44.2630  -61.4050 C.3    58  ILE58       0.0019
     70  CD1       14.2800   42.8190  -60.7950 C.3    58  ILE58       0.0001
     71  N          8.7720   48.6260  -61.9370 N.3    60  THR60      -0.1203
     72  CA         7.8230   48.8660  -60.8620 C.3    60  THR60       0.1994
     73  C          7.1800   50.2190  -61.0860 C.2    60  THR60       0.2618
     74  O          7.5710   50.9520  -61.9930 O.2    60  THR60      -0.2717
     75  CB         8.5180   48.8920  -59.4860 C.3    60  THR60       0.1784
     76  OG1        9.5500   49.8870  -59.4870 O.3    60  THR60      -0.2211
     77  CG2        9.1280   47.5370  -59.1560 C.3    60  THR60       0.0376
     78  N          6.1920   50.5490  -60.2630 N.am   61  GLN61      -0.1965
     79  CA         5.6400   51.8980  -60.2490 C.3    61  GLN61       0.1733
     80  C          6.7280   52.9280  -59.9780 C.2    61  GLN61       0.2616
     81  O          7.7510   52.6250  -59.3670 O.2    61  GLN61      -0.2715
     82  CB         4.5750   52.0460  -59.1640 C.3    61  GLN61       0.0408
     83  CG         3.1640   51.7100  -59.5980 C.3    61  GLN61       0.0908
     84  CD         2.1450   52.0030  -58.5130 C.2    61  GLN61       0.2608
     85  OE1        1.3110   51.1600  -58.1900 O.2    61  GLN61      -0.2717
     86  NE2        2.2170   53.1990  -57.9320 N.am   61  GLN61      -0.0878
     87  N          6.4940   54.1440  -60.4530 N.am   62  TRP62      -0.1960
     88  CA         7.2300   55.3090  -59.9940 C.3    62  TRP62       0.1771
     89  C          6.3400   55.9900  -59.0050 C.2    62  TRP62       0.2619
     90  O          5.2040   56.3350  -59.3330 O.2    62  TRP62      -0.2715
     91  CB         7.5580   56.2440  -61.1510 C.3    62  TRP62       0.0590
     92  CG         7.8590   57.6670  -60.7350 C.ar   62  TRP62       0.0006
     93  CD1        6.9470   58.6930  -60.4990 C.ar   62  TRP62       0.0946
     94  CD2        9.1770   58.2730  -60.5050 C.ar   62  TRP62       0.0152
     95  NE1        7.5890   59.8500  -60.1440 N.ar   62  TRP62      -0.2442
     96  CE2        8.9260   59.6700  -60.1300 C.ar   62  TRP62       0.0810
     97  CE3       10.4870   57.8200  -60.5690 C.ar   62  TRP62       0.0012
     98  CZ2        9.9560   60.5490  -59.8380 C.ar   62  TRP62       0.0191
     99  CZ3       11.5200   58.7180  -60.2720 C.ar   62  TRP62       0.0001
    100  CH2       11.2570   60.0500  -59.9160 C.ar   62  TRP62       0.0015
    101  N          6.8340   56.1740  -57.7830 N.am   63  CYS63      -0.1968
    102  CA         6.0900   56.8960  -56.7580 C.3    63  CYS63       0.1712
    103  C          6.7690   58.2290  -56.4780 C.2    63  CYS63       0.2296
    104  O          7.9760   58.2890  -56.2320 O.2    63  CYS63      -0.2864
    105  CB         5.9510   56.0550  -55.4890 C.3    63  CYS63       0.0983
    106  SG         4.5990   54.8540  -55.5860 S.3    63  CYS63      -0.0798
    107  N          8.1020   61.4710  -54.7970 N.3    65  GLY65      -0.1210
    108  CA         8.6730   61.7410  -53.4850 C.3    65  GLY65       0.1956
    109  C         10.1260   61.3110  -53.4260 C.2    65  GLY65       0.2612
    110  O         10.7950   61.2090  -54.4560 O.2    65  GLY65      -0.2717
    111  N         10.6180   61.0570  -52.2190 N.am   66  SER66      -0.1952
    112  CA        12.0250   60.7340  -52.0330 C.3    66  SER66       0.1924
    113  C         12.2300   59.7750  -50.8660 C.2    66  SER66       0.2314
    114  O         11.3260   59.5520  -50.0550 O.2    66  SER66      -0.2863
    115  CB        12.8360   62.0190  -51.8240 C.3    66  SER66       0.2116
    116  OG        12.5660   62.9710  -52.8520 O.3    66  SER66      -0.2180
    117  N         10.9380   54.5000  -49.4550 N.3   114  PHE114     -0.1241
    118  CA        10.4590   55.6990  -50.1290 C.3   114  PHE114      0.1605
    119  C          9.1630   56.2190  -49.5180 C.2   114  PHE114      0.2264
    120  O          8.3210   55.4450  -49.0690 O.2   114  PHE114     -0.2867
    121  CB        10.2700   55.4170  -51.6180 C.3   114  PHE114      0.0534
    122  CG        11.4710   54.7800  -52.2690 C.ar  114  PHE114     -0.0203
    123  CD1       12.6250   55.5260  -52.5130 C.ar  114  PHE114     -0.0042
    124  CD2       11.4570   53.4340  -52.6310 C.ar  114  PHE114     -0.0042
    125  CE1       13.7350   54.9420  -53.1090 C.ar  114  PHE114     -0.0003
    126  CE2       12.5630   52.8470  -53.2290 C.ar  114  PHE114     -0.0003
    127  CZ        13.7020   53.6020  -53.4690 C.ar  114  PHE114     -0.0000
    128  N         11.8650   48.6070  -51.0860 N.3   124  GLY124     -0.1210
    129  CA        12.4220   48.0560  -52.3230 C.3   124  GLY124      0.1956
    130  C         13.8880   47.6630  -52.2400 C.2   124  GLY124      0.2612
    131  O         14.5520   47.9280  -51.2410 O.2   124  GLY124     -0.2717
    132  N         14.3700   47.0240  -53.3060 N.am  125  ASP125     -0.1959
    133  CA        15.7770   46.6190  -53.4810 C.3   125  ASP125      0.1840
    134  C         16.0530   45.2300  -52.8950 C.2   125  ASP125      0.2622
    135  O         17.1520   44.9530  -52.4130 O.2   125  ASP125     -0.2715
    136  CB        16.7470   47.6720  -52.9130 C.3   125  ASP125      0.1450
    137  CG        18.1600   47.5310  -53.4630 C.2   125  ASP125      0.3671
    138  OD1       18.3390   47.6090  -54.7050 O.co2 125  ASP125     -0.2456
    139  OD2       19.0890   47.3480  -52.6370 O.co2 125  ASP125     -0.2456
    140  N         15.0590   44.3520  -52.9730 N.am  126  PHE126     -0.1960
    141  CA        15.1660   43.0000  -52.4220 C.3   126  PHE126      0.1771
    142  C         15.1850   41.9200  -53.5120 C.2   126  PHE126      0.2620
    143  O         15.0450   40.7360  -53.2080 O.2   126  PHE126     -0.2715
    144  CB        14.0150   42.7350  -51.4340 C.3   126  PHE126      0.0574
    145  CG        12.6530   42.8430  -52.0480 C.ar  126  PHE126     -0.0200
    146  CD1       12.0590   41.7470  -52.6510 C.ar  126  PHE126     -0.0042
    147  CD2       11.9720   44.0530  -52.0410 C.ar  126  PHE126     -0.0042
    148  CE1       10.8060   41.8500  -53.2350 C.ar  126  PHE126     -0.0003
    149  CE2       10.7200   44.1650  -52.6250 C.ar  126  PHE126     -0.0003
    150  CZ        10.1340   43.0600  -53.2170 C.ar  126  PHE126     -0.0000
    151  N         15.3700   42.3250  -54.7680 N.am  127  GLY127     -0.1954
    152  CA        15.3420   41.3910  -55.8930 C.3   127  GLY127      0.1869
    153  C         16.5240   40.4400  -55.9120 C.2   127  GLY127      0.2309
    154  O         16.3490   39.2190  -55.9160 O.2   127  GLY127     -0.2863
@<TRIPOS>BOND
     1    23    22    2
     2    63    64    1
     3    22    21    1
     4     4     3    2
     5    64    65    1
     6    64    67    1
     7    65    66    2
     8    10    11    2
     9    10     9    1
    10    20    21    1
    11    21    24    1
    12     1     2    1
    13     3     2    1
    14     3     8   am
    15    17    18    2
    16    17    16    1
    17     9     8    1
    18     9    12    1
    19    15    16    1
    20    16    19    1
    21    13    12    1
    22    62    60   ar
    23    62    61   ar
    24     2     5    1
    25    67    68    1
    26    67    69    1
    27    68    70    1
    28    24    25    1
    29    74    73    2
    30     5     6    1
    31     5     7    1
    32    71    72    1
    33    60    58   ar
    34    12    14    1
    35    61    59   ar
    36    91    92    1
    37    91    88    1
    38    73    72    1
    39    73    78   am
    40    72    75    1
    41    58    57   ar
    42    25    26    1
    43    92    94   ar
    44    92    93   ar
    45    97    94   ar
    46    97    99   ar
    47    59    57   ar
    48    94    96   ar
    49    93    95   ar
    50    54    55    2
    51    54    53    1
    52    87    88    1
    53    87    80   am
    54    99   100   ar
    55    78    79    1
    56    79    80    1
    57    79    82    1
    58    95    96   ar
    59    57    56    1
    60    96    98   ar
    61    88    89    1
    62    80    81    2
    63   100    98   ar
    64    26    27    1
    65    83    82    1
    66    83    84    1
    67    76    75    1
    68    75    77    1
    69    53    56    1
    70    53    52    1
    71    90    89    2
    72    89   101   am
    73    35    34    1
    74    84    85    2
    75    84    86   am
    76    28    27    1
    77    33    34    1
    78    33    30    1
    79    31    32    2
    80    31    30    1
    81    34    36    1
    82   101   102    1
    83    29    30    1
    84   102   103    1
    85   102   105    1
    86   103   104    2
    87    51    49    1
    88   154   153    2
    89   153   152    1
    90   152   151    1
    91    49    50    1
    92    49    48    1
    93   106   105    1
    94    42    41    1
    95    47    46    2
    96    46    45    1
    97    37    38    1
    98   107   108    1
    99   151   142   am
   100    40    39    2
   101   138   137   ar
   102    48    45    1
   103   110   109    2
   104    45    44    1
   105    39    38    1
   106    41    38    1
   107    41    43    1
   108   142   143    2
   109   142   141    1
   110   108   109    1
   111   133   132    1
   112   133   136    1
   113   133   134    1
   114   127   126   ar
   115   127   125   ar
   116   137   136    1
   117   137   139   ar
   118   109   111   am
   119   132   130   am
   120   148   150   ar
   121   148   146   ar
   122   126   124   ar
   123   150   149   ar
   124   125   123   ar
   125   140   134   am
   126   140   141    1
   127   134   135    2
   128   116   115    1
   129   146   145   ar
   130   124   122   ar
   131   149   147   ar
   132   123   122   ar
   133   141   144    1
   134   129   130    1
   135   129   128    1
   136   122   121    1
   137   130   131    2
   138   111   112    1
   139   145   147   ar
   140   145   144    1
   141   112   115    1
   142   112   113    1
   143   121   118    1
   144   113   114    2
   145   118   119    1
   146   118   117    1
   147   119   120    2
