@<TRIPOS>MOLECULE
tmp/5fdcA00.pdb
 136 136 0 0 0
SMALL
GASTEIGER

@<TRIPOS>ATOM
      1  N          8.3680   -0.5390   10.4040 N.3     3  TRP3       -0.1241
      2  CA         7.6060   -1.5090   11.1760 C.3     3  TRP3        0.1605
      3  C          6.5970   -2.3320   10.4000 C.2     3  TRP3        0.2264
      4  O          6.0670   -1.9070    9.3720 O.2     3  TRP3       -0.2867
      5  CB         6.9080   -0.8220   12.3590 C.3     3  TRP3        0.0550
      6  CG         5.6730   -0.0570   11.9910 C.ar    3  TRP3        0.0003
      7  CD1        5.5970    1.2490   11.6050 C.ar    3  TRP3        0.0946
      8  CD2        4.3320   -0.5600   11.9690 C.ar    3  TRP3        0.0152
      9  NE1        4.2970    1.5920   11.3450 N.ar    3  TRP3       -0.2442
     10  CE2        3.4960    0.5010   11.5630 C.ar    3  TRP3        0.0810
     11  CE3        3.7550   -1.8090   12.2520 C.ar    3  TRP3        0.0012
     12  CZ2        2.1070    0.3580   11.4350 C.ar    3  TRP3        0.0191
     13  CZ3        2.3690   -1.9520   12.1210 C.ar    3  TRP3        0.0001
     14  CH2        1.5630   -0.8720   11.7190 C.ar    3  TRP3        0.0015
     15  N        -13.8590    8.2120   12.7290 N.3    89  ILE89      -0.1231
     16  CA       -13.0010    8.6320   11.6340 C.3    89  ILE89       0.1692
     17  C        -12.6960    7.4860   10.6620 C.2    89  ILE89       0.2591
     18  O        -12.5750    7.7100    9.4580 O.2    89  ILE89      -0.2718
     19  CB       -11.6810    9.2700   12.1470 C.3    89  ILE89       0.0266
     20  CG1      -10.8210    9.6800   10.9480 C.3    89  ILE89       0.0019
     21  CG2      -10.9390    8.3090   13.0730 C.3    89  ILE89       0.0020
     22  CD1       -9.6340   10.5610   11.3050 C.3    89  ILE89       0.0001
     23  N        -12.5900    6.2570   11.1690 N.am   90  GLN90      -0.1979
     24  CA       -12.3110    5.1080   10.3040 C.3    90  GLN90       0.1601
     25  C        -12.4270    3.8050   11.0720 C.2    90  GLN90       0.2287
     26  O        -12.5570    3.8180   12.2880 O.2    90  GLN90      -0.2864
     27  CB       -10.8840    5.1870    9.7450 C.3    90  GLN90       0.0394
     28  CG        -9.7710    5.1580   10.8130 C.3    90  GLN90       0.0908
     29  CD        -9.0510    3.8160   10.8930 C.2    90  GLN90       0.2608
     30  OE1       -9.6260    2.8120   11.2930 O.2    90  GLN90      -0.2717
     31  NE2       -7.7830    3.8010   10.5070 N.am   90  GLN90      -0.0878
     32  N        -11.0020   -0.5690   10.8310 N.3    92  HIS92      -0.1241
     33  CA       -10.1300   -1.5390   10.2000 C.3    92  HIS92       0.1621
     34  C        -10.2090   -2.7990   11.0330 C.2    92  HIS92       0.2264
     35  O        -10.8570   -2.8190   12.0860 O.2    92  HIS92      -0.2867
     36  CB        -8.6750   -1.0530   10.1870 C.3    92  HIS92       0.0745
     37  CG        -8.1290   -0.7540   11.5500 C.ar   92  HIS92       0.0817
     38  ND1       -8.3020    0.4650   12.1670 N.ar   92  HIS92      -0.2268
     39  CD2       -7.4410   -1.5250   12.4270 C.ar   92  HIS92       0.1154
     40  CE1       -7.7400    0.4360   13.3630 C.ar   92  HIS92       0.1986
     41  NE2       -7.2090   -0.7600   13.5460 N.ar   92  HIS92      -0.2212
     42  N         -7.9530   -6.6180   12.3020 N.3    94  HIS94      -0.1241
     43  CA        -6.7050   -7.3250   12.5510 C.3    94  HIS94       0.1621
     44  C         -7.1740   -8.7760   12.4460 C.2    94  HIS94       0.2264
     45  O         -8.1940   -9.1370   13.0350 O.2    94  HIS94      -0.2867
     46  CB        -6.1800   -7.0590   13.9610 C.3    94  HIS94       0.0745
     47  CG        -5.8460   -5.6210   14.2070 C.ar   94  HIS94       0.0817
     48  ND1       -4.5900   -5.1030   13.9840 N.ar   94  HIS94      -0.2268
     49  CD2       -6.6180   -4.5840   14.6020 C.ar   94  HIS94       0.1154
     50  CE1       -4.6030   -3.8060   14.2330 C.ar   94  HIS94       0.1986
     51  NE2       -5.8220   -3.4660   14.6090 N.ar   94  HIS94      -0.2212
     52  N        -11.8700   -2.6570   14.6870 N.3   117  HIS117     -0.1241
     53  CA       -11.6130   -1.4480   15.4620 C.3   117  HIS117      0.1621
     54  C        -12.2860   -0.2410   14.8030 C.2   117  HIS117      0.2264
     55  O        -11.9550    0.1140   13.6600 O.2   117  HIS117     -0.2867
     56  CB       -10.0910   -1.1840   15.5700 C.3   117  HIS117      0.0745
     57  CG        -9.3780   -2.1210   16.5010 C.ar  117  HIS117      0.0817
     58  ND1       -8.0070   -2.2830   16.5000 N.ar  117  HIS117     -0.2268
     59  CD2       -9.8540   -2.9650   17.4460 C.ar  117  HIS117      0.1154
     60  CE1       -7.6720   -3.1910   17.3990 C.ar  117  HIS117      0.1986
     61  NE2       -8.7750   -3.6200   17.9870 N.ar  117  HIS117     -0.2212
     62  N        -12.5020    3.5300   15.1290 N.3   119  VAL119     -0.1245
     63  CA       -11.7330    4.6030   15.7540 C.3   119  VAL119      0.1561
     64  C        -12.4680    5.9370   15.7930 C.2   119  VAL119      0.2260
     65  O        -12.9940    6.3840   14.7780 O.2   119  VAL119     -0.2867
     66  CB       -10.3740    4.7590   15.0110 C.3   119  VAL119      0.0252
     67  CG1       -9.4530    5.7030   15.7670 C.3   119  VAL119      0.0019
     68  CG2       -9.7200    3.4030   14.8500 C.3   119  VAL119      0.0019
     69  N         -8.3920   15.0090   14.7640 N.3   128  PHE128     -0.1241
     70  CA        -7.6810   13.8030   15.1320 C.3   128  PHE128      0.1605
     71  C         -6.2350   14.0620   15.5400 C.2   128  PHE128      0.2264
     72  O         -5.7440   13.4800   16.5090 O.2   128  PHE128     -0.2867
     73  CB        -7.7350   12.7970   13.9780 C.3   128  PHE128      0.0534
     74  CG        -7.0410   11.5090   14.2780 C.ar  128  PHE128     -0.0203
     75  CD1       -5.6810   11.3660   14.0500 C.ar  128  PHE128     -0.0042
     76  CD2       -7.7420   10.4490   14.8410 C.ar  128  PHE128     -0.0042
     77  CE1       -5.0220   10.1880   14.3780 C.ar  128  PHE128     -0.0003
     78  CE2       -7.0890    9.2620   15.1780 C.ar  128  PHE128     -0.0003
     79  CZ        -5.7250    9.1330   14.9450 C.ar  128  PHE128     -0.0000
     80  N        -11.7230    3.7480   21.0010 N.3   140  VAL140     -0.1245
     81  CA       -11.7810    2.7060   19.9930 C.3   140  VAL140      0.1561
     82  C        -12.7700    1.6450   20.4600 C.2   140  VAL140      0.2260
     83  O        -12.6790    1.1390   21.5940 O.2   140  VAL140     -0.2867
     84  CB       -10.4070    2.0420   19.7440 C.3   140  VAL140      0.0252
     85  CG1      -10.5400    1.0080   18.6050 C.3   140  VAL140      0.0019
     86  CG2       -9.3720    3.0960   19.3580 C.3   140  VAL140      0.0019
     87  N         -2.8610    2.9950   21.0910 N.3   195  LEU195     -0.1231
     88  CA        -3.0690    2.5500   19.7250 C.3   195  LEU195      0.1693
     89  C         -2.2790    1.2390   19.7430 C.2   195  LEU195      0.2593
     90  O         -1.2520    1.1540   20.4340 O.2   195  LEU195     -0.2718
     91  CB        -2.4220    3.5270   18.7450 C.3   195  LEU195      0.0284
     92  CG        -3.0000    4.9390   18.6610 C.3   195  LEU195      0.0019
     93  CD1       -2.1160    5.7840   17.7530 C.3   195  LEU195      0.0001
     94  CD2       -4.4350    4.8790   18.1080 C.3   195  LEU195      0.0001
     95  N         -2.7260    0.2220   19.0100 N.am  196  THR196     -0.1939
     96  CA        -2.0050   -1.0580   19.0080 C.3   196  THR196      0.2028
     97  C         -0.9570   -1.1630   17.9020 C.2   196  THR196      0.2643
     98  O         -0.2820   -2.1930   17.7720 O.2   196  THR196     -0.2714
     99  CB        -2.9450   -2.2690   18.8570 C.3   196  THR196      0.1808
    100  OG1       -3.5800   -2.2100   17.5730 O.3   196  THR196     -0.2208
    101  CG2       -3.9920   -2.2900   19.9790 C.3   196  THR196      0.0379
    102  N         -0.8310   -0.1140   17.0980 N.am  197  THR197     -0.1937
    103  CA         0.1820   -0.0890   16.0440 C.3   197  THR197      0.2013
    104  C          1.0060    1.1680   16.2540 C.2   197  THR197      0.2484
    105  O          0.5490    2.1200   16.8810 O.2   197  THR197     -0.2729
    106  CB        -0.4220    0.0230   14.6270 C.3   197  THR197      0.1807
    107  OG1       -0.9860    1.3290   14.4530 O.3   197  THR197     -0.2208
    108  CG2       -1.5000   -1.0200   14.4070 C.3   197  THR197      0.0379
    109  N          2.2510    1.1770   15.7710 N.am  198  PRO198     -0.2715
    110  CA         3.0290    2.4050   15.9560 C.3   198  PRO198      0.1521
    111  C          2.1600    3.5350   15.4050 C.2   198  PRO198      0.2440
    112  O          1.4540    3.3420   14.4160 O.2   198  PRO198     -0.2731
    113  CB         4.2610    2.1480   15.1050 C.3   198  PRO198      0.0310
    114  CG         4.5100    0.6670   15.3520 C.3   198  PRO198      0.0237
    115  CD         3.0920    0.0670   15.2790 C.3   198  PRO198      0.0939
    116  N          2.2670    4.7490   15.9630 N.am  199  PRO199     -0.2727
    117  CA         3.1360    5.1710   17.0630 C.3   199  PRO199      0.1402
    118  C          2.7960    4.7170   18.4850 C.2   199  PRO199      0.2269
    119  O          3.4290    5.1680   19.4370 O.2   199  PRO199     -0.2865
    120  CB         3.1550    6.6910   16.9090 C.3   199  PRO199      0.0296
    121  CG         1.7750    6.9890   16.4320 C.3   199  PRO199      0.0237
    122  CD         1.5130    5.8940   15.4170 C.3   199  PRO199      0.0939
    123  N        -10.4440    2.2860   25.6130 N.3   206  TRP206     -0.1241
    124  CA       -10.9210    1.1150   24.8990 C.3   206  TRP206      0.1605
    125  C        -12.2720    0.6500   25.4060 C.2   206  TRP206      0.2264
    126  O        -12.5310    0.6320   26.6120 O.2   206  TRP206     -0.2867
    127  CB        -9.9250   -0.0550   25.0230 C.3   206  TRP206      0.0550
    128  CG        -8.7950    0.0480   24.0670 C.ar  206  TRP206      0.0003
    129  CD1       -7.5740    0.6240   24.2820 C.ar  206  TRP206      0.0946
    130  CD2       -8.8030   -0.3870   22.7070 C.ar  206  TRP206      0.0152
    131  NE1       -6.8240    0.5780   23.1320 N.ar  206  TRP206     -0.2442
    132  CE2       -7.5510   -0.0450   22.1510 C.ar  206  TRP206      0.0810
    133  CE3       -9.7490   -1.0420   21.9040 C.ar  206  TRP206      0.0012
    134  CZ2       -7.2190   -0.3300   20.8230 C.ar  206  TRP206      0.0191
    135  CZ3       -9.4190   -1.3270   20.5830 C.ar  206  TRP206      0.0001
    136  CH2       -8.1670   -0.9740   20.0580 C.ar  206  TRP206      0.0015
@<TRIPOS>BOND
     1     4     3    2
     2    18    17    2
     3    27    24    1
     4    27    28    1
     5    36    33    1
     6    36    37    1
     7    33    32    1
     8    33    34    1
     9    24    25    1
    10    24    23    1
    11     3     2    1
    12     1     2    1
    13    31    29   am
    14    17    23   am
    15    17    16    1
    16    28    29    1
    17    29    30    2
    18    20    22    1
    19    20    19    1
    20    34    35    2
    21    25    26    2
    22     2     5    1
    23     9    10   ar
    24     9     7   ar
    25    12    10   ar
    26    12    14   ar
    27    37    38   ar
    28    37    39   ar
    29    10     8   ar
    30     7     6   ar
    31    16    19    1
    32    16    15    1
    33    14    13   ar
    34     8     6   ar
    35     8    11   ar
    36     6     5    1
    37    13    11   ar
    38    19    21    1
    39    38    40   ar
    40    42    43    1
    41    39    41   ar
    42    44    43    1
    43    44    45    2
    44    43    46    1
    45    40    41   ar
    46    55    54    2
    47    46    47    1
    48    73    74    1
    49    73    70    1
    50    48    47   ar
    51    48    50   ar
    52    75    74   ar
    53    75    77   ar
    54    47    49   ar
    55    50    51   ar
    56    74    76   ar
    57    77    79   ar
    58   108   106    1
    59   112   111    2
    60   107   106    1
    61    49    51   ar
    62   106   103    1
    63    52    53    1
    64    69    70    1
    65    65    64    2
    66    54    53    1
    67    76    78   ar
    68    68    66    1
    69    79    78   ar
    70    66    63    1
    71    66    67    1
    72   113   114    1
    73   113   110    1
    74    62    63    1
    75    70    71    1
    76   115   114    1
    77   115   109    1
    78   111   110    1
    79   111   116   am
    80   122   116    1
    81   122   121    1
    82    53    56    1
    83    71    72    2
    84    56    57    1
    85    63    64    1
    86   109   110    1
    87   109   104   am
    88   116   117    1
    89   103   104    1
    90   103   102    1
    91   104   105    2
    92   121   120    1
    93    58    57   ar
    94    58    60   ar
    95    57    59   ar
    96   120   117    1
    97   117   118    1
    98   102    97   am
    99    60    61   ar
   100    59    61   ar
   101   100    99    1
   102    93    92    1
   103    98    97    2
   104    97    96    1
   105    94    92    1
   106   118   119    2
   107    85    84    1
   108    92    91    1
   109    91    88    1
   110    99    96    1
   111    99   101    1
   112    96    95    1
   113    95    89   am
   114    86    84    1
   115    88    89    1
   116    88    87    1
   117    89    90    2
   118    84    81    1
   119    81    82    1
   120    81    80    1
   121   136   135   ar
   122   136   134   ar
   123    82    83    2
   124   135   133   ar
   125   134   132   ar
   126   133   130   ar
   127   132   130   ar
   128   132   131   ar
   129   130   128   ar
   130   131   129   ar
   131   128   129   ar
   132   128   127    1
   133   124   127    1
   134   124   125    1
   135   124   123    1
   136   125   126    2
