@<TRIPOS>MOLECULE
tmp/5fdgA00.pdb
 179 172 0 0 0
SMALL
GASTEIGER

@<TRIPOS>ATOM
      1  N          4.5420   40.3610    7.1330 N.3    25  THR25      -0.1218
      2  CA         3.9030   39.9910    8.3900 C.3    25  THR25       0.1862
      3  C          4.0810   41.1010    9.4140 C.2    25  THR25       0.2287
      4  O          3.1450   41.4650   10.1260 O.2    25  THR25      -0.2866
      5  CB         4.4910   38.6940    8.9760 C.3    25  THR25       0.1770
      6  OG1        4.1890   37.5970    8.1090 O.3    25  THR25      -0.2211
      7  CG2        3.8880   38.4160   10.3260 C.3    25  THR25       0.0375
      8  N          1.1680   43.8060   10.9400 N.3    29  TYR29      -0.1241
      9  CA         0.8650   43.8080   12.3730 C.3    29  TYR29       0.1605
     10  C          1.4110   45.0390   13.1130 C.2    29  TYR29       0.2264
     11  O          1.3710   45.1080   14.3380 O.2    29  TYR29      -0.2867
     12  CB         1.3310   42.5010   13.0370 C.3    29  TYR29       0.0534
     13  CG         0.4100   41.3270   12.7610 C.ar   29  TYR29      -0.0201
     14  CD1       -0.6800   41.0730   13.5830 C.ar   29  TYR29      -0.0009
     15  CD2        0.6210   40.4870   11.6710 C.ar   29  TYR29      -0.0009
     16  CE1       -1.5310   40.0120   13.3350 C.ar   29  TYR29       0.0417
     17  CE2       -0.2270   39.4220   11.4120 C.ar   29  TYR29       0.0417
     18  CZ        -1.3020   39.1910   12.2490 C.ar   29  TYR29       0.1957
     19  OH        -2.1510   38.1390   12.0040 O.3    29  TYR29      -0.2866
     20  N         12.8150   39.8040   16.7580 N.3    39  LYS39      -0.1245
     21  CA        11.4950   39.3120   16.3900 C.3    39  LYS39       0.1561
     22  C         11.4420   39.0120   14.8870 C.2    39  LYS39       0.2260
     23  O         10.8830   38.0110   14.4610 O.2    39  LYS39      -0.2867
     24  CB        10.4240   40.3170   16.7840 C.3    39  LYS39       0.0271
     25  CG         9.0130   39.8030   16.6010 C.3    39  LYS39       0.0035
     26  CD         7.9970   40.8360   17.0500 C.3    39  LYS39       0.0206
     27  CE         8.2340   41.2670   18.4960 C.3    39  LYS39       0.1093
     28  NZ         7.1530   42.1730   18.9860 N.3    39  LYS39      -0.1314
     29  N         12.9840   35.7420   14.4350 N.3    42  ALA42      -0.1231
     30  CA        12.0900   34.7080   14.9410 C.3    42  ALA42       0.1694
     31  C         10.9810   34.3840   13.9460 C.2    42  ALA42       0.2591
     32  O         10.6190   33.2240   13.7490 O.2    42  ALA42      -0.2718
     33  CB        11.4840   35.1440   16.2590 C.3    42  ALA42       0.0304
     34  N         10.4380   35.4240   13.3300 N.am   43  ILE43      -0.1980
     35  CA         9.3980   35.2800   12.3220 C.3    43  ILE43       0.1595
     36  C          9.9210   34.5380   11.0960 C.2    43  ILE43       0.2287
     37  O          9.2500   33.6370   10.5760 O.2    43  ILE43      -0.2864
     38  CB         8.8210   36.6610   11.9250 C.3    43  ILE43       0.0276
     39  CG1        8.0620   37.2590   13.1100 C.3    43  ILE43       0.0022
     40  CG2        7.8820   36.5430   10.7020 C.3    43  ILE43       0.0022
     41  CD1        7.6970   38.7210   12.9210 C.3    43  ILE43       0.0001
     42  N         10.4550   30.7840   12.1730 N.3    46  HIS46      -0.1226
     43  CA         9.1650   30.1140   12.2800 C.3    46  HIS46       0.1752
     44  C          8.5890   29.8060   10.9000 C.2    46  HIS46       0.2595
     45  O          8.1070   28.6870   10.6430 O.2    46  HIS46      -0.2718
     46  CB         8.2060   30.9790   13.1070 C.3    46  HIS46       0.0759
     47  CG         6.8150   30.4270   13.2060 C.ar   46  HIS46       0.0818
     48  ND1        5.7980   30.8280   12.3650 N.ar   46  HIS46      -0.2268
     49  CD2        6.2630   29.5340   14.0650 C.ar   46  HIS46       0.1154
     50  CE1        4.6830   30.1940   12.6880 C.ar   46  HIS46       0.1986
     51  NE2        4.9370   29.4050   13.7190 N.ar   46  HIS46      -0.2212
     52  N          8.6610   30.7970   10.0100 N.am   47  LEU47      -0.1980
     53  CA         8.1930   30.6220    8.6380 C.3    47  LEU47       0.1596
     54  C          8.9190   29.4790    7.9540 C.2    47  LEU47       0.2287
     55  O          8.2950   28.6160    7.3340 O.2    47  LEU47      -0.2864
     56  CB         8.4200   31.9030    7.8250 C.3    47  LEU47       0.0297
     57  CG         7.2350   32.8300    7.5610 C.3    47  LEU47       0.0022
     58  CD1        7.6880   33.9960    6.7050 C.3    47  LEU47       0.0001
     59  CD2        6.1050   32.0740    6.8750 C.3    47  LEU47       0.0001
     60  N          0.1340   29.7870    7.5080 N.3    65  GLU65      -0.1245
     61  CA         1.1170   30.8110    7.8870 C.3    65  GLU65       0.1567
     62  C          1.7350   31.4870    6.6740 C.2    65  GLU65       0.2260
     63  O          1.9540   30.8580    5.6450 O.2    65  GLU65      -0.2867
     64  CB         2.2370   30.1970    8.7330 C.3    65  GLU65       0.0388
     65  CG         3.2170   31.2160    9.3520 C.3    65  GLU65       0.1160
     66  CD         2.5100   32.2010   10.2650 C.2    65  GLU65       0.3649
     67  OE1        2.1550   33.2930    9.7590 O.co2  65  GLU65      -0.2457
     68  OE2        2.2800   31.8710   11.4690 O.co2  65  GLU65      -0.2457
     69  N         -3.6730   38.0680    6.7660 N.3    69  ARG69      -0.1245
     70  CA        -4.6440   37.5630    7.7350 C.3    69  ARG69       0.1563
     71  C         -6.0100   37.2030    7.1350 C.2    69  ARG69       0.2260
     72  O         -6.5960   36.1540    7.4550 O.2    69  ARG69      -0.2867
     73  CB        -4.8160   38.5720    8.8750 C.3    69  ARG69       0.0307
     74  CG        -5.7410   38.1000    9.9650 C.3    69  ARG69       0.0489
     75  CD        -5.7870   39.0570   11.1450 C.3    69  ARG69       0.2205
     76  NE        -6.8040   38.6140   12.0930 N.pl3  69  ARG69      -0.0865
     77  CZ        -6.5950   37.7140   13.0490 C.cat  69  ARG69       0.5346
     78  NH1       -7.5860   37.3600   13.8570 N.pl3  69  ARG69       0.1354
     79  NH2       -5.3940   37.1690   13.2030 N.pl3  69  ARG69       0.1354
     80  N         -7.9640   30.4710   16.9130 N.3    90  PHE90      -0.1227
     81  CA        -6.8100   31.2290   16.4580 C.3    90  PHE90       0.1736
     82  C         -6.3370   30.6650   15.1280 C.2    90  PHE90       0.2595
     83  O         -6.5430   29.4830   14.8480 O.2    90  PHE90      -0.2718
     84  CB        -5.6840   31.1380   17.4870 C.3    90  PHE90       0.0547
     85  CG        -6.0460   31.7090   18.8320 C.ar   90  PHE90      -0.0202
     86  CD1       -6.6660   30.9260   19.7880 C.ar   90  PHE90      -0.0042
     87  CD2       -5.7680   33.0290   19.1330 C.ar   90  PHE90      -0.0042
     88  CE1       -7.0000   31.4510   21.0160 C.ar   90  PHE90      -0.0003
     89  CE2       -6.0980   33.5570   20.3580 C.ar   90  PHE90      -0.0003
     90  CZ        -6.7150   32.7670   21.3020 C.ar   90  PHE90      -0.0000
     91  N         -5.7140   31.5120   14.3130 N.am   91  LEU91      -0.1966
     92  CA        -5.0950   31.0680   13.0730 C.3    91  LEU91       0.1713
     93  C         -4.0280   30.0260   13.3570 C.2    91  LEU91       0.2458
     94  O         -3.1130   30.2660   14.1450 O.2    91  LEU91      -0.2730
     95  CB        -4.4310   32.2330   12.3470 C.3    91  LEU91       0.0310
     96  CG        -5.2450   33.1030   11.3950 C.3    91  LEU91       0.0022
     97  CD1       -4.3220   34.0930   10.7310 C.3    91  LEU91       0.0001
     98  CD2       -5.9500   32.2530   10.3620 C.3    91  LEU91       0.0001
     99  N         -4.1410   28.8650   12.7120 N.am   92  PRO92      -0.2716
    100  CA        -3.1400   27.8030   12.8210 C.3    92  PRO92       0.1536
    101  C         -2.0770   27.9850   11.7410 C.2    92  PRO92       0.2598
    102  O         -2.1550   28.9310   10.9590 O.2    92  PRO92      -0.2715
    103  CB        -3.9650   26.5410   12.5640 C.3    92  PRO92       0.0310
    104  CG        -4.9890   26.9960   11.5790 C.3    92  PRO92       0.0237
    105  CD        -5.3330   28.4270   11.9640 C.3    92  PRO92       0.0939
    106  N         -1.0910   27.0940   11.6870 N.am   93  ASP93      -0.1972
    107  CA        -0.0120   27.2330   10.7070 C.3    93  ASP93       0.1709
    108  C         -0.2170   26.3730    9.4690 C.2    93  ASP93       0.2293
    109  O          0.1210   26.7870    8.3560 O.2    93  ASP93      -0.2864
    110  CB         1.3180   26.8830   11.3400 C.3    93  ASP93       0.1436
    111  CG         1.7560   27.9320   12.3350 C.2    93  ASP93       0.3671
    112  OD1        1.7340   29.1210   11.9600 O.co2  93  ASP93      -0.2456
    113  OD2        2.0910   27.5680   13.4790 O.co2  93  ASP93      -0.2456
    114  N         -0.5460   23.7280   14.7290 N.3   104  GLU104     -0.1231
    115  CA         0.1870   24.8770   15.2420 C.3   104  GLU104      0.1699
    116  C          1.6370   24.4730   15.4500 C.2   104  GLU104      0.2592
    117  O          1.9290   23.5440   16.2020 O.2   104  GLU104     -0.2718
    118  CB        -0.3850   25.3460   16.5860 C.3   104  GLU104      0.0402
    119  CG         0.4700   26.4470   17.2380 C.3   104  GLU104      0.1161
    120  CD         0.5950   27.6670   16.3320 C.2   104  GLU104      0.3649
    121  OE1       -0.4330   28.0650   15.7480 O.co2 104  GLU104     -0.2457
    122  OE2        1.7170   28.2000   16.1720 O.co2 104  GLU104     -0.2457
    123  N          2.5410   25.1700   14.7810 N.am  105  ILE105     -0.1966
    124  CA         3.9640   24.9040   14.9140 C.3   105  ILE105      0.1727
    125  C          4.5480   25.9780   15.8130 C.2   105  ILE105      0.2617
    126  O          4.3680   27.1640   15.5560 O.2   105  ILE105     -0.2715
    127  CB         4.6650   25.0220   13.5560 C.3   105  ILE105      0.0290
    128  CG1        4.1290   23.9800   12.5710 C.3   105  ILE105      0.0022
    129  CG2        6.1830   24.8940   13.7190 C.3   105  ILE105      0.0023
    130  CD1        4.4090   22.5720   12.9960 C.3   105  ILE105      0.0001
    131  N          5.2380   25.5710   16.8700 N.am  106  GLY106     -0.1940
    132  CA         5.9040   26.5320   17.7330 C.3   106  GLY106      0.2014
    133  C          7.4010   26.3710   17.5970 C.2   106  GLY106      0.2638
    134  O          7.8920   25.2590   17.4660 O.2   106  GLY106     -0.2714
    135  N          8.1290   27.4790   17.5890 N.am  107  VAL107     -0.1977
    136  CA         9.5850   27.4240   17.6470 C.3   107  VAL107      0.1596
    137  C         10.0380   28.3170   18.7960 C.2   107  VAL107      0.2287
    138  O          9.7470   29.5070   18.7980 O.2   107  VAL107     -0.2864
    139  CB        10.2110   27.9310   16.3360 C.3   107  VAL107      0.0276
    140  CG1       11.7230   27.9360   16.4460 C.3   107  VAL107      0.0022
    141  CG2        9.7460   27.0730   15.1600 C.3   107  VAL107      0.0022
    142  N          6.5270   26.0170   27.1340 N.3   115  TYR115     -0.1241
    143  CA         6.0350   26.6280   25.9030 C.3   115  TYR115      0.1605
    144  C          4.8410   25.8430   25.3490 C.2   115  TYR115      0.2264
    145  O          3.8130   26.4260   24.9680 O.2   115  TYR115     -0.2867
    146  CB         7.1460   26.7240   24.8530 C.3   115  TYR115      0.0534
    147  CG         6.7590   27.5770   23.6630 C.ar  115  TYR115     -0.0201
    148  CD1        6.9680   28.9550   23.6730 C.ar  115  TYR115     -0.0009
    149  CD2        6.1700   27.0090   22.5390 C.ar  115  TYR115     -0.0009
    150  CE1        6.6070   29.7400   22.5870 C.ar  115  TYR115      0.0417
    151  CE2        5.8110   27.7840   21.4520 C.ar  115  TYR115      0.0417
    152  CZ         6.0280   29.1470   21.4820 C.ar  115  TYR115      0.1957
    153  OH         5.6630   29.9180   20.3990 O.3   115  TYR115     -0.2866
    154  N          0.9630   27.2220   24.9300 N.3   119  LYS119     -0.1245
    155  CA         0.2650   27.1870   23.6430 C.3   119  LYS119      0.1561
    156  C         -1.0420   26.4070   23.7580 C.2   119  LYS119      0.2260
    157  O         -2.0880   26.8640   23.2990 O.2   119  LYS119     -0.2867
    158  CB         1.1550   26.5980   22.5440 C.3   119  LYS119      0.0271
    159  CG         2.0630   27.6180   21.8630 C.3   119  LYS119      0.0035
    160  CD         1.5780   27.9170   20.4440 C.3   119  LYS119      0.0206
    161  CE         2.6250   28.6630   19.6180 C.3   119  LYS119      0.1093
    162  NZ         2.9100   30.0090   20.2180 N.3   119  LYS119     -0.1314
    163  N         -3.6460   28.3960   25.5380 N.3   122  LYS122     -0.1231
    164  CA        -4.2190   29.4900   24.7610 C.3   122  LYS122      0.1693
    165  C         -5.1040   29.0460   23.5920 C.2   122  LYS122      0.2591
    166  O         -6.0990   29.7050   23.2940 O.2   122  LYS122     -0.2718
    167  CB        -3.1370   30.4540   24.2740 C.3   122  LYS122      0.0285
    168  CG        -3.7100   31.6650   23.5560 C.3   122  LYS122      0.0035
    169  CD        -2.7260   32.8120   23.4640 C.3   122  LYS122      0.0206
    170  CE        -3.4180   34.0540   22.9290 C.3   122  LYS122      0.1093
    171  NZ        -2.5280   35.2430   22.9420 N.3   122  LYS122     -0.1314
    172  N         -4.7500   27.9440   22.9310 N.am  123  ILE123     -0.1980
    173  CA        -5.5210   27.4920   21.7720 C.3   123  ILE123      0.1595
    174  C         -6.9880   27.2740   22.1280 C.2   123  ILE123      0.2287
    175  O         -7.8740   27.6210   21.3450 O.2   123  ILE123     -0.2864
    176  CB        -4.9200   26.2280   21.0730 C.3   123  ILE123      0.0276
    177  CG1       -4.4860   25.1750   22.0940 C.3   123  ILE123      0.0022
    178  CG2       -3.7390   26.6150   20.1990 C.3   123  ILE123      0.0022
    179  CD1       -5.5520   24.1650   22.4870 C.3   123  ILE123      0.0001
@<TRIPOS>BOND
     1    63    62    2
     2    62    61    1
     3    58    57    1
     4    69    70    1
     5    59    57    1
     6     1     2    1
     7    71    72    2
     8    71    70    1
     9    55    54    2
    10    60    61    1
    11    57    56    1
    12    70    73    1
    13    56    53    1
    14    61    64    1
    15    54    53    1
    16     6     5    1
    17   109   108    2
    18     2     5    1
    19     2     3    1
    20    53    52    1
    21    64    65    1
    22    73    74    1
    23     5     7    1
    24    65    66    1
    25     3     4    2
    26   108   107    1
    27    67    66   ar
    28    74    75    1
    29    52    44   am
    30    66    68   ar
    31    98    96    1
    32    37    36    2
    33    45    44    2
    34    40    38    1
    35   107   110    1
    36   107   106    1
    37    97    96    1
    38    44    43    1
    39     8     9    1
    40   102   101    2
    41    36    35    1
    42    75    76    1
    43   110   111    1
    44    96    95    1
    45    17    15   ar
    46    17    18   ar
    47   104   105    1
    48   104   103    1
    49    15    13   ar
    50   106   101   am
    51   101   100    1
    52    38    35    1
    53    38    39    1
    54   112   111   ar
    55   105    99    1
    56    19    18    1
    57    76    77    2
    58    42    43    1
    59    18    16   ar
    60    43    46    1
    61    35    34    1
    62   111   113   ar
    63    95    92    1
    64    48    50   ar
    65    48    47   ar
    66     9    12    1
    67     9    10    1
    68   103   100    1
    69   128   130    1
    70   128   127    1
    71    50    51   ar
    72    99   100    1
    73    99    93   am
    74    13    12    1
    75    13    14   ar
    76    41    39    1
    77    77    79    1
    78    77    78    1
    79    92    93    1
    80    92    91    1
    81    46    47    1
    82    10    11    2
    83    47    49   ar
    84    34    31   am
    85    16    14   ar
    86    93    94    2
    87   127   129    1
    88   127   124    1
    89    51    49   ar
    90    32    31    2
    91    31    30    1
    92    91    82   am
    93    29    30    1
    94    23    22    2
    95   114   115    1
    96   123   124    1
    97   123   116   am
    98    83    82    2
    99    22    21    1
   100   124   125    1
   101    30    33    1
   102    82    81    1
   103   141   139    1
   104   115   116    1
   105   115   118    1
   106   116   117    2
   107   126   125    2
   108   121   120   ar
   109   125   131   am
   110   122   120   ar
   111   120   119    1
   112   139   140    1
   113   139   136    1
   114    21    20    1
   115    21    24    1
   116    81    80    1
   117    81    84    1
   118   118   119    1
   119    25    24    1
   120    25    26    1
   121   131   132    1
   122    26    27    1
   123   134   133    2
   124    84    85    1
   125   135   133   am
   126   135   136    1
   127   133   132    1
   128   136   137    1
   129    27    28    1
   130   137   138    2
   131    85    87   ar
   132    85    86   ar
   133    87    89   ar
   134   161   162    1
   135   161   160    1
   136    86    88   ar
   137   178   176    1
   138    89    90   ar
   139   153   152    1
   140   160   159    1
   141    88    90   ar
   142   176   173    1
   143   176   177    1
   144   175   174    2
   145   151   152   ar
   146   151   149   ar
   147   152   150   ar
   148   173   174    1
   149   173   172    1
   150   159   158    1
   151   177   179    1
   152   149   147   ar
   153   158   155    1
   154   150   148   ar
   155   170   171    1
   156   170   169    1
   157   172   165   am
   158   166   165    2
   159   157   156    2
   160   169   168    1
   161   168   167    1
   162   165   164    1
   163   155   156    1
   164   155   154    1
   165   147   148   ar
   166   147   146    1
   167   167   164    1
   168   164   163    1
   169   146   143    1
   170   145   144    2
   171   144   143    1
   172   143   142    1
