@<TRIPOS>MOLECULE
tmp/5fdiA00.pdb
 144 143 0 0 0
SMALL
GASTEIGER

@<TRIPOS>ATOM
      1  N          8.3040   -0.4480   10.4330 N.3     3  TRP3       -0.1241
      2  CA         7.6360   -1.4170   11.2830 C.3     3  TRP3        0.1605
      3  C          6.6370   -2.2370   10.4920 C.2     3  TRP3        0.2264
      4  O          6.0810   -1.7760    9.4840 O.2     3  TRP3       -0.2867
      5  CB         6.9040   -0.7190   12.4480 C.3     3  TRP3        0.0550
      6  CG         5.6430    0.0320   12.0360 C.ar    3  TRP3        0.0003
      7  CD1        5.5470    1.3480   11.6630 C.ar    3  TRP3        0.0946
      8  CD2        4.3020   -0.4930   11.9910 C.ar    3  TRP3        0.0152
      9  NE1        4.2410    1.6680   11.3970 N.ar    3  TRP3       -0.2442
     10  CE2        3.4560    0.5590   11.5880 C.ar    3  TRP3        0.0810
     11  CE3        3.7390   -1.7570   12.2540 C.ar    3  TRP3        0.0012
     12  CZ2        2.0740    0.3960   11.4420 C.ar    3  TRP3        0.0191
     13  CZ3        2.3550   -1.9180   12.1070 C.ar    3  TRP3        0.0001
     14  CH2        1.5420   -0.8460   11.7070 C.ar    3  TRP3        0.0015
     15  N         -8.0940    0.3600    5.7210 N.3    65  ASN65      -0.1240
     16  CA        -8.9070    1.3030    6.4740 C.3    65  ASN65       0.1653
     17  C        -10.0970    1.8110    5.6900 C.2    65  ASN65       0.2266
     18  O         -9.9580    2.1960    4.5260 O.2    65  ASN65      -0.2867
     19  CB        -8.1130    2.5590    6.8970 C.3    65  ASN65       0.1155
     20  CG        -6.9210    2.2520    7.7620 C.2    65  ASN65       0.2627
     21  OD1       -6.9410    1.3290    8.5710 O.2    65  ASN65      -0.2716
     22  ND2       -5.8600    3.0420    7.5980 N.am   65  ASN65      -0.0877
     23  N        -13.7130    8.1950   12.7820 N.3    89  ILE89      -0.1231
     24  CA       -12.8280    8.6030   11.7020 C.3    89  ILE89       0.1692
     25  C        -12.5380    7.4520   10.7350 C.2    89  ILE89       0.2591
     26  O        -12.4770    7.6560    9.5230 O.2    89  ILE89      -0.2718
     27  CB       -11.4970    9.2160   12.2240 C.3    89  ILE89       0.0266
     28  CG1      -10.6160    9.5900   11.0260 C.3    89  ILE89       0.0019
     29  CG2      -10.7580    8.2630   13.1450 C.3    89  ILE89       0.0020
     30  CD1       -9.4740   10.5660   11.3800 C.3    89  ILE89       0.0001
     31  N        -12.4030    6.2300   11.2490 N.am   90  GLN90      -0.1979
     32  CA       -12.1400    5.1120   10.3600 C.3    90  GLN90       0.1601
     33  C        -12.2890    3.8090   11.1120 C.2    90  GLN90       0.2287
     34  O        -12.3880    3.8320   12.3220 O.2    90  GLN90      -0.2864
     35  CB       -10.7080    5.1920    9.8360 C.3    90  GLN90       0.0394
     36  CG        -9.6290    5.1280   10.9250 C.3    90  GLN90       0.0908
     37  CD        -8.8870    3.7860   10.9470 C.2    90  GLN90       0.2608
     38  OE1       -9.4320    2.7700   11.3560 O.2    90  GLN90      -0.2717
     39  NE2       -7.6430    3.7890   10.4900 N.am   90  GLN90      -0.0878
     40  N        -10.8850   -0.5380   10.8530 N.3    92  HIS92      -0.1241
     41  CA       -10.0040   -1.4790   10.2070 C.3    92  HIS92       0.1621
     42  C        -10.1230   -2.7560   11.0390 C.2    92  HIS92       0.2264
     43  O        -10.8170   -2.7740   12.0660 O.2    92  HIS92      -0.2867
     44  CB        -8.5430   -0.9960   10.2320 C.3    92  HIS92       0.0745
     45  CG        -8.0290   -0.7340   11.6200 C.ar   92  HIS92       0.0817
     46  ND1       -8.2280    0.4630   12.2660 N.ar   92  HIS92      -0.2268
     47  CD2       -7.4060   -1.5430   12.5120 C.ar   92  HIS92       0.1154
     48  CE1       -7.7460    0.3850   13.4970 C.ar   92  HIS92       0.1986
     49  NE2       -7.2370   -0.8230   13.6700 N.ar   92  HIS92      -0.2212
     50  N         -7.8750   -6.5630   12.3840 N.3    94  HIS94      -0.1241
     51  CA        -6.6170   -7.2770   12.6080 C.3    94  HIS94       0.1621
     52  C         -7.0950   -8.7290   12.4720 C.2    94  HIS94       0.2264
     53  O         -8.1280   -9.0730   13.0270 O.2    94  HIS94      -0.2867
     54  CB        -6.0830   -7.0470   14.0280 C.3    94  HIS94       0.0745
     55  CG        -5.7430   -5.6190   14.2990 C.ar   94  HIS94       0.0817
     56  ND1       -4.4820   -5.1090   14.0950 N.ar   94  HIS94      -0.2268
     57  CD2       -6.5180   -4.5750   14.6710 C.ar   94  HIS94       0.1154
     58  CE1       -4.4970   -3.8090   14.3360 C.ar   94  HIS94       0.1986
     59  NE2       -5.7210   -3.4610   14.6830 N.ar   94  HIS94      -0.2212
     60  N        -11.7930   -2.6060   14.7690 N.3   117  HIS117     -0.1241
     61  CA       -11.5240   -1.4020   15.5590 C.3   117  HIS117      0.1621
     62  C        -12.1910   -0.2180   14.8660 C.2   117  HIS117      0.2264
     63  O        -11.8730    0.0680   13.7060 O.2   117  HIS117     -0.2867
     64  CB        -9.9860   -1.1790   15.6500 C.3   117  HIS117      0.0745
     65  CG        -9.3090   -2.1520   16.5670 C.ar  117  HIS117      0.0817
     66  ND1       -7.9400   -2.3330   16.6060 N.ar  117  HIS117     -0.2268
     67  CD2       -9.8250   -2.9950   17.4870 C.ar  117  HIS117      0.1154
     68  CE1       -7.6470   -3.2490   17.5110 C.ar  117  HIS117      0.1986
     69  NE2       -8.7720   -3.6660   18.0600 N.ar  117  HIS117     -0.2212
     70  N        -12.4280    3.5520   15.1620 N.3   119  VAL119     -0.1245
     71  CA       -11.6380    4.6030   15.7930 C.3   119  VAL119      0.1561
     72  C        -12.3650    5.9410   15.8200 C.2   119  VAL119      0.2260
     73  O        -12.8880    6.4210   14.7870 O.2   119  VAL119     -0.2867
     74  CB       -10.2750    4.7300   15.0730 C.3   119  VAL119      0.0252
     75  CG1       -9.3430    5.7060   15.8410 C.3   119  VAL119      0.0019
     76  CG2       -9.6320    3.3620   14.9310 C.3   119  VAL119      0.0019
     77  N         -8.1590   14.9610   14.7740 N.3   128  PHE128     -0.1241
     78  CA        -7.4720   13.7360   15.1600 C.3   128  PHE128      0.1605
     79  C         -6.0450   14.0050   15.6440 C.2   128  PHE128      0.2264
     80  O         -5.6240   13.4680   16.6570 O.2   128  PHE128     -0.2867
     81  CB        -7.4160   12.7550   13.9850 C.3   128  PHE128      0.0534
     82  CG        -6.8090   11.4380   14.3340 C.ar  128  PHE128     -0.0203
     83  CD1       -7.5830   10.4340   14.9070 C.ar  128  PHE128     -0.0042
     84  CD2       -5.4650   11.1930   14.0910 C.ar  128  PHE128     -0.0042
     85  CE1       -7.0280    9.2130   15.2260 C.ar  128  PHE128     -0.0003
     86  CE2       -4.9010    9.9820   14.4010 C.ar  128  PHE128     -0.0003
     87  CZ        -5.6780    8.9800   14.9710 C.ar  128  PHE128     -0.0000
     88  N        -11.6270    3.7530   21.0710 N.3   140  VAL140     -0.1245
     89  CA       -11.7090    2.7310   20.0260 C.3   140  VAL140      0.1561
     90  C        -12.7060    1.6670   20.4790 C.2   140  VAL140      0.2260
     91  O        -12.6140    1.1490   21.6090 O.2   140  VAL140     -0.2867
     92  CB       -10.3470    2.0460   19.7290 C.3   140  VAL140      0.0252
     93  CG1      -10.5400    0.9980   18.5980 C.3   140  VAL140      0.0019
     94  CG2       -9.3400    3.0750   19.2990 C.3   140  VAL140      0.0019
     95  N         -2.8750    2.9990   21.1590 N.3   195  LEU195     -0.1231
     96  CA        -3.0310    2.5650   19.7830 C.3   195  LEU195      0.1693
     97  C         -2.2680    1.2360   19.8020 C.2   195  LEU195      0.2593
     98  O         -1.2580    1.1160   20.5100 O.2   195  LEU195     -0.2718
     99  CB        -2.3020    3.5190   18.8380 C.3   195  LEU195      0.0284
    100  CG        -2.9430    4.9080   18.7160 C.3   195  LEU195      0.0019
    101  CD1       -2.1440    5.7630   17.7350 C.3   195  LEU195      0.0001
    102  CD2       -4.3990    4.7460   18.2340 C.3   195  LEU195      0.0001
    103  N         -2.7040    0.2410   19.0410 N.am  196  THR196     -0.1939
    104  CA        -1.9750   -1.0350   19.0320 C.3   196  THR196      0.2028
    105  C         -0.9500   -1.1580   17.9050 C.2   196  THR196      0.2643
    106  O         -0.2980   -2.2060   17.7540 O.2   196  THR196     -0.2714
    107  CB        -2.8880   -2.2270   18.8980 C.3   196  THR196      0.1808
    108  OG1       -3.5490   -2.1260   17.6330 O.3   196  THR196     -0.2208
    109  CG2       -3.8990   -2.3010   20.0720 C.3   196  THR196      0.0379
    110  N         -0.8320   -0.1120   17.1000 N.am  197  THR197     -0.1937
    111  CA         0.1740   -0.0530   16.0380 C.3   197  THR197      0.2013
    112  C          1.0030    1.2010   16.2840 C.2   197  THR197      0.2484
    113  O          0.5260    2.1630   16.8930 O.2   197  THR197     -0.2729
    114  CB        -0.4330    0.1510   14.6320 C.3   197  THR197      0.1807
    115  OG1       -1.1740    1.3860   14.6140 O.3   197  THR197     -0.2208
    116  CG2       -1.3530   -1.0130   14.2580 C.3   197  THR197      0.0379
    117  N          2.2550    1.2110   15.8130 N.am  198  PRO198     -0.2715
    118  CA         3.0530    2.4260   16.0220 C.3   198  PRO198      0.1521
    119  C          2.2080    3.5690   15.4880 C.2   198  PRO198      0.2440
    120  O          1.5030    3.4050   14.4830 O.2   198  PRO198     -0.2731
    121  CB         4.2660    2.1800   15.1490 C.3   198  PRO198      0.0310
    122  CG         4.4970    0.6840   15.3480 C.3   198  PRO198      0.0237
    123  CD         3.0640    0.1180   15.2320 C.3   198  PRO198      0.0939
    124  N          2.3250    4.7680   16.0630 N.am  199  PRO199     -0.2727
    125  CA         3.1570    5.2350   17.1600 C.3   199  PRO199      0.1402
    126  C          2.7820    4.7690   18.5720 C.2   199  PRO199      0.2269
    127  O          3.3680    5.2500   19.5350 O.2   199  PRO199     -0.2865
    128  CB         3.1140    6.7580   16.9890 C.3   199  PRO199      0.0296
    129  CG         1.7390    6.9930   16.5290 C.3   199  PRO199      0.0237
    130  CD         1.5300    5.8800   15.5070 C.3   199  PRO199      0.0939
    131  N        -10.4130    2.3040   25.6190 N.3   206  TRP206     -0.1241
    132  CA       -10.8620    1.1140   24.9130 C.3   206  TRP206      0.1605
    133  C        -12.2300    0.6850   25.4380 C.2   206  TRP206      0.2264
    134  O        -12.5040    0.7340   26.6550 O.2   206  TRP206     -0.2867
    135  CB        -9.8320   -0.0600   25.0880 C.3   206  TRP206      0.0550
    136  CG        -8.6710    0.0300   24.1250 C.ar  206  TRP206      0.0003
    137  CD1       -7.4380    0.6080   24.3350 C.ar  206  TRP206      0.0946
    138  CD2       -8.6870   -0.3850   22.7550 C.ar  206  TRP206      0.0152
    139  NE1       -6.7050    0.5810   23.1730 N.ar  206  TRP206     -0.2442
    140  CE2       -7.4480   -0.0250   22.1910 C.ar  206  TRP206      0.0810
    141  CE3       -9.6400   -1.0220   21.9480 C.ar  206  TRP206      0.0012
    142  CZ2       -7.1370   -0.2770   20.8540 C.ar  206  TRP206      0.0191
    143  CZ3       -9.3280   -1.2770   20.6120 C.ar  206  TRP206      0.0001
    144  CH2       -8.0960   -0.9050   20.0800 C.ar  206  TRP206      0.0015
@<TRIPOS>BOND
     1    18    17    2
     2    17    16    1
     3    15    16    1
     4    16    19    1
     5    19    20    1
     6    22    20   am
     7    20    21    2
     8     4     3    2
     9    26    25    2
    10    35    32    1
    11    35    36    1
    12    41    44    1
    13    41    40    1
    14    41    42    1
    15    44    45    1
    16    32    33    1
    17    32    31    1
    18     1     2    1
    19    39    37   am
    20     3     2    1
    21    25    31   am
    22    25    24    1
    23    36    37    1
    24    37    38    2
    25    28    30    1
    26    28    27    1
    27    42    43    2
    28    33    34    2
    29     2     5    1
    30     9    10   ar
    31     9     7   ar
    32    12    10   ar
    33    12    14   ar
    34    10     8   ar
    35    45    46   ar
    36    45    47   ar
    37     7     6   ar
    38    24    27    1
    39    24    23    1
    40    14    13   ar
    41     8     6   ar
    42     8    11   ar
    43     6     5    1
    44    13    11   ar
    45    27    29    1
    46    46    48   ar
    47    50    51    1
    48    52    51    1
    49    52    53    2
    50    47    49   ar
    51    51    54    1
    52    48    49   ar
    53    63    62    2
    54    81    82    1
    55    81    78    1
    56    54    55    1
    57    84    82   ar
    58    84    86   ar
    59    56    55   ar
    60    56    58   ar
    61   116   114    1
    62    55    57   ar
    63    82    83   ar
    64    58    59   ar
    65    86    87   ar
    66   120   119    2
    67   115   114    1
    68   114   111    1
    69    57    59   ar
    70    60    61    1
    71    77    78    1
    72    73    72    2
    73    62    61    1
    74    83    85   ar
    75    76    74    1
    76    87    85   ar
    77    74    71    1
    78    74    75    1
    79   121   122    1
    80   121   118    1
    81    78    79    1
    82    70    71    1
    83   123   122    1
    84   123   117    1
    85   119   118    1
    86   119   124   am
    87   130   124    1
    88   130   129    1
    89    61    64    1
    90    79    80    2
    91    64    65    1
    92    71    72    1
    93   117   118    1
    94   117   112   am
    95   111   112    1
    96   111   110    1
    97   124   125    1
    98   112   113    2
    99   129   128    1
   100    65    66   ar
   101    65    67   ar
   102    66    68   ar
   103   128   125    1
   104   110   105   am
   105   125   126    1
   106    67    69   ar
   107    68    69   ar
   108   108   107    1
   109   101   100    1
   110   106   105    2
   111   105   104    1
   112   102   100    1
   113   126   127    2
   114    93    92    1
   115   100    99    1
   116    99    96    1
   117   107   104    1
   118   107   109    1
   119   104   103    1
   120   103    97   am
   121    94    92    1
   122    92    89    1
   123    96    97    1
   124    96    95    1
   125    97    98    2
   126    89    90    1
   127    89    88    1
   128   144   143   ar
   129   144   142   ar
   130    90    91    2
   131   143   141   ar
   132   142   140   ar
   133   141   138   ar
   134   140   138   ar
   135   140   139   ar
   136   138   136   ar
   137   139   137   ar
   138   136   137   ar
   139   136   135    1
   140   132   135    1
   141   132   133    1
   142   132   131    1
   143   133   134    2
