@<TRIPOS>MOLECULE
tmp/5fdlA00.pdb
 186 182 0 0 0
SMALL
GASTEIGER

@<TRIPOS>ATOM
      1  N        129.8160   21.9860  331.2670 N.3    91  PRO91      -0.2102
      2  CA       129.0550   21.8930  330.0190 C.3    91  PRO91       0.1504
      3  C        127.5700   21.6870  330.2480 C.2    91  PRO91       0.2575
      4  O        127.1930   20.9550  331.1660 O.2    91  PRO91      -0.2718
      5  CB       129.6360   20.6450  329.3320 C.3    91  PRO91       0.0282
      6  CG       130.8980   20.3320  330.0520 C.3    91  PRO91       0.0208
      7  CD       130.6670   20.7970  331.4550 C.3    91  PRO91       0.0893
      8  N        126.7460   22.3360  329.4280 N.am   92  HIS92      -0.1976
      9  CA       125.3150   22.0950  329.4410 C.3    92  HIS92       0.1656
     10  C        124.9930   20.9870  328.4380 C.2    92  HIS92       0.2291
     11  O        125.5170   21.0090  327.3230 O.2    92  HIS92      -0.2864
     12  CB       124.5400   23.3650  329.1070 C.3    92  HIS92       0.0771
     13  CG       123.1470   23.3620  329.6470 C.ar   92  HIS92       0.0820
     14  ND1      122.0590   22.9750  328.8980 N.ar   92  HIS92      -0.2267
     15  CD2      122.6690   23.6580  330.8790 C.ar   92  HIS92       0.1154
     16  CE1      120.9690   23.0470  329.6390 C.ar   92  HIS92       0.1986
     17  NE2      121.3110   23.4620  330.8440 N.ar   92  HIS92      -0.2212
     18  N        125.8670   19.4710  323.8210 N.3    96  LEU96      -0.1231
     19  CA       126.4790   18.2130  323.4000 C.3    96  LEU96       0.1693
     20  C        125.9020   17.7770  322.0630 C.2    96  LEU96       0.2591
     21  O        124.7940   18.1720  321.7110 O.2    96  LEU96      -0.2718
     22  CB       126.2350   17.1100  324.4330 C.3    96  LEU96       0.0284
     23  CG       126.6780   17.3570  325.8780 C.3    96  LEU96       0.0019
     24  CD1      126.2720   16.1820  326.7540 C.3    96  LEU96       0.0001
     25  CD2      128.1730   17.6010  325.9800 C.3    96  LEU96       0.0001
     26  N        126.6650   16.9660  321.3330 N.am   97  LYS97      -0.1980
     27  CA       126.2460   16.4110  320.0400 C.3    97  LYS97       0.1596
     28  C        125.7680   14.9710  320.2430 C.2    97  LYS97       0.2287
     29  O        126.2240   14.2940  321.1630 O.2    97  LYS97      -0.2864
     30  CB       127.4100   16.4370  319.0350 C.3    97  LYS97       0.0298
     31  CG       127.6320   17.7600  318.3030 C.3    97  LYS97       0.0038
     32  CD       128.0910   18.9080  319.1940 C.3    97  LYS97       0.0206
     33  CE       129.5270   18.7590  319.6680 C.3    97  LYS97       0.1093
     34  NZ       129.8470   19.7760  320.7070 N.3    97  LYS97      -0.1314
     35  N        125.6930   11.1430  319.9390 N.3    99  ASN99      -0.1240
     36  CA       126.6530   10.0520  319.6820 C.3    99  ASN99       0.1653
     37  C        125.9590    8.6840  319.6470 C.2    99  ASN99       0.2266
     38  O        124.9360    8.4810  320.3170 O.2    99  ASN99      -0.2867
     39  CB       127.7530   10.0330  320.7560 C.3    99  ASN99       0.1155
     40  CG       128.6340   11.2770  320.7350 C.2    99  ASN99       0.2627
     41  OD1      128.7390   11.9680  319.7210 O.2    99  ASN99      -0.2716
     42  ND2      129.2840   11.5580  321.8600 N.am   99  ASN99      -0.0877
     43  N        128.1310    5.4980  323.9090 N.3   102  VAL102     -0.1245
     44  CA       128.6770    6.3550  324.9680 C.3   102  VAL102      0.1561
     45  C        129.1370    5.4830  326.1320 C.2   102  VAL102      0.2260
     46  O        128.3970    4.5990  326.5780 O.2   102  VAL102     -0.2867
     47  CB       127.6300    7.3600  325.5020 C.3   102  VAL102      0.0252
     48  CG1      128.2610    8.2950  326.5310 C.3   102  VAL102      0.0019
     49  CG2      127.0140    8.1640  324.3640 C.3   102  VAL102      0.0019
     50  N        131.3610    5.6260  330.0580 N.3   104  VAL104     -0.1245
     51  CA       131.8860    6.4010  331.1800 C.3   104  VAL104      0.1561
     52  C        133.0580    5.6270  331.7850 C.2   104  VAL104      0.2260
     53  O        132.8660    4.5370  332.3330 O.2   104  VAL104     -0.2867
     54  CB       130.8030    6.6320  332.2600 C.3   104  VAL104      0.0252
     55  CG1      131.3520    7.4440  333.4290 C.3   104  VAL104      0.0019
     56  CG2      129.5930    7.3320  331.6600 C.3   104  VAL104      0.0019
     57  N        135.4580   11.2720  320.6350 N.3   175  VAL175     -0.1245
     58  CA       135.4790   12.4600  321.5130 C.3   175  VAL175      0.1561
     59  C        135.4240   12.1010  323.0020 C.2   175  VAL175      0.2260
     60  O        134.5320   11.3730  323.4520 O.2   175  VAL175     -0.2867
     61  CB       134.3550   13.4800  321.1790 C.3   175  VAL175      0.0252
     62  CG1      134.6750   14.2110  319.8810 C.3   175  VAL175      0.0019
     63  CG2      132.9770   12.8220  321.1100 C.3   175  VAL175      0.0019
     64  N        135.4280   13.7500  326.8010 N.3   177  CYS177     -0.1235
     65  CA       135.2290   14.9070  327.6740 C.3   177  CYS177      0.1677
     66  C        135.7930   14.6160  329.0690 C.2   177  CYS177      0.2270
     67  O        135.5420   13.5490  329.6340 O.2   177  CYS177     -0.2867
     68  CB       133.7410   15.2500  327.7680 C.3   177  CYS177      0.0956
     69  SG       133.3580   16.5940  328.9170 S.3   177  CYS177     -0.0801
     70  N        136.3060   11.5520  335.9830 N.3   182  ASP182     -0.1239
     71  CA       135.6990   10.8050  334.8770 C.3   182  ASP182      0.1674
     72  C        136.2200   11.2150  333.5060 C.2   182  ASP182      0.2266
     73  O        136.6580   12.3520  333.3020 O.2   182  ASP182     -0.2867
     74  CB       134.1710   10.9470  334.8850 C.3   182  ASP182      0.1410
     75  CG       133.5240   10.3590  336.1280 C.2   182  ASP182      0.3668
     76  OD1      134.2110    9.6990  336.9390 O.co2 182  ASP182     -0.2456
     77  OD2      132.3080   10.5630  336.2950 O.co2 182  ASP182     -0.2456
     78  N        134.3750   10.7920  329.7840 N.3   184  TYR184     -0.1227
     79  CA       133.1940   10.3870  329.0290 C.3   184  TYR184      0.1736
     80  C        133.6080   10.2760  327.5670 C.2   184  TYR184      0.2595
     81  O        134.0280   11.2630  326.9620 O.2   184  TYR184     -0.2718
     82  CB       132.0580   11.3950  329.2230 C.3   184  TYR184      0.0548
     83  CG       131.8130   11.7330  330.6800 C.ar  184  TYR184     -0.0200
     84  CD1      131.5250   10.7310  331.6050 C.ar  184  TYR184     -0.0009
     85  CD2      131.8850   13.0500  331.1400 C.ar  184  TYR184     -0.0009
     86  CE1      131.3050   11.0300  332.9430 C.ar  184  TYR184      0.0417
     87  CE2      131.6690   13.3560  332.4760 C.ar  184  TYR184      0.0417
     88  CZ       131.3800   12.3440  333.3730 C.ar  184  TYR184      0.1957
     89  OH       131.1670   12.6410  334.6950 O.3   184  TYR184     -0.2866
     90  N        133.5060    9.0640  327.0200 N.am  185  VAL185     -0.1966
     91  CA       133.9890    8.7550  325.6750 C.3   185  VAL185      0.1727
     92  C        132.8000    8.3780  324.7990 C.2   185  VAL185      0.2616
     93  O        132.0120    7.4910  325.1540 O.2   185  VAL185     -0.2715
     94  CB       135.0050    7.5880  325.6780 C.3   185  VAL185      0.0290
     95  CG1      135.7410    7.5060  324.3430 C.3   185  VAL185      0.0023
     96  CG2      136.0070    7.7390  326.8170 C.3   185  VAL185      0.0023
     97  N        132.6730    9.0790  323.6710 N.am  186  GLY186     -0.1955
     98  CA       131.5750    8.8760  322.7270 C.3   186  GLY186      0.1869
     99  C        132.0640    8.8880  321.2940 C.2   186  GLY186      0.2309
    100  O        133.0640    9.5400  320.9780 O.2   186  GLY186     -0.2863
    101  N        128.6530    1.8610  334.9830 N.3   219  LYS219     -0.1245
    102  CA       127.4230    2.4700  334.4670 C.3   219  LYS219      0.1561
    103  C        127.2400    2.2500  332.9600 C.2   219  LYS219      0.2260
    104  O        128.1930    1.9380  332.2350 O.2   219  LYS219     -0.2867
    105  CB       127.4150    3.9700  334.7780 C.3   219  LYS219      0.0271
    106  CG       127.4450    4.2420  336.2760 C.3   219  LYS219      0.0035
    107  CD       127.4060    5.7320  336.5790 C.3   219  LYS219      0.0206
    108  CE       126.0090    6.2780  336.3960 C.3   219  LYS219      0.1093
    109  NZ       125.8940    7.6830  336.9170 N.3   219  LYS219     -0.1314
    110  N        124.1390    3.8430  329.6770 N.3   221  PRO221     -0.2116
    111  CA       123.0440    4.8070  329.4540 C.3   221  PRO221      0.1372
    112  C        121.6600    4.3060  329.9140 C.2   221  PRO221      0.2244
    113  O        121.3660    3.1270  329.7130 O.2   221  PRO221     -0.2868
    114  CB       123.0500    4.9970  327.9320 C.3   221  PRO221      0.0268
    115  CG       124.4370    4.6700  327.5110 C.3   221  PRO221      0.0207
    116  CD       124.8760    3.5700  328.4260 C.3   221  PRO221      0.0892
    117  N        122.6660    7.9640  331.8940 N.3   223  PHE223     -0.1227
    118  CA       123.5430    8.3470  333.0110 C.3   223  PHE223      0.1736
    119  C        122.9570    9.4710  333.8370 C.2   223  PHE223      0.2595
    120  O        122.2970   10.3560  333.3050 O.2   223  PHE223     -0.2718
    121  CB       124.9040    8.8170  332.5080 C.3   223  PHE223      0.0547
    122  CG       125.5610    7.8630  331.5670 C.ar  223  PHE223     -0.0202
    123  CD1      126.0560    6.6510  332.0250 C.ar  223  PHE223     -0.0042
    124  CD2      125.6880    8.1740  330.2220 C.ar  223  PHE223     -0.0042
    125  CE1      126.6640    5.7630  331.1530 C.ar  223  PHE223     -0.0003
    126  CE2      126.2950    7.2910  329.3470 C.ar  223  PHE223     -0.0003
    127  CZ       126.7830    6.0820  329.8100 C.ar  223  PHE223     -0.0000
    128  N        123.2380    9.4410  335.1330 N.am  224  LEU224     -0.1966
    129  CA       122.8870   10.5210  336.0380 C.3   224  LEU224      0.1728
    130  C        124.1450   11.3540  336.2700 C.2   224  LEU224      0.2616
    131  O        125.1970   10.8030  336.5900 O.2   224  LEU224     -0.2715
    132  CB       122.3470    9.9500  337.3480 C.3   224  LEU224      0.0311
    133  CG       121.3050    8.8310  337.1980 C.3   224  LEU224      0.0022
    134  CD1      120.7790    8.4110  338.5630 C.3   224  LEU224      0.0001
    135  CD2      120.1570    9.2440  336.2870 C.3   224  LEU224      0.0001
    136  N        124.0380   12.6710  336.0990 N.am  225  TRP225     -0.1974
    137  CA       125.2070   13.5630  336.1080 C.3   225  TRP225      0.1640
    138  C        124.8000   15.0000  336.4410 C.2   225  TRP225      0.2290
    139  O        123.9640   15.5740  335.7500 O.2   225  TRP225     -0.2864
    140  CB       125.8840   13.5150  334.7320 C.3   225  TRP225      0.0576
    141  CG       127.1140   14.3580  334.6080 C.ar  225  TRP225      0.0006
    142  CD1      128.3750   14.0230  334.9910 C.ar  225  TRP225      0.0946
    143  CD2      127.2000   15.6710  334.0480 C.ar  225  TRP225      0.0152
    144  NE1      129.2460   15.0490  334.7140 N.ar  225  TRP225     -0.2442
    145  CE2      128.5490   16.0740  334.1350 C.ar  225  TRP225      0.0810
    146  CE3      126.2670   16.5490  333.4860 C.ar  225  TRP225      0.0012
    147  CZ2      128.9910   17.3190  333.6790 C.ar  225  TRP225      0.0191
    148  CZ3      126.7050   17.7890  333.0330 C.ar  225  TRP225      0.0001
    149  CH2      128.0560   18.1610  333.1330 C.ar  225  TRP225      0.0015
    150  N        121.2350   11.6810  331.1120 N.3   230  LEU230     -0.1231
    151  CA       121.8250   11.7410  329.7790 C.3   230  LEU230      0.1693
    152  C        121.6250   10.4290  329.0300 C.2   230  LEU230      0.2592
    153  O        122.3380    9.4560  329.2680 O.2   230  LEU230     -0.2718
    154  CB       123.3080   12.0940  329.8840 C.3   230  LEU230      0.0284
    155  CG       123.6010   13.4310  330.5800 C.3   230  LEU230      0.0019
    156  CD1      125.0870   13.5630  330.8910 C.3   230  LEU230      0.0001
    157  CD2      123.1170   14.6100  329.7460 C.3   230  LEU230      0.0001
    158  N        120.6350   10.4230  328.1370 N.am  231  HIS231     -0.1962
    159  CA       120.3640    9.3060  327.2250 C.3   231  HIS231      0.1772
    160  C        121.1880    9.5370  325.9510 C.2   231  HIS231      0.2462
    161  O        121.7350   10.6240  325.7700 O.2   231  HIS231     -0.2730
    162  CB       118.8660    9.2440  326.8970 C.3   231  HIS231      0.0785
    163  CG       117.9820    9.0670  328.0940 C.ar  231  HIS231      0.0821
    164  ND1      117.2110    7.9410  328.2850 N.ar  231  HIS231     -0.2267
    165  CD2      117.7340    9.8750  329.1530 C.ar  231  HIS231      0.1154
    166  CE1      116.5300    8.0610  329.4110 C.ar  231  HIS231      0.1986
    167  NE2      116.8300    9.2250  329.9580 N.ar  231  HIS231     -0.2212
    168  N        121.2890    8.5270  325.0620 N.am  232  PRO232     -0.2727
    169  CA       122.1550    8.6890  323.8720 C.3   232  PRO232      0.1402
    170  C        121.6500    9.6850  322.8170 C.2   232  PRO232      0.2269
    171  O        122.4680   10.3300  322.1490 O.2   232  PRO232     -0.2865
    172  CB       122.2180    7.2730  323.2700 C.3   232  PRO232      0.0296
    173  CG       121.5870    6.3600  324.2760 C.3   232  PRO232      0.0237
    174  CD       120.6540    7.1970  325.0890 C.3   232  PRO232      0.0939
    175  N        119.7850   17.1700  321.3200 N.3   314  TYR314     -0.1241
    176  CA       121.1800   17.6050  321.2540 C.3   314  TYR314      0.1605
    177  C        121.4250   18.5220  320.0530 C.2   314  TYR314      0.2264
    178  O        120.5760   18.6770  319.1790 O.2   314  TYR314     -0.2867
    179  CB       122.1180   16.3820  321.2330 C.3   314  TYR314      0.0534
    180  CG       122.1210   15.5740  322.5310 C.ar  314  TYR314     -0.0201
    181  CD1      122.3850   16.1820  323.7630 C.ar  314  TYR314     -0.0009
    182  CD2      121.8660   14.1980  322.5270 C.ar  314  TYR314     -0.0009
    183  CE1      122.3790   15.4500  324.9430 C.ar  314  TYR314      0.0417
    184  CE2      121.8650   13.4620  323.7040 C.ar  314  TYR314      0.0417
    185  CZ       122.1200   14.0930  324.9050 C.ar  314  TYR314      0.1957
    186  OH       122.1200   13.3660  326.0690 O.3   314  TYR314     -0.2866
@<TRIPOS>BOND
     1    31    30    1
     2    31    32    1
     3    30    27    1
     4   178   177    2
     5    32    33    1
     6    37    36    1
     7    37    38    2
     8    33    34    1
     9    36    35    1
    10    36    39    1
    11    41    40    2
    12    62    61    1
    13    27    28    1
    14    27    26    1
    15   177   176    1
    16    28    29    2
    17    57    58    1
    18    40    39    1
    19    40    42   am
    20   100    99    2
    21    63    61    1
    22    61    58    1
    23   179   176    1
    24   179   180    1
    25   176   175    1
    26    99    98    1
    27    26    20   am
    28    58    59    1
    29    21    20    2
    30    20    19    1
    31   171   170    2
    32   182   180   ar
    33   182   184   ar
    34   180   181   ar
    35    98    97    1
    36   170   169    1
    37    59    60    2
    38   172   169    1
    39   172   173    1
    40    19    18    1
    41    19    22    1
    42    97    92   am
    43   184   185   ar
    44   181   183   ar
    45   169   168    1
    46    43    44    1
    47   173   174    1
    48    95    94    1
    49    49    47    1
    50    22    23    1
    51    92    93    2
    52    92    91    1
    53   185   183   ar
    54   185   186    1
    55    44    47    1
    56    44    45    1
    57   168   174    1
    58   168   160   am
    59    47    48    1
    60    91    94    1
    61    91    90    1
    62    94    96    1
    63   161   160    2
    64    23    25    1
    65    23    24    1
    66   160   159    1
    67    45    46    2
    68    64    65    1
    69   162   159    1
    70   162   163    1
    71    81    80    2
    72    90    80   am
    73   159   158    1
    74    11    10    2
    75   115   114    1
    76   115   116    1
    77    80    79    1
    78    65    68    1
    79    65    66    1
    80    68    69    1
    81   114   111    1
    82   163   164   ar
    83   163   165   ar
    84   158   152   am
    85   164   166   ar
    86   116   110    1
    87    10     9    1
    88    14    16   ar
    89    14    13   ar
    90    79    82    1
    91    79    78    1
    92   152   153    2
    93   152   151    1
    94    66    67    2
    95    12     9    1
    96    12    13    1
    97   165   167   ar
    98    82    83    1
    99     5     2    1
   100     5     6    1
   101   126   127   ar
   102   126   124   ar
   103   166   167   ar
   104     8     9    1
   105     8     3   am
   106   111   110    1
   107   111   112    1
   108    16    17   ar
   109    13    15   ar
   110   113   112    2
   111   157   155    1
   112   151   154    1
   113   151   150    1
   114   127   125   ar
   115   154   155    1
   116     2     3    1
   117     2     1    1
   118     6     7    1
   119    50    51    1
   120   124   122   ar
   121     3     4    2
   122   155   156    1
   123    83    85   ar
   124    83    84   ar
   125    17    15   ar
   126    85    87   ar
   127   125   123   ar
   128    51    52    1
   129    51    54    1
   130     1     7    1
   131   122   123   ar
   132   122   121    1
   133    84    86   ar
   134    56    54    1
   135    52    53    2
   136   117   118    1
   137   104   103    2
   138    54    55    1
   139    87    88   ar
   140   121   118    1
   141    86    88   ar
   142   103   102    1
   143   118   119    1
   144   148   149   ar
   145   148   146   ar
   146   149   147   ar
   147    73    72    2
   148   120   119    2
   149    88    89    1
   150   146   143   ar
   151    72    71    1
   152   147   145   ar
   153   119   128   am
   154   143   145   ar
   155   143   141   ar
   156   145   144   ar
   157   102   105    1
   158   102   101    1
   159   141   140    1
   160   141   142   ar
   161   144   142   ar
   162   140   137    1
   163   105   106    1
   164    71    74    1
   165    71    70    1
   166    74    75    1
   167   128   129    1
   168   139   138    2
   169   129   130    1
   170   129   132    1
   171   136   137    1
   172   136   130   am
   173   137   138    1
   174    75    77   ar
   175    75    76   ar
   176   130   131    2
   177   106   107    1
   178   135   133    1
   179   108   107    1
   180   108   109    1
   181   133   132    1
   182   133   134    1
