@<TRIPOS>MOLECULE
tmp/5fdnA01.pdb
 117 110 0 0 0
SMALL
GASTEIGER

@<TRIPOS>ATOM
      1  N        116.9010   77.1260   44.2640 N.3    99  ILE99      -0.1245
      2  CA       116.1420   77.2300   43.0220 C.3    99  ILE99       0.1561
      3  C        117.0770   77.5820   41.8730 C.2    99  ILE99       0.2260
      4  O        117.0220   76.9740   40.7940 O.2    99  ILE99      -0.2867
      5  CB       115.0050   78.2660   43.1730 C.3    99  ILE99       0.0252
      6  CG1      113.9710   77.8090   44.2110 C.3    99  ILE99       0.0019
      7  CG2      114.3290   78.5100   41.8360 C.3    99  ILE99       0.0019
      8  CD1      113.0880   78.9280   44.7010 C.3    99  ILE99       0.0001
      9  N        119.3040   74.3750   40.8610 N.3   102  ARG102     -0.1245
     10  CA       118.7180   73.0530   40.7050 C.3   102  ARG102      0.1563
     11  C        118.8510   72.6080   39.2490 C.2   102  ARG102      0.2260
     12  O        118.3070   73.2400   38.3400 O.2   102  ARG102     -0.2867
     13  CB       117.2630   73.0840   41.1570 C.3   102  ARG102      0.0307
     14  CG       116.4940   71.8140   40.9280 C.3   102  ARG102      0.0489
     15  CD       115.1300   71.9050   41.6170 C.3   102  ARG102      0.2205
     16  NE       115.3360   71.3450   42.9220 N.pl3 102  ARG102     -0.0865
     17  CZ       115.0030   71.8940   44.0750 C.cat 102  ARG102      0.5346
     18  NH1      114.3500   73.0390   44.1450 N.pl3 102  ARG102      0.1354
     19  NH2      115.3160   71.2370   45.1680 N.pl3 102  ARG102      0.1354
     20  N        118.5160   70.9600   35.7030 N.3   104  ARG104     -0.1245
     21  CA       117.3620   70.5500   34.9030 C.3   104  ARG104      0.1563
     22  C        117.4790   69.0830   34.4820 C.2   104  ARG104      0.2260
     23  O        118.4970   68.6660   33.9210 O.2   104  ARG104     -0.2867
     24  CB       117.2490   71.4280   33.6570 C.3   104  ARG104      0.0307
     25  CG       116.9610   72.9140   33.9440 C.3   104  ARG104      0.0489
     26  CD       115.5630   73.1050   34.5530 C.3   104  ARG104      0.2205
     27  NE       115.2310   74.5190   34.7420 N.pl3 104  ARG104     -0.0865
     28  CZ       115.0850   75.1390   35.9190 C.cat 104  ARG104      0.5346
     29  NH1      115.2300   74.4690   37.0780 N.pl3 104  ARG104      0.1354
     30  NH2      114.7720   76.4430   35.9310 N.pl3 104  ARG104      0.1354
     31  N        103.9200   74.3000   34.7650 N.3   117  SER117     -0.1202
     32  CA       103.6110   74.8590   36.0830 C.3   117  SER117      0.2020
     33  C        104.7900   74.8140   37.0410 C.2   117  SER117      0.2619
     34  O        104.6660   75.2960   38.1670 O.2   117  SER117     -0.2717
     35  CB       102.4240   74.1290   36.7220 C.3   117  SER117      0.2103
     36  OG       102.6560   72.7370   36.7100 O.3   117  SER117     -0.2182
     37  N        105.9300   74.2710   36.6220 N.am  118  SER118     -0.1937
     38  CA       107.0930   74.1490   37.4890 C.3   118  SER118      0.2055
     39  C        108.3480   74.5290   36.7230 C.2   118  SER118      0.2643
     40  O        108.5510   74.0590   35.6000 O.2   118  SER118     -0.2714
     41  CB       107.2390   72.7180   38.0270 C.3   118  SER118      0.2130
     42  OG       108.3810   72.6080   38.8720 O.3   118  SER118     -0.2179
     43  N        109.2050   75.3420   37.3510 N.am  119  ALA119     -0.1963
     44  CA       110.5160   75.6380   36.7710 C.3   119  ALA119      0.1728
     45  C        111.3330   74.3770   36.5100 C.2   119  ALA119      0.2616
     46  O        112.1820   74.3720   35.6140 O.2   119  ALA119     -0.2715
     47  CB       111.2940   76.5930   37.6810 C.3   119  ALA119      0.0334
     48  N        111.0880   73.2910   37.2540 N.am  120  THR120     -0.1951
     49  CA       111.8390   72.0580   37.0240 C.3   120  THR120      0.1897
     50  C        111.4840   71.4110   35.6960 C.2   120  THR120      0.2313
     51  O        112.2590   70.5870   35.1970 O.2   120  THR120     -0.2863
     52  CB       111.6070   71.0410   38.1480 C.3   120  THR120      0.1794
     53  OG1      110.2300   70.6300   38.1550 O.3   120  THR120     -0.2208
     54  CG2      111.9690   71.6460   39.5090 C.3   120  THR120      0.0378
     55  N        107.6900   82.6070   39.8910 N.3   627  GLY627     -0.1210
     56  CA       108.1260   81.2380   39.7090 C.3   627  GLY627      0.1956
     57  C        107.4390   80.5320   38.5540 C.2   627  GLY627      0.2612
     58  O        106.6570   81.1240   37.8000 O.2   627  GLY627     -0.2717
     59  N        107.7510   79.2490   38.4110 N.am  628  GLY628     -0.1942
     60  CA       107.1100   78.3840   37.4550 C.3   628  GLY628      0.1998
     61  C        105.6030   78.5220   37.3070 C.2   628  GLY628      0.2480
     62  O        105.1090   78.5860   36.1840 O.2   628  GLY628     -0.2729
     63  N        104.8330   78.5560   38.4100 N.am  629  PRO629     -0.2726
     64  CA       103.3600   78.6000   38.2540 C.3   629  PRO629      0.1402
     65  C        102.8780   79.7090   37.3390 C.2   629  PRO629      0.2269
     66  O        101.8450   79.5570   36.6740 O.2   629  PRO629     -0.2865
     67  CB       102.8500   78.8050   39.6930 C.3   629  PRO629      0.0296
     68  CG       103.9110   78.1740   40.5600 C.3   629  PRO629      0.0237
     69  CD       105.2270   78.4660   39.8360 C.3   629  PRO629      0.0939
     70  N        111.5320   87.4250   45.1370 N.3   657  GLN657     -0.1245
     71  CA       111.6770   86.0890   44.5840 C.3   657  GLN657      0.1566
     72  C        111.7500   86.1290   43.0590 C.2   657  GLN657      0.2260
     73  O        112.4600   85.3160   42.4520 O.2   657  GLN657     -0.2867
     74  CB       110.5260   85.1910   45.0590 C.3   657  GLN657      0.0367
     75  CG       110.6800   83.7160   44.6590 C.3   657  GLN657      0.0905
     76  CD       109.5260   82.8170   45.1340 C.2   657  GLN657      0.2608
     77  OE1      109.4010   81.6730   44.6840 O.2   657  GLN657     -0.2717
     78  NE2      108.6820   83.3350   46.0390 N.am  657  GLN657     -0.0878
     79  N        103.8040   68.8690   43.7870 N.3   850  ASP850     -0.1239
     80  CA       104.9260   69.8140   43.8430 C.3   850  ASP850      0.1674
     81  C        105.7450   69.6150   45.1130 C.2   850  ASP850      0.2266
     82  O        105.6500   70.3990   46.0680 O.2   850  ASP850     -0.2867
     83  CB       104.4230   71.2530   43.7600 C.3   850  ASP850      0.1410
     84  CG       105.5460   72.2460   43.5230 C.2   850  ASP850      0.3668
     85  OD1      106.7430   71.8950   43.7020 O.co2 850  ASP850     -0.2456
     86  OD2      105.2110   73.3860   43.1500 O.co2 850  ASP850     -0.2456
     87  N        108.8100   70.2420   45.5640 N.3   852  TYR852     -0.1227
     88  CA       109.7550   71.3490   45.7460 C.3   852  TYR852      0.1736
     89  C        109.1450   72.4790   46.5630 C.2   852  TYR852      0.2595
     90  O        109.7750   72.9980   47.4960 O.2   852  TYR852     -0.2718
     91  CB       110.2190   71.8740   44.3840 C.3   852  TYR852      0.0548
     92  CG       110.5330   70.7570   43.4400 C.ar  852  TYR852     -0.0200
     93  CD1      111.7910   70.1730   43.4330 C.ar  852  TYR852     -0.0009
     94  CD2      109.5590   70.2570   42.5810 C.ar  852  TYR852     -0.0009
     95  CE1      112.0810   69.1270   42.5950 C.ar  852  TYR852      0.0417
     96  CE2      109.8370   69.2000   41.7380 C.ar  852  TYR852      0.0417
     97  CZ       111.1050   68.6430   41.7490 C.ar  852  TYR852      0.1957
     98  OH       111.3960   67.6030   40.9030 O.3   852  TYR852     -0.2866
     99  N        107.9310   72.9010   46.2100 N.am  853  LEU853     -0.1980
    100  CA       107.2820   73.9400   47.0040 C.3   853  LEU853      0.1596
    101  C        106.9320   73.4210   48.3920 C.2   853  LEU853      0.2287
    102  O        107.0750   74.1410   49.3850 O.2   853  LEU853     -0.2864
    103  CB       106.0380   74.4630   46.2860 C.3   853  LEU853      0.0297
    104  CG       105.2430   75.5540   47.0080 C.3   853  LEU853      0.0022
    105  CD1      106.0610   76.8290   47.1410 C.3   853  LEU853      0.0001
    106  CD2      103.9500   75.8340   46.2560 C.3   853  LEU853      0.0001
    107  N        109.8650   73.7100   50.5810 N.3   856  ARG856     -0.1245
    108  CA       110.1760   75.1010   50.9040 C.3   856  ARG856      0.1563
    109  C        109.2590   75.6280   52.0020 C.2   856  ARG856      0.2260
    110  O        109.7190   76.2630   52.9550 O.2   856  ARG856     -0.2867
    111  CB       110.0610   75.9780   49.6480 C.3   856  ARG856      0.0307
    112  CG       111.2280   75.8940   48.6840 C.3   856  ARG856      0.0489
    113  CD       110.8360   76.4540   47.2990 C.3   856  ARG856      0.2205
    114  NE       110.5400   77.8710   47.3680 N.pl3 856  ARG856     -0.0865
    115  CZ       109.8830   78.5400   46.4220 C.cat 856  ARG856      0.5346
    116  NH1      109.4570   77.8890   45.3430 N.pl3 856  ARG856      0.1354
    117  NH2      109.6470   79.8510   46.5560 N.pl3 856  ARG856      0.1354
@<TRIPOS>BOND
     1    24    25    1
     2    24    21    1
     3    23    22    2
     4    25    26    1
     5    22    21    1
     6    26    27    1
     7    27    28    2
     8    31    32    1
     9    21    20    1
    10    51    50    2
    11    40    39    2
    12    46    45    2
    13    50    49    1
    14    28    30    1
    15    28    29    1
    16    32    35    1
    17    32    33    1
    18    62    61    2
    19    45    44    1
    20    45    48   am
    21    37    33   am
    22    37    38    1
    23    66    65    2
    24    36    35    1
    25    39    43   am
    26    39    38    1
    27    44    43    1
    28    44    47    1
    29    49    48    1
    30    49    52    1
    31    33    34    2
    32    61    60    1
    33    61    63   am
    34    65    64    1
    35    60    59    1
    36    38    41    1
    37    58    57    2
    38    41    42    1
    39    52    53    1
    40    52    54    1
    41    64    63    1
    42    64    67    1
    43    12    11    2
    44    63    69    1
    45    59    57   am
    46    57    56    1
    47    11    10    1
    48    67    68    1
    49    56    55    1
    50    69    68    1
    51    10     9    1
    52    10    13    1
    53     4     3    2
    54    98    97    1
    55    14    13    1
    56    14    15    1
    57    15    16    1
    58    96    97   ar
    59    96    94   ar
    60    97    95   ar
    61     7     5    1
    62     3     2    1
    63    73    72    2
    64    94    92   ar
    65    95    93   ar
    66    16    17    2
    67     2     5    1
    68     2     1    1
    69    72    71    1
    70    86    84   ar
    71     5     6    1
    72    93    92   ar
    73    92    91    1
    74    84    85   ar
    75    84    83    1
    76    83    80    1
    77    79    80    1
    78    80    81    1
    79    17    18    1
    80    17    19    1
    81     6     8    1
    82    91    88    1
    83    71    74    1
    84    71    70    1
    85    75    74    1
    86    75    76    1
    87    77    76    2
    88    81    82    2
    89    76    78   am
    90   116   115    1
    91    87    88    1
    92    88    89    1
    93    99    89   am
    94    99   100    1
    95   106   104    1
    96   103   100    1
    97   103   104    1
    98   115   117    1
    99   115   114    2
   100    89    90    2
   101   100   101    1
   102   104   105    1
   103   113   114    1
   104   113   112    1
   105   101   102    2
   106   112   111    1
   107   111   108    1
   108   107   108    1
   109   108   109    1
   110   109   110    2
