@<TRIPOS>MOLECULE
tmp/5fdoB00.pdb
 166 155 0 0 0
SMALL
GASTEIGER

@<TRIPOS>ATOM
      1  N          7.3630   38.4870  -16.1710 N.3    50  VAL50      -0.1245
      2  CA         8.0610   38.1190  -14.9470 C.3    50  VAL50       0.1561
      3  C          7.6580   39.0370  -13.8120 C.2    50  VAL50       0.2260
      4  O          7.4490   38.5750  -12.6840 O.2    50  VAL50      -0.2867
      5  CB         9.5870   38.1560  -15.1580 C.3    50  VAL50       0.0252
      6  CG1       10.3250   38.0180  -13.8360 C.3    50  VAL50       0.0019
      7  CG2       10.0130   37.0690  -16.1130 C.3    50  VAL50       0.0019
      8  N          6.2500   37.3340  -10.2730 N.3    54  HIS54      -0.1241
      9  CA         7.0130   37.4730   -9.0340 C.3    54  HIS54       0.1621
     10  C          6.6690   38.7200   -8.2430 C.2    54  HIS54       0.2264
     11  O          7.5430   39.2670   -7.5610 O.2    54  HIS54      -0.2867
     12  CB         8.5150   37.4900   -9.2870 C.3    54  HIS54       0.0745
     13  CG         9.1060   36.1600   -9.5960 C.ar   54  HIS54       0.0817
     14  ND1        9.9310   35.5060   -8.7040 N.ar   54  HIS54      -0.2268
     15  CD2        9.0270   35.3760  -10.6930 C.ar   54  HIS54       0.1154
     16  CE1       10.3350   34.3710   -9.2430 C.ar   54  HIS54       0.1986
     17  NE2        9.7970   34.2650  -10.4470 N.ar   54  HIS54      -0.2212
     18  N          7.0880   38.4760   -4.1740 N.3    57  ALA57      -0.1231
     19  CA         8.4960   38.4500   -3.8050 C.3    57  ALA57       0.1694
     20  C          9.1440   39.7860   -4.1150 C.2    57  ALA57       0.2592
     21  O          9.9870   40.2700   -3.3520 O.2    57  ALA57      -0.2718
     22  CB         9.2170   37.3280   -4.5360 C.3    57  ALA57       0.0304
     23  N          8.7750   40.3910   -5.2440 N.am   58  PHE58      -0.1976
     24  CA         9.3610   41.6750   -5.6060 C.3    58  PHE58       0.1639
     25  C          8.9720   42.7410   -4.6000 C.2    58  PHE58       0.2290
     26  O          9.7780   43.6100   -4.2690 O.2    58  PHE58      -0.2864
     27  CB         8.9600   42.1040   -7.0170 C.3    58  PHE58       0.0560
     28  CG         9.7660   41.4470   -8.0980 C.ar   58  PHE58      -0.0200
     29  CD1        9.5500   41.7590   -9.4470 C.ar   58  PHE58      -0.0042
     30  CD2       10.7920   40.5620   -7.7720 C.ar   58  PHE58      -0.0042
     31  CE1       10.3110   41.1670  -10.4490 C.ar   58  PHE58      -0.0003
     32  CE2       11.5500   39.9500   -8.7700 C.ar   58  PHE58      -0.0003
     33  CZ        11.3080   40.2640  -10.1090 C.ar   58  PHE58      -0.0000
     34  N         11.0190   42.1900   -1.5620 N.3    61  MET61      -0.1245
     35  CA        12.4160   42.5490   -1.7220 C.3    61  MET61       0.1570
     36  C         12.5930   44.0430   -1.8120 C.2    61  MET61       0.2261
     37  O         13.5530   44.5930   -1.2760 O.2    61  MET61      -0.2867
     38  CB        12.9590   41.9340   -2.9960 C.3    61  MET61       0.0387
     39  CG        14.0530   40.9460   -2.7790 C.3    61  MET61       0.0595
     40  SD        15.6130   41.6340   -2.2490 S.3    61  MET61      -0.1393
     41  CE        16.2090   42.4330   -3.7410 C.3    61  MET61       0.0692
     42  N         14.4800   46.1630    0.8820 N.3    65  LEU65      -0.1245
     43  CA        15.6190   46.9740    0.4960 C.3    65  LEU65       0.1561
     44  C         15.4670   48.4010    0.9790 C.2    65  LEU65       0.2260
     45  O         16.4800   49.0670    1.2180 O.2    65  LEU65      -0.2867
     46  CB        15.8430   46.9260   -1.0060 C.3    65  LEU65       0.0270
     47  CG        16.4570   45.6410   -1.5380 C.3    65  LEU65       0.0019
     48  CD1       16.5030   45.7770   -3.0290 C.3    65  LEU65       0.0001
     49  CD2       17.8440   45.4440   -0.9630 C.3    65  LEU65       0.0001
     50  N         23.2500   49.2880   -3.3020 N.3    76  LEU76      -0.1245
     51  CA        22.7020   48.0390   -3.8380 C.3    76  LEU76       0.1561
     52  C         23.7340   47.1180   -4.4930 C.2    76  LEU76       0.2260
     53  O         23.4820   45.9100   -4.6010 O.2    76  LEU76      -0.2867
     54  CB        21.6260   48.3420   -4.8720 C.3    76  LEU76       0.0270
     55  CG        20.3760   49.0300   -4.3840 C.3    76  LEU76       0.0019
     56  CD1       19.4530   49.2080   -5.5300 C.3    76  LEU76       0.0001
     57  CD2       19.7250   48.1140   -3.3700 C.3    76  LEU76       0.0001
     58  N         24.9120   43.5900   -2.7260 N.3    79  VAL79      -0.1231
     59  CA        23.8370   42.6310   -2.4770 C.3    79  VAL79       0.1692
     60  C         23.2750   42.1250   -3.7960 C.2    79  VAL79       0.2591
     61  O         22.8730   40.9540   -3.9130 O.2    79  VAL79      -0.2718
     62  CB        22.7540   43.2760   -1.5820 C.3    79  VAL79       0.0266
     63  CG1       22.4080   44.6520   -2.0740 C.3    79  VAL79       0.0020
     64  CG2       21.4970   42.4220   -1.5440 C.3    79  VAL79       0.0020
     65  N         23.3440   42.9480   -4.8350 N.am   80  MET80      -0.1979
     66  CA        22.9600   42.4660   -6.1470 C.3    80  MET80       0.1605
     67  C         23.9340   41.3970   -6.6200 C.2    80  MET80       0.2287
     68  O         23.5200   40.2850   -6.9920 O.2    80  MET80      -0.2864
     69  CB        22.9000   43.6530   -7.1120 C.3    80  MET80       0.0413
     70  CG        22.1120   43.4250   -8.3990 C.3    80  MET80       0.0598
     71  SD        21.7920   44.9710   -9.2840 S.3    80  MET80      -0.1393
     72  CE        23.4000   45.7510   -9.2910 C.3    80  MET80       0.0692
     73  N         23.2590   38.0490   -4.5120 N.3    83  VAL83      -0.1231
     74  CA        22.0950   37.2390   -4.8670 C.3    83  VAL83       0.1692
     75  C         22.1960   36.6940   -6.2830 C.2    83  VAL83       0.2592
     76  O         21.5880   35.6610   -6.5970 O.2    83  VAL83      -0.2718
     77  CB        20.7970   38.0480   -4.7120 C.3    83  VAL83       0.0266
     78  CG1       19.5790   37.1440   -4.8120 C.3    83  VAL83       0.0020
     79  CG2       20.8040   38.7530   -3.4000 C.3    83  VAL83       0.0020
     80  N         22.9640   37.3480   -7.1470 N.am   84  PHE84      -0.1976
     81  CA        22.8800   37.0280   -8.5620 C.3    84  PHE84       0.1639
     82  C         23.8220   35.9060   -9.0090 C.2    84  PHE84       0.2290
     83  O         23.4610   35.1450   -9.9170 O.2    84  PHE84      -0.2864
     84  CB        23.1260   38.2980   -9.3850 C.3    84  PHE84       0.0560
     85  CG        22.9760   38.1030  -10.8550 C.ar   84  PHE84      -0.0200
     86  CD1       21.7650   37.7040  -11.3880 C.ar   84  PHE84      -0.0042
     87  CD2       24.0410   38.3170  -11.7090 C.ar   84  PHE84      -0.0042
     88  CE1       21.6240   37.5130  -12.7470 C.ar   84  PHE84      -0.0003
     89  CE2       23.9020   38.1200  -13.0790 C.ar   84  PHE84      -0.0003
     90  CZ        22.7000   37.7260  -13.5890 C.ar   84  PHE84      -0.0000
     91  N         21.8290   31.5890  -16.3160 N.3    90  ASN90      -0.1240
     92  CA        20.8890   31.2370  -17.3610 C.3    90  ASN90       0.1653
     93  C         20.0210   32.4380  -17.6880 C.2    90  ASN90       0.2266
     94  O         19.8500   33.3460  -16.8710 O.2    90  ASN90      -0.2867
     95  CB        19.9970   30.0800  -16.9220 C.3    90  ASN90       0.1155
     96  CG        19.3110   30.3490  -15.5930 C.2    90  ASN90       0.2627
     97  OD1       18.2440   30.9550  -15.5450 O.2    90  ASN90      -0.2716
     98  ND2       19.9090   29.8840  -14.5140 N.am   90  ASN90      -0.0877
     99  N         16.8700   32.9470  -17.8360 N.3    92  GLY92      -0.1210
    100  CA        15.7590   33.2640  -16.9610 C.3    92  GLY92       0.1956
    101  C         16.1830   34.1820  -15.8420 C.2    92  GLY92       0.2611
    102  O         15.5620   35.2220  -15.5970 O.2    92  GLY92      -0.2717
    103  N         17.2990   33.8730  -15.1890 N.am   93  ARG93      -0.1979
    104  CA        17.6510   34.7140  -14.0660 C.3    93  ARG93       0.1597
    105  C         18.1370   36.0840  -14.5270 C.2    93  ARG93       0.2287
    106  O         17.8310   37.0820  -13.8820 O.2    93  ARG93      -0.2864
    107  CB        18.6900   34.0310  -13.1910 C.3    93  ARG93       0.0334
    108  CG        19.3880   35.0270  -12.2930 C.3    93  ARG93       0.0492
    109  CD        20.1020   34.3290  -11.1860 C.3    93  ARG93       0.2205
    110  NE        19.1070   33.7450  -10.3020 N.pl3  93  ARG93      -0.0865
    111  CZ        19.4100   32.9730   -9.2730 C.cat  93  ARG93       0.5346
    112  NH1       20.6830   32.7130   -9.0120 N.pl3  93  ARG93       0.1354
    113  NH2       18.4510   32.4660   -8.5090 N.pl3  93  ARG93       0.1354
    114  N         15.1010   38.0510  -14.9940 N.3    96  THR96      -0.1203
    115  CA        14.5220   38.3650  -13.6960 C.3    96  THR96       0.1994
    116  C         15.2650   39.5100  -13.0300 C.2    96  THR96       0.2617
    117  O         14.6480   40.4160  -12.4590 O.2    96  THR96      -0.2717
    118  CB        14.5700   37.1300  -12.8170 C.3    96  THR96       0.1784
    119  OG1       14.1950   35.9890  -13.5960 O.3    96  THR96      -0.2211
    120  CG2       13.6480   37.2810  -11.6200 C.3    96  THR96       0.0376
    121  N         16.5870   39.5170  -13.1490 N.am   97  LEU97      -0.1979
    122  CA        17.3820   40.6170  -12.6260 C.3    97  LEU97       0.1596
    123  C         16.9780   41.9360  -13.2810 C.2    97  LEU97       0.2287
    124  O         16.7100   42.9330  -12.5940 O.2    97  LEU97      -0.2864
    125  CB        18.8670   40.3230  -12.8680 C.3    97  LEU97       0.0297
    126  CG        19.8490   41.4880  -12.8580 C.3    97  LEU97       0.0022
    127  CD1       20.1420   41.9440  -11.4450 C.3    97  LEU97       0.0001
    128  CD2       21.1290   41.1220  -13.5790 C.3    97  LEU97       0.0001
    129  N         13.2840   42.9290  -12.0050 N.3   100  PHE100     -0.1227
    130  CA        13.2490   43.5750  -10.7100 C.3   100  PHE100      0.1736
    131  C         13.8530   44.9570  -10.8170 C.2   100  PHE100      0.2596
    132  O         13.4030   45.8940  -10.1530 O.2   100  PHE100     -0.2718
    133  CB        14.0050   42.7780   -9.6630 C.3   100  PHE100      0.0547
    134  CG        13.8630   43.3520   -8.2860 C.ar  100  PHE100     -0.0202
    135  CD1       14.9800   43.7030   -7.5430 C.ar  100  PHE100     -0.0042
    136  CD2       12.6010   43.6490   -7.7790 C.ar  100  PHE100     -0.0042
    137  CE1       14.8500   44.2700   -6.3000 C.ar  100  PHE100     -0.0003
    138  CE2       12.4600   44.2060   -6.5360 C.ar  100  PHE100     -0.0003
    139  CZ        13.5870   44.5160   -5.7920 C.ar  100  PHE100     -0.0000
    140  N         14.8870   45.0990  -11.6460 N.am  101  GLY101     -0.1957
    141  CA        15.3530   46.4330  -11.9790 C.3   101  GLY101      0.1869
    142  C         14.2150   47.3490  -12.3680 C.2   101  GLY101      0.2309
    143  O         14.0770   48.4500  -11.8280 O.2   101  GLY101     -0.2863
    144  N         11.8910   48.2110   -9.3680 N.3   104  VAL104     -0.1245
    145  CA        12.5280   49.2350   -8.5530 C.3   104  VAL104      0.1561
    146  C         12.4780   50.5780   -9.2560 C.2   104  VAL104      0.2260
    147  O         12.3070   51.6220   -8.6190 O.2   104  VAL104     -0.2867
    148  CB        13.9810   48.8320   -8.2640 C.3   104  VAL104      0.0252
    149  CG1       14.7240   49.9880   -7.6240 C.3   104  VAL104      0.0019
    150  CG2       14.0050   47.5970   -7.4050 C.3   104  VAL104      0.0019
    151  N         20.7580   53.1900  -11.1430 N.3   120  LEU120     -0.1245
    152  CA        20.3420   51.8180  -10.8860 C.3   120  LEU120      0.1561
    153  C         20.6120   50.9440  -12.0970 C.2   120  LEU120      0.2260
    154  O         21.2540   49.8970  -11.9850 O.2   120  LEU120     -0.2867
    155  CB        18.8710   51.7680  -10.5100 C.3   120  LEU120      0.0270
    156  CG        18.2620   50.3940  -10.4470 C.3   120  LEU120      0.0019
    157  CD1       18.7700   49.5690   -9.2400 C.3   120  LEU120      0.0001
    158  CD2       16.7610   50.5040  -10.4450 C.3   120  LEU120      0.0001
    159  N         22.9160   47.6600  -12.6180 N.3   124  ILE124     -0.1245
    160  CA        22.5140   46.3480  -13.1130 C.3   124  ILE124      0.1561
    161  C         23.3780   45.9500  -14.2940 C.2   124  ILE124      0.2260
    162  O         24.0150   44.8900  -14.2860 O.2   124  ILE124     -0.2867
    163  CB        21.0210   46.3160  -13.4730 C.3   124  ILE124      0.0252
    164  CG1       20.1730   46.6310  -12.2550 C.3   124  ILE124      0.0019
    165  CG2       20.6420   44.9530  -14.0050 C.3   124  ILE124      0.0019
    166  CD1       18.7470   46.8010  -12.6080 C.3   124  ILE124      0.0001
@<TRIPOS>BOND
     1    99   100    1
     2    93    92    1
     3    93    94    2
     4    92    95    1
     5    92    91    1
     6   100   101    1
     7    95    96    1
     8     1     2    1
     9     7     5    1
    10   101   102    2
    11   101   103   am
    12    96    97    2
    13    96    98   am
    14   103   104    1
    15     5     2    1
    16     5     6    1
    17   114   115    1
    18     2     3    1
    19   105   104    1
    20   105   106    2
    21   161   162    2
    22   161   160    1
    23   104   107    1
    24   165   163    1
    25     3     4    2
    26   115   116    1
    27   115   118    1
    28   119   118    1
    29    90    89   ar
    30    90    88   ar
    31   128   126    1
    32   163   160    1
    33   163   164    1
    34   123   122    1
    35   123   124    2
    36   107   108    1
    37   121   116   am
    38   121   122    1
    39   160   159    1
    40    89    87   ar
    41   116   117    2
    42   125   126    1
    43   125   122    1
    44   126   127    1
    45   118   120    1
    46    88    86   ar
    47   166   164    1
    48   142   141    1
    49   142   143    2
    50   108   109    1
    51   153   154    2
    52   153   152    1
    53   129   130    1
    54   141   140    1
    55    87    85   ar
    56   140   131   am
    57    86    85   ar
    58   109   110    1
    59   151   152    1
    60   152   155    1
    61    85    84    1
    62   131   130    1
    63   131   132    2
    64   130   133    1
    65    15    17   ar
    66    15    13   ar
    67   155   156    1
    68    31    33   ar
    69    31    29   ar
    70   156   158    1
    71   156   157    1
    72    17    16   ar
    73   110   111    2
    74     8     9    1
    75    33    32   ar
    76    83    82    2
    77   133   134    1
    78    13    12    1
    79    13    14   ar
    80    29    28   ar
    81    84    81    1
    82   144   145    1
    83    72    71    1
    84    12     9    1
    85    71    70    1
    86   111   112    1
    87   111   113    1
    88   146   147    2
    89   146   145    1
    90    16    14   ar
    91     9    10    1
    92    82    81    1
    93    32    30   ar
    94    81    80    1
    95   145   148    1
    96    70    69    1
    97   134   136   ar
    98   134   135   ar
    99   148   149    1
   100   148   150    1
   101    10    11    2
   102    28    30   ar
   103    28    27    1
   104   136   138   ar
   105   135   137   ar
   106    80    75   am
   107    69    66    1
   108    27    24    1
   109    68    67    2
   110    67    66    1
   111    76    75    2
   112   138   139   ar
   113   137   139   ar
   114    75    74    1
   115    66    65    1
   116    24    23    1
   117    24    25    1
   118    56    55    1
   119    23    20   am
   120    54    55    1
   121    54    51    1
   122    74    77    1
   123    74    73    1
   124    65    60   am
   125    78    77    1
   126    77    79    1
   127    53    52    2
   128    25    26    2
   129    22    19    1
   130    52    51    1
   131    55    57    1
   132    18    19    1
   133    20    19    1
   134    20    21    2
   135    61    60    2
   136    51    50    1
   137    60    59    1
   138    41    40    1
   139    48    47    1
   140    38    39    1
   141    38    35    1
   142    39    40    1
   143    58    59    1
   144    59    62    1
   145    63    62    1
   146    36    35    1
   147    36    37    2
   148    35    34    1
   149    62    64    1
   150    47    46    1
   151    47    49    1
   152    46    43    1
   153    43    42    1
   154    43    44    1
   155    44    45    2
