@<TRIPOS>MOLECULE
tmp/5fdpA01.pdb
 112 109 0 0 0
SMALL
GASTEIGER

@<TRIPOS>ATOM
      1  N         -5.9650   18.7560  -37.5610 N.3    94  ASN94      -0.1240
      2  CA        -5.0530   19.7830  -37.0250 C.3    94  ASN94       0.1653
      3  C         -4.7800   20.8240  -38.1110 C.2    94  ASN94       0.2266
      4  O         -4.9890   22.0060  -37.8650 O.2    94  ASN94      -0.2867
      5  CB        -3.7320   19.1950  -36.5110 C.3    94  ASN94       0.1155
      6  CG        -2.6630   20.2360  -36.3670 C.2    94  ASN94       0.2627
      7  OD1       -2.6750   21.0210  -35.4300 O.2    94  ASN94      -0.2716
      8  ND2       -1.8030   20.3630  -37.3730 N.am   94  ASN94      -0.0877
      9  N         -5.7880   11.8520  -31.5120 N.3   141  ALA141     -0.1231
     10  CA        -5.4350   13.2600  -31.5470 C.3   141  ALA141      0.1694
     11  C         -5.9900   13.7840  -32.8610 C.2   141  ALA141      0.2593
     12  O         -6.3030   12.9680  -33.7360 O.2   141  ALA141     -0.2718
     13  CB        -3.9320   13.4170  -31.5270 C.3   141  ALA141      0.0304
     14  N         -6.1140   15.1310  -33.0140 N.am  142  THR142     -0.1939
     15  CA        -6.6050   15.7550  -34.2590 C.3   142  THR142      0.2028
     16  C         -5.7140   15.4360  -35.4730 C.2   142  THR142      0.2642
     17  O         -6.2280   15.3360  -36.5930 O.2   142  THR142     -0.2714
     18  CB        -6.7750   17.2590  -34.1040 C.3   142  THR142      0.1808
     19  OG1       -5.5380   17.8360  -33.6750 O.3   142  THR142     -0.2208
     20  CG2       -7.9070   17.6330  -33.1980 C.3   142  THR142      0.0379
     21  N         -4.3930   15.2630  -35.2560 N.am  143  ARG143     -0.1977
     22  CA        -3.4360   14.9010  -36.3190 C.3   143  ARG143      0.1597
     23  C         -3.7930   13.5440  -36.9720 C.2   143  ARG143      0.2287
     24  O         -3.5530   13.3510  -38.1570 O.2   143  ARG143     -0.2864
     25  CB        -1.9870   14.8990  -35.8030 C.3   143  ARG143      0.0334
     26  CG        -1.7020   13.7880  -34.8210 C.3   143  ARG143      0.0492
     27  CD        -0.2890   13.7780  -34.3040 C.3   143  ARG143      0.2205
     28  NE        -0.2020   12.8440  -33.1870 N.pl3 143  ARG143     -0.0865
     29  CZ        -0.4870   13.1570  -31.9310 C.cat 143  ARG143      0.5346
     30  NH1       -0.7810   14.4070  -31.6010 N.pl3 143  ARG143      0.1354
     31  NH2       -0.4390   12.2330  -30.9870 N.pl3 143  ARG143      0.1354
     32  N          4.5990   15.9720  -36.9390 N.3   165  TYR165     -0.1241
     33  CA         4.2560   16.0240  -35.5210 C.3   165  TYR165      0.1605
     34  C          5.2590   15.3760  -34.5410 C.2   165  TYR165      0.2264
     35  O          4.8140   14.8430  -33.5220 O.2   165  TYR165     -0.2867
     36  CB         2.8600   15.4040  -35.3360 C.3   165  TYR165      0.0534
     37  CG         1.8090   16.0660  -36.2040 C.ar  165  TYR165     -0.0201
     38  CD1        1.2190   17.2670  -35.8220 C.ar  165  TYR165     -0.0009
     39  CD2        1.4440   15.5190  -37.4320 C.ar  165  TYR165     -0.0009
     40  CE1        0.2620   17.8870  -36.6170 C.ar  165  TYR165      0.0417
     41  CE2        0.5100   16.1490  -38.2510 C.ar  165  TYR165      0.0417
     42  CZ        -0.0810   17.3310  -37.8350 C.ar  165  TYR165      0.1957
     43  OH        -1.0210   17.9470  -38.6110 O.3   165  TYR165     -0.2866
     44  N          4.9870   16.0900  -30.7710 N.3   168  ASP168     -0.1239
     45  CA         3.8430   15.4980  -30.0550 C.3   168  ASP168      0.1674
     46  C          4.1330   14.1270  -29.4760 C.2   168  ASP168      0.2266
     47  O          3.2570   13.5290  -28.8640 O.2   168  ASP168     -0.2867
     48  CB         2.6130   15.4170  -30.9670 C.3   168  ASP168      0.1410
     49  CG         2.0170   16.7550  -31.3180 C.2   168  ASP168      0.3668
     50  OD1        2.2370   17.7380  -30.5410 O.co2 168  ASP168     -0.2456
     51  OD2        1.3360   16.8400  -32.3680 O.co2 168  ASP168     -0.2456
     52  N         -1.3820   13.2820  -24.6260 N.3   182  TRP182     -0.1241
     53  CA        -2.7240   12.7700  -24.9490 C.3   182  TRP182      0.1605
     54  C         -3.0420   11.5190  -24.1530 C.2   182  TRP182      0.2264
     55  O         -4.1730   11.0350  -24.1790 O.2   182  TRP182     -0.2867
     56  CB        -2.7940   12.4240  -26.4460 C.3   182  TRP182      0.0550
     57  CG        -3.0130   13.6110  -27.3230 C.ar  182  TRP182      0.0003
     58  CD1       -4.1950   14.0410  -27.8310 C.ar  182  TRP182      0.0946
     59  CD2       -2.0180   14.5480  -27.7630 C.ar  182  TRP182      0.0152
     60  NE1       -4.0060   15.1950  -28.5560 N.ar  182  TRP182     -0.2442
     61  CE2       -2.6870   15.5560  -28.4890 C.ar  182  TRP182      0.0810
     62  CE3       -0.6190   14.6470  -27.5870 C.ar  182  TRP182      0.0012
     63  CZ2       -2.0140   16.6290  -29.0740 C.ar  182  TRP182      0.0191
     64  CZ3        0.0430   15.7380  -28.1340 C.ar  182  TRP182      0.0001
     65  CH2       -0.6450   16.7000  -28.8860 C.ar  182  TRP182      0.0015
     66  N         -8.3090   20.3150  -28.2000 N.3   208  GLU208     -0.1245
     67  CA        -7.6490   20.7780  -29.4360 C.3   208  GLU208      0.1567
     68  C         -8.6680   21.3700  -30.4000 C.2   208  GLU208      0.2260
     69  O         -8.3900   22.4010  -31.0140 O.2   208  GLU208     -0.2867
     70  CB        -6.9210   19.6250  -30.1470 C.3   208  GLU208      0.0388
     71  CG        -5.7840   18.9670  -29.3890 C.3   208  GLU208      0.1160
     72  CD        -5.1160   17.9510  -30.2940 C.2   208  GLU208      0.3649
     73  OE1       -5.5190   16.7680  -30.2630 O.co2 208  GLU208     -0.2457
     74  OE2       -4.2630   18.3600  -31.1120 O.co2 208  GLU208     -0.2457
     75  N         -6.9100   24.0770  -32.6880 N.3   213  CYS213     -0.1221
     76  CA        -5.5670   23.5160  -32.8210 C.3   213  CYS213      0.1808
     77  C         -4.4710   24.5680  -32.8040 C.2   213  CYS213      0.2601
     78  O         -3.4410   24.4000  -33.4610 O.2   213  CYS213     -0.2717
     79  CB        -5.4800   22.6160  -34.0490 C.3   213  CYS213      0.0970
     80  SG        -6.6470   21.2390  -34.0180 S.3   213  CYS213     -0.0800
     81  N         -4.6810   25.6350  -32.0020 N.am  214  ARG214     -0.1965
     82  CA        -3.7660   26.7570  -31.8520 C.3   214  ARG214      0.1729
     83  C         -2.6010   26.5190  -30.9120 C.2   214  ARG214      0.2616
     84  O         -1.5870   27.2150  -31.0020 O.2   214  ARG214     -0.2715
     85  CB        -4.5270   28.0210  -31.4260 C.3   214  ARG214      0.0348
     86  CG        -5.4480   28.6260  -32.4950 C.3   214  ARG214      0.0492
     87  CD        -4.7400   29.0700  -33.7540 C.3   214  ARG214      0.2205
     88  NE        -5.5860   29.9460  -34.5700 N.pl3 214  ARG214     -0.0865
     89  CZ        -6.4200   29.5410  -35.5210 C.cat 214  ARG214      0.5346
     90  NH1       -6.5490   28.2470  -35.7980 N.pl3 214  ARG214      0.1354
     91  NH2       -7.1520   30.4240  -36.1880 N.pl3 214  ARG214      0.1354
     92  N         -2.7530   25.5860  -29.9780 N.am  215  ALA215     -0.1963
     93  CA        -1.7310   25.3120  -28.9920 C.3   215  ALA215      0.1728
     94  C         -1.5860   23.8600  -28.7540 C.2   215  ALA215      0.2616
     95  O         -2.5460   23.0840  -28.9210 O.2   215  ALA215     -0.2715
     96  CB        -2.0780   25.9930  -27.6780 C.3   215  ALA215      0.0334
     97  N         -0.3820   23.4940  -28.2940 N.am  216  GLN216     -0.1964
     98  CA        -0.0820   22.1470  -27.8970 C.3   216  GLN216      0.1718
     99  C         -0.6700   21.9430  -26.4870 C.2   216  GLN216      0.2458
    100  O         -0.4600   22.8130  -25.6260 O.2   216  GLN216     -0.2730
    101  CB         1.4370   21.9220  -27.8720 C.3   216  GLN216      0.0407
    102  CG         1.7870   20.4690  -27.5520 C.3   216  GLN216      0.0908
    103  CD         3.2630   20.1820  -27.5160 C.2   216  GLN216      0.2608
    104  OE1        3.7180   19.2150  -28.0950 O.2   216  GLN216     -0.2717
    105  NE2        4.0210   20.9330  -26.7520 N.am  216  GLN216     -0.0878
    106  N         -1.3420   20.7940  -26.2000 N.am  217  PRO217     -0.2727
    107  CA        -1.8210   20.5460  -24.8260 C.3   217  PRO217      0.1402
    108  C         -0.6700   20.6450  -23.8280 C.2   217  PRO217      0.2269
    109  O          0.3950   20.0700  -24.0850 O.2   217  PRO217     -0.2865
    110  CB        -2.3670   19.1130  -24.9010 C.3   217  PRO217      0.0296
    111  CG        -2.7310   18.9360  -26.3440 C.3   217  PRO217      0.0237
    112  CD        -1.6680   19.6610  -27.0900 C.3   217  PRO217      0.0939
@<TRIPOS>BOND
     1    43    42    1
     2    41    42   ar
     3    41    39   ar
     4    24    23    2
     5     3     4    2
     6     3     2    1
     7    42    40   ar
     8     1     2    1
     9    39    37   ar
    10     8     6   am
    11     2     5    1
    12    23    22    1
    13    32    33    1
    14    40    38   ar
    15    17    16    2
    16     5     6    1
    17     6     7    2
    18    22    25    1
    19    22    21    1
    20    37    38   ar
    21    37    36    1
    22    91    89    1
    23    25    26    1
    24    90    89    1
    25    89    88    2
    26    33    36    1
    27    33    34    1
    28    16    21   am
    29    16    15    1
    30    26    27    1
    31    88    87    1
    32    34    35    2
    33    27    28    1
    34    15    18    1
    35    15    14    1
    36    18    19    1
    37    18    20    1
    38    79    80    1
    39    79    76    1
    40    87    86    1
    41    12    11    2
    42    78    77    2
    43    28    29    2
    44    14    11   am
    45    11    10    1
    46    76    77    1
    47    76    75    1
    48    77    81   am
    49    86    85    1
    50    51    49   ar
    51    81    82    1
    52    29    30    1
    53    29    31    1
    54    82    85    1
    55    82    83    1
    56    10    13    1
    57    10     9    1
    58    49    48    1
    59    49    50   ar
    60    74    72   ar
    61    69    68    2
    62    84    83    2
    63    48    45    1
    64    83    92   am
    65    44    45    1
    66    68    67    1
    67    72    73   ar
    68    72    71    1
    69    70    67    1
    70    70    71    1
    71    45    46    1
    72    92    93    1
    73    46    47    2
    74    67    66    1
    75    63    65   ar
    76    63    61   ar
    77    93    94    1
    78    93    96    1
    79    95    94    2
    80    65    64   ar
    81    94    97   am
    82    60    61   ar
    83    60    58   ar
    84    61    59   ar
    85    97    98    1
    86    64    62   ar
    87   104   103    2
    88    98   101    1
    89    98    99    1
    90   101   102    1
    91    58    57   ar
    92    59    62   ar
    93    59    57   ar
    94   102   103    1
    95   103   105   am
    96    57    56    1
    97   112   111    1
    98   112   106    1
    99    99   106   am
   100    99   100    2
   101    56    53    1
   102   111   110    1
   103   106   107    1
   104    53    52    1
   105    53    54    1
   106   110   107    1
   107   107   108    1
   108    55    54    2
   109   109   108    2
