@<TRIPOS>MOLECULE
tmp/5fdpA00.pdb
 232 220 0 0 0
SMALL
GASTEIGER

@<TRIPOS>ATOM
      1  N          0.9690   11.9680  -53.2310 N.3    13  LEU13      -0.1245
      2  CA         0.5370   12.6990  -52.0320 C.3    13  LEU13       0.1561
      3  C          1.6720   12.8440  -51.0570 C.2    13  LEU13       0.2260
      4  O          1.7880   13.8560  -50.3850 O.2    13  LEU13      -0.2867
      5  CB        -0.7010   12.0810  -51.3770 C.3    13  LEU13       0.0270
      6  CG        -2.0020   12.2250  -52.1800 C.3    13  LEU13       0.0019
      7  CD1       -3.0990   11.2860  -51.6400 C.3    13  LEU13       0.0001
      8  CD2       -2.4900   13.6800  -52.2110 C.3    13  LEU13       0.0001
      9  N          2.7150    7.3090  -51.4880 N.3    21  VAL21      -0.1245
     10  CA         1.2570    7.4660  -51.3810 C.3    21  VAL21       0.1561
     11  C          0.8340    8.2190  -52.6440 C.2    21  VAL21       0.2260
     12  O          1.4640    9.2330  -52.9840 O.2    21  VAL21      -0.2867
     13  CB         0.8170    8.2150  -50.0790 C.3    21  VAL21       0.0252
     14  CG1       -0.7020    8.3180  -49.9680 C.3    21  VAL21       0.0019
     15  CG2        1.4050    7.5640  -48.8320 C.3    21  VAL21       0.0019
     16  N         -6.8670    6.8930  -51.9730 N.3    37  ALA37      -0.1231
     17  CA        -5.4850    7.0720  -51.5400 C.3    37  ALA37       0.1694
     18  C         -4.8480    5.6940  -51.5290 C.2    37  ALA37       0.2592
     19  O         -5.3910    4.7380  -50.9400 O.2    37  ALA37      -0.2718
     20  CB        -5.4290    7.7190  -50.1640 C.3    37  ALA37       0.0304
     21  N         -3.7510    5.5650  -52.2690 N.am   38  VAL38      -0.1966
     22  CA        -3.1180    4.2810  -52.4670 C.3    38  VAL38       0.1727
     23  C         -1.6980    4.3280  -51.9610 C.2    38  VAL38       0.2616
     24  O         -0.9270    5.1880  -52.3860 O.2    38  VAL38      -0.2715
     25  CB        -3.2020    3.8800  -53.9760 C.3    38  VAL38       0.0290
     26  CG1       -2.6160    2.4910  -54.2390 C.3    38  VAL38       0.0023
     27  CG2       -4.6450    3.9560  -54.4950 C.3    38  VAL38       0.0023
     28  N         -1.3560    3.4130  -51.0450 N.am   39  LYS39      -0.1977
     29  CA         0.0010    3.2980  -50.5400 C.3    39  LYS39       0.1596
     30  C          0.6670    2.1460  -51.2840 C.2    39  LYS39       0.2287
     31  O          0.1760    1.0240  -51.2750 O.2    39  LYS39      -0.2864
     32  CB         0.0350    3.1230  -49.0220 C.3    39  LYS39       0.0298
     33  CG         1.4460    3.2090  -48.4400 C.3    39  LYS39       0.0038
     34  CD         1.4520    3.5070  -46.9360 C.3    39  LYS39       0.0206
     35  CE         1.2590    2.3010  -46.0420 C.3    39  LYS39       0.1093
     36  NZ         1.2920    2.6800  -44.6020 N.3    39  LYS39      -0.1314
     37  N          4.9260   -4.9000  -41.5790 N.3    52  ASP52      -0.1239
     38  CA         4.0930   -3.7990  -41.1010 C.3    52  ASP52       0.1674
     39  C          2.9040   -3.5390  -42.0500 C.2    52  ASP52       0.2266
     40  O          1.7760   -3.4140  -41.5720 O.2    52  ASP52      -0.2867
     41  CB         4.9170   -2.5190  -40.9430 C.3    52  ASP52       0.1410
     42  CG         5.9380   -2.5170  -39.8130 C.2    52  ASP52       0.3668
     43  OD1        5.8290   -3.3700  -38.9080 O.co2  52  ASP52      -0.2456
     44  OD2        6.8130   -1.6280  -39.8080 O.co2  52  ASP52      -0.2456
     45  N         -0.9180   -4.1130  -41.1630 N.3    56  GLU56      -0.1245
     46  CA        -1.7330   -2.9030  -41.2630 C.3    56  GLU56       0.1567
     47  C         -3.0040   -3.2250  -42.0530 C.2    56  GLU56       0.2260
     48  O         -4.0850   -2.8610  -41.6240 O.2    56  GLU56      -0.2867
     49  CB        -0.9440   -1.7280  -41.8880 C.3    56  GLU56       0.0388
     50  CG        -1.6920   -0.3980  -41.8070 C.3    56  GLU56       0.1160
     51  CD        -1.0340    0.8750  -42.3210 C.2    56  GLU56       0.3649
     52  OE1        0.1070    0.8270  -42.8420 O.co2  56  GLU56      -0.2457
     53  OE2       -1.6750    1.9410  -42.1810 O.co2  56  GLU56      -0.2457
     54  N         -5.4680   -5.4480  -39.8340 N.3    59  ILE59      -0.1231
     55  CA        -6.0870   -4.5490  -38.8460 C.3    59  ILE59       0.1692
     56  C         -7.2140   -3.7230  -39.4900 C.2    59  ILE59       0.2591
     57  O         -8.3450   -3.7840  -39.0140 O.2    59  ILE59      -0.2718
     58  CB        -5.0050   -3.6380  -38.1700 C.3    59  ILE59       0.0266
     59  CG1       -3.9560   -4.4550  -37.3930 C.3    59  ILE59       0.0019
     60  CG2       -5.6120   -2.5520  -37.2710 C.3    59  ILE59       0.0020
     61  CD1       -2.5020   -3.6860  -37.2150 C.3    59  ILE59       0.0001
     62  N         -6.9110   -2.9680  -40.5700 N.am   60  MET60      -0.1979
     63  CA        -7.8580   -2.0600  -41.2340 C.3    60  MET60       0.1605
     64  C         -9.0770   -2.7300  -41.8410 C.2    60  MET60       0.2287
     65  O        -10.1690   -2.1580  -41.7820 O.2    60  MET60      -0.2864
     66  CB        -7.1480   -1.2110  -42.2900 C.3    60  MET60       0.0413
     67  CG        -6.0810   -0.3060  -41.7090 C.3    60  MET60       0.0598
     68  SD        -5.1080    0.4800  -42.9940 S.3    60  MET60      -0.1393
     69  CE        -6.3200    1.7250  -43.5700 C.3    60  MET60       0.0692
     70  N        -12.4130   -2.7040  -39.8570 N.3    63  LEU63      -0.1245
     71  CA       -13.0140   -1.4200  -39.5180 C.3    63  LEU63       0.1561
     72  C        -13.8630   -0.8520  -40.6440 C.2    63  LEU63       0.2260
     73  O        -13.3470   -0.3080  -41.6270 O.2    63  LEU63      -0.2867
     74  CB       -11.9560   -0.4080  -39.0090 C.3    63  LEU63       0.0270
     75  CG       -10.8640   -0.9700  -38.0520 C.3    63  LEU63       0.0019
     76  CD1       -9.7890    0.0400  -37.7780 C.3    63  LEU63       0.0001
     77  CD2      -11.4490   -1.5230  -36.7580 C.3    63  LEU63       0.0001
     78  N        -14.6500    6.1090  -39.5610 N.3    68  ILE68      -0.1231
     79  CA       -13.3570    5.3920  -39.4670 C.3    68  ILE68       0.1692
     80  C        -12.8560    5.2250  -40.8760 C.2    68  ILE68       0.2591
     81  O        -13.6500    4.8830  -41.7450 O.2    68  ILE68      -0.2718
     82  CB       -13.4650    3.9790  -38.7540 C.3    68  ILE68       0.0266
     83  CG1      -14.0410    4.0690  -37.3050 C.3    68  ILE68       0.0019
     84  CG2      -12.1280    3.1970  -38.7810 C.3    68  ILE68       0.0020
     85  CD1      -13.1440    4.7810  -36.2470 C.3    68  ILE68       0.0001
     86  N        -11.5600    5.4280  -41.1000 N.am   69  ILE69      -0.1980
     87  CA       -10.9280    5.2090  -42.3950 C.3    69  ILE69       0.1595
     88  C        -11.2690    3.8150  -42.9450 C.2    69  ILE69       0.2287
     89  O        -11.1860    2.8060  -42.2270 O.2    69  ILE69      -0.2864
     90  CB        -9.3990    5.4910  -42.3470 C.3    69  ILE69       0.0276
     91  CG1       -8.7970    5.6500  -43.7660 C.3    69  ILE69       0.0022
     92  CG2       -8.6290    4.4570  -41.5030 C.3    69  ILE69       0.0022
     93  CD1       -9.0620    7.0600  -44.4530 C.3    69  ILE69       0.0001
     94  N         -2.3710   -0.7980  -51.0410 N.3    83  MET83      -0.1245
     95  CA        -3.5150   -0.7260  -50.1280 C.3    83  MET83       0.1570
     96  C         -4.2840    0.5360  -50.5000 C.2    83  MET83       0.2261
     97  O         -3.6670    1.5510  -50.7600 O.2    83  MET83      -0.2867
     98  CB        -3.1360   -0.8670  -48.6440 C.3    83  MET83       0.0387
     99  CG        -2.3740    0.2840  -48.0620 C.3    83  MET83       0.0595
    100  SD        -2.7960    0.5250  -46.3200 S.3    83  MET83      -0.1393
    101  CE        -4.2490    1.3840  -46.5090 C.3    83  MET83       0.0692
    102  N         -7.4800    3.2300  -49.7880 N.3    85  THR85      -0.1203
    103  CA        -8.4380    3.8060  -48.8330 C.3    85  THR85       0.1994
    104  C         -9.2250    4.9510  -49.4450 C.2    85  THR85       0.2618
    105  O         -8.9820    5.3170  -50.5930 O.2    85  THR85      -0.2717
    106  CB        -7.7010    4.3370  -47.6060 C.3    85  THR85       0.1784
    107  OG1       -6.6670    5.2000  -48.0440 O.3    85  THR85      -0.2211
    108  CG2       -7.1480    3.2500  -46.7450 C.3    85  THR85       0.0376
    109  N        -10.1270    5.5650  -48.6580 N.am   86  ASP86      -0.1959
    110  CA       -10.8670    6.7640  -49.0750 C.3    86  ASP86       0.1840
    111  C         -9.8880    7.9280  -49.2030 C.2    86  ASP86       0.2622
    112  O         -8.8540    7.9480  -48.5190 O.2    86  ASP86      -0.2715
    113  CB       -11.8620    7.2050  -48.0050 C.3    86  ASP86       0.1450
    114  CG       -12.6200    6.1200  -47.3160 C.2    86  ASP86       0.3671
    115  OD1      -13.4750    5.4930  -47.9710 O.co2  86  ASP86      -0.2456
    116  OD2      -12.4330    5.9620  -46.0880 O.co2  86  ASP86      -0.2456
    117  N        -10.2390    8.9230  -50.0370 N.am   87  TYR87      -0.1960
    118  CA        -9.4390   10.1330  -50.1230 C.3    87  TYR87       0.1771
    119  C        -10.1810   11.2220  -49.3500 C.2    87  TYR87       0.2619
    120  O        -11.3480   11.5250  -49.6480 O.2    87  TYR87      -0.2715
    121  CB        -9.1520   10.5650  -51.5720 C.3    87  TYR87       0.0574
    122  CG        -8.3000   11.8160  -51.6460 C.ar   87  TYR87      -0.0198
    123  CD1       -6.9920   11.8210  -51.1680 C.ar   87  TYR87      -0.0009
    124  CD2       -8.7900   12.9840  -52.2190 C.ar   87  TYR87      -0.0009
    125  CE1       -6.2060   12.9770  -51.2130 C.ar   87  TYR87       0.0417
    126  CE2       -8.0090   14.1430  -52.2880 C.ar   87  TYR87       0.0417
    127  CZ        -6.7140   14.1320  -51.7890 C.ar   87  TYR87       0.1957
    128  OH        -5.9330   15.2590  -51.8600 O.3    87  TYR87      -0.2866
    129  N         -9.5150   11.7580  -48.3140 N.am   88  MET88      -0.1977
    130  CA       -10.0410   12.8140  -47.4580 C.3    88  MET88       0.1605
    131  C         -9.3430   14.0990  -47.8740 C.2    88  MET88       0.2287
    132  O         -8.2070   14.3740  -47.4840 O.2    88  MET88      -0.2864
    133  CB        -9.8490   12.4530  -45.9780 C.3    88  MET88       0.0413
    134  CG       -10.4930   11.1140  -45.5920 C.3    88  MET88       0.0598
    135  SD       -12.3000   11.0440  -45.7680 S.3    88  MET88      -0.1393
    136  CE       -12.7880   11.9030  -44.3390 C.3    88  MET88       0.0692
    137  N         -7.3010   17.0440  -45.7550 N.3    91  GLY91      -0.1225
    138  CA        -6.1540   16.6980  -44.9090 C.3    91  GLY91       0.1811
    139  C         -6.5460   16.3490  -43.4860 C.2    91  GLY91       0.2280
    140  O         -7.7070   16.0300  -43.2280 O.2    91  GLY91      -0.2866
    141  N        -15.0930    1.7040  -32.3420 N.3   130  LEU130     -0.1245
    142  CA       -13.8310    1.0070  -31.9970 C.3   130  LEU130      0.1561
    143  C        -13.9370    0.2990  -30.6190 C.2   130  LEU130      0.2260
    144  O        -13.5170   -0.8600  -30.4690 O.2   130  LEU130     -0.2867
    145  CB       -12.6000    1.9500  -32.0700 C.3   130  LEU130      0.0270
    146  CG       -12.2200    2.5480  -33.4750 C.3   130  LEU130      0.0019
    147  CD1      -10.9330    3.4150  -33.4090 C.3   130  LEU130      0.0001
    148  CD2      -12.0030    1.4590  -34.5360 C.3   130  LEU130      0.0001
    149  N        -11.3900   -2.4970  -29.7000 N.3   135  PHE135     -0.1241
    150  CA       -10.1910   -2.0340  -30.3980 C.3   135  PHE135      0.1605
    151  C         -9.7160   -0.7360  -29.7460 C.2   135  PHE135      0.2264
    152  O        -10.4630    0.2400  -29.7080 O.2   135  PHE135     -0.2867
    153  CB       -10.4600   -1.8650  -31.9170 C.3   135  PHE135      0.0534
    154  CG        -9.2550   -1.4190  -32.7120 C.ar  135  PHE135     -0.0203
    155  CD1       -8.3560   -2.3460  -33.2250 C.ar  135  PHE135     -0.0042
    156  CD2       -9.0150   -0.0660  -32.9440 C.ar  135  PHE135     -0.0042
    157  CE1       -7.2220   -1.9270  -33.9230 C.ar  135  PHE135     -0.0003
    158  CE2       -7.8850    0.3490  -33.6490 C.ar  135  PHE135     -0.0003
    159  CZ        -6.9940   -0.5820  -34.1310 C.ar  135  PHE135     -0.0000
    160  N         -7.4640    2.3570  -29.9250 N.3   137  HIS137     -0.1226
    161  CA        -6.7920    3.2130  -30.9040 C.3   137  HIS137      0.1752
    162  C         -5.3410    3.4510  -30.5050 C.2   137  HIS137      0.2595
    163  O         -4.4480    3.2100  -31.3070 O.2   137  HIS137     -0.2718
    164  CB        -7.5410    4.5440  -31.0400 C.3   137  HIS137      0.0759
    165  CG        -7.0830    5.3400  -32.2190 C.ar  137  HIS137      0.0818
    166  ND1       -5.8740    6.0200  -32.2070 N.ar  137  HIS137     -0.2268
    167  CD2       -7.6550    5.4870  -33.4360 C.ar  137  HIS137      0.1154
    168  CE1       -5.7550    6.5590  -33.4080 C.ar  137  HIS137      0.1986
    169  NE2       -6.7910    6.2510  -34.1860 N.ar  137  HIS137     -0.2212
    170  N         -5.1220    3.8970  -29.2450 N.am  138  ARG138     -0.1980
    171  CA        -3.8370    4.1800  -28.5920 C.3   138  ARG138      0.1597
    172  C         -3.2220    5.5320  -28.9740 C.2   138  ARG138      0.2287
    173  O         -2.3170    5.9690  -28.2700 O.2   138  ARG138     -0.2864
    174  CB        -2.8040    3.0510  -28.7830 C.3   138  ARG138      0.0334
    175  CG        -3.1280    1.7380  -28.0720 C.3   138  ARG138      0.0492
    176  CD        -2.0350    0.6900  -28.2660 C.3   138  ARG138      0.2205
    177  NE        -1.8550    0.3160  -29.6730 N.pl3 138  ARG138     -0.0865
    178  CZ        -0.7680    0.5910  -30.3920 C.cat 138  ARG138      0.5346
    179  NH1       -0.6970    0.2260  -31.6650 N.pl3 138  ARG138      0.1354
    180  NH2        0.2550    1.2370  -29.8440 N.pl3 138  ARG138      0.1354
    181  N         -9.0170   12.6710  -40.0480 N.3   146  LEU146     -0.1245
    182  CA        -9.0260   13.1460  -41.4330 C.3   146  LEU146      0.1561
    183  C        -10.3170   13.8490  -41.8000 C.2   146  LEU146      0.2260
    184  O        -11.3930   13.4120  -41.3820 O.2   146  LEU146     -0.2867
    185  CB        -8.7330   11.9980  -42.4000 C.3   146  LEU146      0.0270
    186  CG        -7.3290   11.3750  -42.3610 C.3   146  LEU146      0.0019
    187  CD1       -7.2930   10.1170  -43.1820 C.3   146  LEU146      0.0001
    188  CD2       -6.2640   12.3350  -42.9250 C.3   146  LEU146      0.0001
    189  N        -11.5870    8.9380  -38.3430 N.3   155  ILE155     -0.1231
    190  CA       -10.4520    8.6830  -37.4690 C.3   155  ILE155      0.1692
    191  C         -9.4940    7.7770  -38.2490 C.2   155  ILE155      0.2592
    192  O         -9.9350    6.8040  -38.8610 O.2   155  ILE155     -0.2718
    193  CB       -10.9370    8.0480  -36.1330 C.3   155  ILE155      0.0266
    194  CG1      -11.8070    9.0470  -35.3330 C.3   155  ILE155      0.0019
    195  CG2       -9.7480    7.5790  -35.2990 C.3   155  ILE155      0.0020
    196  CD1      -12.8740    8.3920  -34.4960 C.3   155  ILE155      0.0001
    197  N         -8.2040    8.1260  -38.2700 N.am  156  ALA156     -0.1966
    198  CA        -7.1690    7.3520  -38.9450 C.3   156  ALA156      0.1728
    199  C         -6.0450    7.0720  -37.9500 C.2   156  ALA156      0.2616
    200  O         -6.2130    7.3600  -36.7710 O.2   156  ALA156     -0.2715
    201  CB        -6.6320    8.1630  -40.1030 C.3   156  ALA156      0.0334
    202  N         -4.8880    6.5530  -38.4260 N.am  157  ASP157     -0.1957
    203  CA        -3.6810    6.3530  -37.6350 C.3   157  ASP157      0.1840
    204  C         -2.4760    6.3160  -38.5730 C.2   157  ASP157      0.2622
    205  O         -2.2530    5.3330  -39.2930 O.2   157  ASP157     -0.2715
    206  CB        -3.7480    5.1000  -36.7360 C.3   157  ASP157      0.1450
    207  CG        -2.7560    5.0860  -35.5710 C.2   157  ASP157      0.3671
    208  OD1       -1.9520    6.0490  -35.4500 O.co2 157  ASP157     -0.2456
    209  OD2       -2.7920    4.1200  -34.7700 O.co2 157  ASP157     -0.2456
    210  N         -1.7370    7.4280  -38.6130 N.am  158  PHE158     -0.1960
    211  CA        -0.5580    7.5310  -39.4630 C.3   158  PHE158      0.1771
    212  C          0.6850    7.0460  -38.7500 C.2   158  PHE158      0.2620
    213  O          1.6980    6.7740  -39.3920 O.2   158  PHE158     -0.2715
    214  CB        -0.3870    8.9620  -39.9990 C.3   158  PHE158      0.0574
    215  CG        -1.4170    9.2970  -41.0460 C.ar  158  PHE158     -0.0200
    216  CD1       -2.7060    9.6840  -40.6810 C.ar  158  PHE158     -0.0042
    217  CD2       -1.1130    9.2050  -42.3990 C.ar  158  PHE158     -0.0042
    218  CE1       -3.6720    9.9540  -41.6530 C.ar  158  PHE158     -0.0003
    219  CE2       -2.0790    9.4860  -43.3720 C.ar  158  PHE158     -0.0003
    220  CZ        -3.3530    9.8610  -42.9910 C.ar  158  PHE158     -0.0000
    221  N          0.5960    6.9260  -37.4310 N.am  159  GLY159     -0.1940
    222  CA         1.7310    6.5470  -36.6080 C.3   159  GLY159      0.2014
    223  C          2.6970    7.7090  -36.5660 C.2   159  GLY159      0.2638
    224  O          2.2920    8.8410  -36.3010 O.2   159  GLY159     -0.2714
    225  N          3.9560    7.4500  -36.9030 N.am  160  MET160     -0.1976
    226  CA         5.0330    8.4460  -36.9240 C.3   160  MET160      0.1605
    227  C          5.5690    8.6400  -38.3630 C.2   160  MET160      0.2287
    228  O          6.6260    9.2520  -38.5550 O.2   160  MET160     -0.2864
    229  CB         6.1590    8.0250  -35.9520 C.3   160  MET160      0.0413
    230  CG         5.9810    6.6120  -35.3730 C.3   160  MET160      0.0598
    231  SD         7.4010    5.4960  -35.5590 S.3   160  MET160     -0.1393
    232  CE         7.5170    5.3890  -37.3860 C.3   160  MET160      0.0692
@<TRIPOS>BOND
     1    27    25    1
     2    26    25    1
     3    25    22    1
     4     1     2    1
     5    12    11    2
     6    11    10    1
     7    22    21    1
     8    22    23    1
     9    24    23    2
    10   126   124   ar
    11   126   127   ar
    12    21    18   am
    13   124   122   ar
    14     8     6    1
    15     6     7    1
    16     6     5    1
    17     2     5    1
    18     2     3    1
    19    16    17    1
    20    23    28   am
    21   128   127    1
    22   127   125   ar
    23   122   121    1
    24   122   123   ar
    25   121   118    1
    26    17    18    1
    27    17    20    1
    28    18    19    2
    29     9    10    1
    30    10    13    1
    31    30    31    2
    32    30    29    1
    33   125   123   ar
    34     3     4    2
    35    28    29    1
    36    94    95    1
    37    97    96    2
    38   105   104    2
    39    29    32    1
    40    96    95    1
    41    95    98    1
    42   118   117    1
    43   118   119    1
    44    13    14    1
    45    13    15    1
    46   117   111   am
    47   102   103    1
    48   120   119    2
    49   104   103    1
    50   104   109   am
    51   119   129   am
    52   111   110    1
    53   111   112    2
    54   110   109    1
    55   110   113    1
    56    32    33    1
    57   103   106    1
    58    98    99    1
    59    33    34    1
    60   129   130    1
    61    99   100    1
    62   107   106    1
    63   113   114    1
    64   115   114   ar
    65   131   132    2
    66   131   130    1
    67   106   108    1
    68   130   133    1
    69   114   116   ar
    70    34    35    1
    71   101   100    1
    72    35    36    1
    73   133   134    1
    74   135   134    1
    75   135   136    1
    76   137   138    1
    77   138   139    1
    78    93    91    1
    79    91    90    1
    80    69    68    1
    81   139   140    2
    82   219   220   ar
    83   219   217   ar
    84   187   186    1
    85    68    67    1
    86   220   218   ar
    87    88    87    1
    88    88    89    2
    89   188   186    1
    90    52    51   ar
    91   185   186    1
    92   185   182    1
    93   217   215   ar
    94    87    90    1
    95    87    86    1
    96    90    92    1
    97    51    53   ar
    98    51    50    1
    99    66    67    1
   100    66    63    1
   101    47    48    2
   102    47    46    1
   103    39    40    2
   104    39    38    1
   105    49    50    1
   106    49    46    1
   107    64    65    2
   108    64    63    1
   109   183   182    1
   110   183   184    2
   111    81    80    2
   112   218   216   ar
   113    73    72    2
   114    37    38    1
   115   182   181    1
   116    46    45    1
   117    63    62    1
   118    38    41    1
   119    86    80   am
   120   215   216   ar
   121   215   214    1
   122    41    42    1
   123    80    79    1
   124    72    71    1
   125    62    56   am
   126   201   198    1
   127   214   211    1
   128    70    71    1
   129    54    55    1
   130    42    44   ar
   131    42    43   ar
   132    78    79    1
   133    71    74    1
   134    56    57    2
   135    56    55    1
   136    79    82    1
   137   211   212    1
   138   211   210    1
   139   213   212    2
   140   205   204    2
   141    74    75    1
   142   198   197    1
   143   198   199    1
   144   192   191    2
   145    55    58    1
   146    84    82    1
   147    82    83    1
   148   212   221   am
   149   210   204   am
   150   204   203    1
   151   228   227    2
   152   202   199   am
   153   202   203    1
   154   227   226    1
   155   189   190    1
   156   197   191   am
   157   191   190    1
   158    58    59    1
   159    58    60    1
   160    75    76    1
   161    75    77    1
   162   199   200    2
   163   203   206    1
   164   190   193    1
   165   221   222    1
   166    59    61    1
   167   232   231    1
   168    83    85    1
   169   226   225    1
   170   226   229    1
   171   225   223   am
   172   206   207    1
   173   222   223    1
   174   223   224    2
   175   193   194    1
   176   193   195    1
   177   229   230    1
   178   207   208   ar
   179   207   209   ar
   180   231   230    1
   181   194   196    1
   182   148   146    1
   183   169   167   ar
   184   169   168   ar
   185   159   157   ar
   186   159   158   ar
   187   157   155   ar
   188   158   156   ar
   189   146   147    1
   190   146   145    1
   191   167   165   ar
   192   168   166   ar
   193   155   154   ar
   194   156   154   ar
   195   154   153    1
   196   141   142    1
   197   165   166   ar
   198   165   164    1
   199   145   142    1
   200   142   143    1
   201   153   150    1
   202   179   178    1
   203   163   162    2
   204   164   161    1
   205   161   162    1
   206   161   160    1
   207   143   144    2
   208   162   170   am
   209   150   151    1
   210   150   149    1
   211   178   180    1
   212   178   177    2
   213   151   152    2
   214   177   176    1
   215   170   171    1
   216   172   171    1
   217   172   173    2
   218   174   171    1
   219   174   175    1
   220   176   175    1
