@<TRIPOS>MOLECULE
tmp/5fdqA01.pdb
 159 154 0 0 0
SMALL
GASTEIGER

@<TRIPOS>ATOM
      1  N         12.4100   15.2040   60.7340 N.3    89  ARG89      -0.1245
      2  CA        13.2640   16.2790   61.2480 C.3    89  ARG89       0.1563
      3  C         13.5190   17.3510   60.1810 C.2    89  ARG89       0.2260
      4  O         13.5000   18.5470   60.4790 O.2    89  ARG89      -0.2867
      5  CB        14.5950   15.7230   61.7570 C.3    89  ARG89       0.0307
      6  CG        14.4600   14.7740   62.9500 C.3    89  ARG89       0.0489
      7  CD        13.8360   15.4600   64.1360 C.3    89  ARG89       0.2205
      8  NE        13.9370   14.6890   65.3870 N.pl3  89  ARG89      -0.0865
      9  CZ        13.6080   15.2000   66.5690 C.cat  89  ARG89       0.5346
     10  NH1       13.1840   16.4530   66.6210 N.pl3  89  ARG89       0.1354
     11  NH2       13.7060   14.4860   67.6860 N.pl3  89  ARG89       0.1354
     12  N         34.4450   18.9310   65.7310 N.3   174  PHE174     -0.1241
     13  CA        33.5140   18.7010   64.6210 C.3   174  PHE174      0.1605
     14  C         32.7430   19.9730   64.2680 C.2   174  PHE174      0.2264
     15  O         32.7360   20.3840   63.0960 O.2   174  PHE174     -0.2867
     16  CB        32.5270   17.5460   64.9470 C.3   174  PHE174      0.0534
     17  CG        31.3880   17.4360   63.9520 C.ar  174  PHE174     -0.0203
     18  CD1       31.6460   17.0530   62.6360 C.ar  174  PHE174     -0.0042
     19  CD2       30.0700   17.7170   64.3320 C.ar  174  PHE174     -0.0042
     20  CE1       30.6280   16.9830   61.6840 C.ar  174  PHE174     -0.0003
     21  CE2       29.0310   17.6250   63.4030 C.ar  174  PHE174     -0.0003
     22  CZ        29.3110   17.2480   62.0680 C.ar  174  PHE174     -0.0000
     23  N         28.0420    9.5850   67.6720 N.3   317  TYR317     -0.1227
     24  CA        27.9390   10.8630   68.4030 C.3   317  TYR317      0.1736
     25  C         26.4870   11.2110   68.6850 C.2   317  TYR317      0.2595
     26  O         26.0890   11.3310   69.8580 O.2   317  TYR317     -0.2718
     27  CB        28.6450   11.9410   67.6050 C.3   317  TYR317      0.0548
     28  CG        28.5000   13.3740   68.0720 C.ar  317  TYR317     -0.0200
     29  CD1       29.4240   13.9350   68.9310 C.ar  317  TYR317     -0.0009
     30  CD2       27.4790   14.1740   67.5910 C.ar  317  TYR317     -0.0009
     31  CE1       29.3360   15.2460   69.3310 C.ar  317  TYR317      0.0417
     32  CE2       27.3560   15.5210   67.9990 C.ar  317  TYR317      0.0417
     33  CZ        28.2970   16.0410   68.8610 C.ar  317  TYR317      0.1957
     34  OH        28.2060   17.3460   69.2720 O.3   317  TYR317     -0.2866
     35  N         25.6670   11.2580   67.6350 N.am  318  VAL318     -0.1980
     36  CA        24.2400   11.5420   67.8350 C.3   318  VAL318      0.1595
     37  C         23.6090   10.3630   68.5970 C.2   318  VAL318      0.2287
     38  O         22.7860   10.5580   69.5110 O.2   318  VAL318     -0.2864
     39  CB        23.5180   11.8290   66.4720 C.3   318  VAL318      0.0276
     40  CG1       21.9720   11.8160   66.6220 C.3   318  VAL318      0.0022
     41  CG2       24.0060   13.1730   65.9020 C.3   318  VAL318      0.0022
     42  N         24.3100   10.9280   72.3150 N.3   321  LEU321     -0.1231
     43  CA        23.4980   12.0590   72.7990 C.3   321  LEU321      0.1693
     44  C         22.0120   11.7530   72.9270 C.2   321  LEU321      0.2592
     45  O         21.3530   12.2110   73.8550 O.2   321  LEU321     -0.2718
     46  CB        23.6410   13.2490   71.8410 C.3   321  LEU321      0.0284
     47  CG        24.8950   14.0440   72.0490 C.3   321  LEU321      0.0019
     48  CD1       24.9700   15.1690   70.9990 C.3   321  LEU321      0.0001
     49  CD2       24.8610   14.5790   73.5000 C.3   321  LEU321      0.0001
     50  N         21.4880   11.0090   71.9530 N.am  322  SER322     -0.1952
     51  CA        20.0650   10.7530   71.8630 C.3   322  SER322      0.1924
     52  C         19.6070    9.9910   73.0850 C.2   322  SER322      0.2314
     53  O         18.5280   10.2340   73.6040 O.2   322  SER322     -0.2863
     54  CB        19.7180    9.9500   70.6010 C.3   322  SER322      0.2116
     55  OG        20.1550    8.6000   70.7030 O.3   322  SER322     -0.2180
     56  N         18.8560    6.9680   72.7630 N.3   324  TYR324     -0.1241
     57  CA        17.8810    6.0090   72.2120 C.3   324  TYR324      0.1605
     58  C         18.3880    4.5890   72.2740 C.2   324  TYR324      0.2264
     59  O         19.5870    4.3430   72.1690 O.2   324  TYR324     -0.2867
     60  CB        17.5290    6.3000   70.7470 C.3   324  TYR324      0.0534
     61  CG        16.9730    7.6740   70.4480 C.ar  324  TYR324     -0.0201
     62  CD1       16.3810    8.4420   71.4440 C.ar  324  TYR324     -0.0009
     63  CD2       17.0220    8.1870   69.1620 C.ar  324  TYR324     -0.0009
     64  CE1       15.8850    9.7040   71.1670 C.ar  324  TYR324      0.0417
     65  CE2       16.5180    9.4630   68.8730 C.ar  324  TYR324      0.0417
     66  CZ        15.9510   10.2030   69.8900 C.ar  324  TYR324      0.1957
     67  OH        15.4490   11.4630   69.6440 O.3   324  TYR324     -0.2866
     68  N         20.4810    4.3000   65.4290 N.3   328  LEU328     -0.1245
     69  CA        20.5640    5.1630   64.2370 C.3   328  LEU328      0.1561
     70  C         21.4990    4.6080   63.1520 C.2   328  LEU328      0.2260
     71  O         22.4680    3.9040   63.4490 O.2   328  LEU328     -0.2867
     72  CB        21.0330    6.5550   64.6600 C.3   328  LEU328      0.0270
     73  CG        20.1370    7.2410   65.7050 C.3   328  LEU328      0.0019
     74  CD1       20.7970    8.5130   66.2060 C.3   328  LEU328      0.0001
     75  CD2       18.7430    7.5480   65.1720 C.3   328  LEU328      0.0001
     76  N         22.7230   27.5320   69.9160 N.3   353  LEU353     -0.1231
     77  CA        22.3050   26.4110   70.7690 C.3   353  LEU353      0.1693
     78  C         23.4720   25.4570   71.0430 C.2   353  LEU353      0.2592
     79  O         23.4530   24.7540   72.0600 O.2   353  LEU353     -0.2718
     80  CB        21.1110   25.6450   70.1630 C.3   353  LEU353      0.0284
     81  CG        21.2850   24.7180   68.9560 C.3   353  LEU353      0.0019
     82  CD1       21.8420   23.3240   69.3100 C.3   353  LEU353      0.0001
     83  CD2       19.9290   24.5780   68.2740 C.3   353  LEU353      0.0001
     84  N         24.5000   25.4760   70.1820 N.am  354  TYR354     -0.1976
     85  CA        25.6720   24.6240   70.3600 C.3   354  TYR354      0.1639
     86  C         26.7530   25.2230   71.2680 C.2   354  TYR354      0.2290
     87  O         27.8610   24.6900   71.3390 O.2   354  TYR354     -0.2864
     88  CB        26.3230   24.2930   69.0020 C.3   354  TYR354      0.0560
     89  CG        26.3300   22.8060   68.7430 C.ar  354  TYR354     -0.0198
     90  CD1       27.2120   21.9800   69.4180 C.ar  354  TYR354     -0.0009
     91  CD2       25.4630   22.2370   67.8170 C.ar  354  TYR354     -0.0009
     92  CE1       27.2220   20.6070   69.1860 C.ar  354  TYR354      0.0417
     93  CE2       25.4640   20.8620   67.5690 C.ar  354  TYR354      0.0417
     94  CZ        26.3460   20.0620   68.2590 C.ar  354  TYR354      0.1957
     95  OH        26.3550   18.7080   68.0510 O.3   354  TYR354     -0.2866
     96  N         27.8250   24.8430   74.1550 N.3   356  TRP356     -0.1241
     97  CA        27.6780   23.9010   75.2590 C.3   356  TRP356      0.1605
     98  C         28.8030   24.0430   76.2950 C.2   356  TRP356      0.2264
     99  O         29.4380   23.0690   76.6780 O.2   356  TRP356     -0.2867
    100  CB        27.6710   22.4760   74.7210 C.3   356  TRP356      0.0550
    101  CG        26.4930   22.1470   73.8630 C.ar  356  TRP356      0.0003
    102  CD1       25.3640   22.8960   73.6810 C.ar  356  TRP356      0.0946
    103  CD2       26.3370   20.9680   73.0770 C.ar  356  TRP356      0.0152
    104  NE1       24.4950   22.2370   72.8130 N.ar  356  TRP356     -0.2442
    105  CE2       25.0760   21.0510   72.4330 C.ar  356  TRP356      0.0810
    106  CE3       27.1350   19.8310   72.8650 C.ar  356  TRP356      0.0012
    107  CZ2       24.6120   20.0530   71.5500 C.ar  356  TRP356      0.0191
    108  CZ3       26.6520   18.8180   71.9980 C.ar  356  TRP356      0.0001
    109  CH2       25.4060   18.9430   71.3730 C.ar  356  TRP356      0.0015
    110  N         20.3680   17.0220   78.1690 N.3   487  PHE487     -0.1241
    111  CA        19.6300   18.1130   77.5080 C.3   487  PHE487      0.1605
    112  C         18.1690   18.1290   77.8750 C.2   487  PHE487      0.2264
    113  O         17.6070   17.0940   78.2270 O.2   487  PHE487     -0.2867
    114  CB        19.6570   17.9720   75.9730 C.3   487  PHE487      0.0534
    115  CG        20.9980   18.0840   75.3670 C.ar  487  PHE487     -0.0203
    116  CD1       21.9120   19.0120   75.8280 C.ar  487  PHE487     -0.0042
    117  CD2       21.3350   17.2700   74.2990 C.ar  487  PHE487     -0.0042
    118  CE1       23.1490   19.1290   75.2430 C.ar  487  PHE487     -0.0003
    119  CE2       22.5660   17.3770   73.6990 C.ar  487  PHE487     -0.0003
    120  CZ        23.4950   18.2880   74.1850 C.ar  487  PHE487     -0.0000
    121  N         16.5260   21.9390   73.3940 N.3   491  MET491     -0.1230
    122  CA        17.8260   21.6870   72.7960 C.3   491  MET491      0.1702
    123  C         17.7540   20.6060   71.7220 C.2   491  MET491      0.2592
    124  O         18.2950   20.7400   70.6040 O.2   491  MET491     -0.2718
    125  CB        18.8470   21.2560   73.8690 C.3   491  MET491      0.0401
    126  CG        20.2110   20.9820   73.2210 C.3   491  MET491      0.0596
    127  SD        21.0450   22.5580   72.8810 S.3   491  MET491     -0.1393
    128  CE        21.6110   22.9850   74.5630 C.3   491  MET491      0.0692
    129  N         17.0910   19.5200   72.0750 N.am  492  VAL492     -0.1980
    130  CA        16.9800   18.3730   71.1960 C.3   492  VAL492      0.1595
    131  C         16.0730   18.6820   70.0100 C.2   492  VAL492      0.2287
    132  O         16.4130   18.3550   68.8910 O.2   492  VAL492     -0.2864
    133  CB        16.4460   17.1500   71.9520 C.3   492  VAL492      0.0276
    134  CG1       16.2170   15.9790   71.0190 C.3   492  VAL492      0.0022
    135  CG2       17.4360   16.7370   73.0140 C.3   492  VAL492      0.0022
    136  N         18.0040   21.2280   67.8820 N.3   495  GLY495     -0.1210
    137  CA        19.2960   20.6970   67.4680 C.3   495  GLY495      0.1956
    138  C         19.2180   19.5650   66.4510 C.2   495  GLY495      0.2611
    139  O         20.0370   19.4990   65.5270 O.2   495  GLY495     -0.2717
    140  N         18.2490   18.6710   66.6160 N.am  496  ALA496     -0.1979
    141  CA        18.1990   17.4810   65.7740 C.3   496  ALA496      0.1597
    142  C         17.8870   17.8420   64.3130 C.2   496  ALA496      0.2287
    143  O         18.5900   17.3710   63.4230 O.2   496  ALA496     -0.2864
    144  CB        17.1730   16.4610   66.3130 C.3   496  ALA496      0.0319
    145  N         20.9590   19.4310   62.7650 N.3   499  THR499     -0.1203
    146  CA        22.0510   18.4660   62.6220 C.3   499  THR499      0.1994
    147  C         21.8300   17.5000   61.4660 C.2   499  THR499      0.2617
    148  O         22.7050   17.3280   60.6210 O.2   499  THR499     -0.2717
    149  CB        22.2320   17.6720   63.9410 C.3   499  THR499      0.1784
    150  OG1       22.6080   18.5950   64.9610 O.3   499  THR499     -0.2211
    151  CG2       23.3310   16.5990   63.8150 C.3   499  THR499      0.0376
    152  N         20.6550   16.8860   61.4220 N.am  500  LEU500     -0.1979
    153  CA        20.3940   15.8420   60.4230 C.3   500  LEU500      0.1596
    154  C         20.3720   16.4820   59.0230 C.2   500  LEU500      0.2287
    155  O         20.8310   15.9040   58.0100 O.2   500  LEU500     -0.2864
    156  CB        19.0920   15.1220   60.7620 C.3   500  LEU500      0.0297
    157  CG        19.1550   14.3470   62.1050 C.3   500  LEU500      0.0022
    158  CD1       17.8050   13.6990   62.4430 C.3   500  LEU500      0.0001
    159  CD2       20.2540   13.2850   62.1410 C.3   500  LEU500      0.0001
@<TRIPOS>BOND
     1   155   154    2
     2   154   153    1
     3     3     4    2
     4     3     2    1
     5   153   156    1
     6   153   152    1
     7   148   147    2
     8     1     2    1
     9   156   157    1
    10     2     5    1
    11   152   147   am
    12   147   146    1
    13    20    22   ar
    14    20    18   ar
    15     5     6    1
    16    22    21   ar
    17   157   159    1
    18   157   158    1
    19   146   145    1
    20   146   149    1
    21    18    17   ar
    22     6     7    1
    23    15    14    2
    24    70    71    2
    25    70    69    1
    26    21    19   ar
    27   143   142    2
    28   151   149    1
    29   149   150    1
    30    17    19   ar
    31    17    16    1
    32     7     8    1
    33    69    72    1
    34    69    68    1
    35    14    13    1
    36   142   141    1
    37    13    16    1
    38    13    12    1
    39    72    73    1
    40    75    73    1
    41     8     9    2
    42   139   138    2
    43    73    74    1
    44   141   144    1
    45   141   140    1
    46    41    39    1
    47   138   140   am
    48   138   137    1
    49    39    40    1
    50    39    36    1
    51     9    10    1
    52     9    11    1
    53   137   136    1
    54    93    91   ar
    55    93    94   ar
    56    30    32   ar
    57    30    28   ar
    58    27    28    1
    59    27    24    1
    60    35    36    1
    61    35    25   am
    62    23    24    1
    63    91    89   ar
    64    36    37    1
    65    32    33   ar
    66    95    94    1
    67    28    29   ar
    68    94    92   ar
    69    83    81    1
    70    24    25    1
    71    37    38    2
    72    25    26    2
    73    89    88    1
    74    89    90   ar
    75    33    34    1
    76    33    31   ar
    77    65    63   ar
    78    65    66   ar
    79   132   131    2
    80    29    31   ar
    81    81    82    1
    82    81    80    1
    83    88    85    1
    84    63    61   ar
    85    92    90   ar
    86    67    66    1
    87    66    64   ar
    88    76    77    1
    89   131   130    1
    90    80    77    1
    91    84    85    1
    92    84    78   am
    93    85    86    1
    94    61    60    1
    95    61    62   ar
    96    54    55    1
    97    54    51    1
    98   124   123    2
    99    60    57    1
   100    77    78    1
   101    48    47    1
   102   134   133    1
   103    78    79    2
   104    64    62   ar
   105   130   133    1
   106   130   129    1
   107    86    87    2
   108   109   107   ar
   109   109   108   ar
   110   107   105   ar
   111   123   129   am
   112   123   122    1
   113    46    47    1
   114    46    43    1
   115    51    50    1
   116    51    52    1
   117   133   135    1
   118    50    44   am
   119   108   106   ar
   120    47    49    1
   121    59    58    2
   122    57    58    1
   123    57    56    1
   124    42    43    1
   125   105   104   ar
   126   105   103   ar
   127   122   121    1
   128   122   125    1
   129    43    44    1
   130   104   102   ar
   131   106   103   ar
   132   127   126    1
   133   127   128    1
   134    44    45    2
   135   103   101   ar
   136    52    53    2
   137   126   125    1
   138   102   101   ar
   139   119   120   ar
   140   119   117   ar
   141   101   100    1
   142    96    97    1
   143   120   118   ar
   144   117   115   ar
   145   100    97    1
   146   118   116   ar
   147    97    98    1
   148   115   116   ar
   149   115   114    1
   150   114   111    1
   151    98    99    2
   152   111   112    1
   153   111   110    1
   154   112   113    2
