@<TRIPOS>MOLECULE
tmp/5fdrD00.pdb
 184 174 0 0 0
SMALL
GASTEIGER

@<TRIPOS>ATOM
      1  N         56.8360   10.5680   36.8530 N.3    51  HIS51      -0.1241
      2  CA        55.9910   10.3070   35.6960 C.3    51  HIS51       0.1621
      3  C         56.5080   10.9230   34.4070 C.2    51  HIS51       0.2264
      4  O         55.7390   11.1140   33.4600 O.2    51  HIS51      -0.2867
      5  CB        54.5710   10.8110   35.9270 C.3    51  HIS51       0.0745
      6  CG        53.8550   10.1560   37.0660 C.ar   51  HIS51       0.0817
      7  ND1       52.5080    9.8690   37.0210 N.ar   51  HIS51      -0.2268
      8  CD2       54.2630    9.8040   38.3040 C.ar   51  HIS51       0.1154
      9  CE1       52.1200    9.3340   38.1680 C.ar   51  HIS51       0.1986
     10  NE2       53.1670    9.2950   38.9680 N.ar   51  HIS51      -0.2212
     11  N         55.6950    8.8530   31.1150 N.3    54  ALA54      -0.1231
     12  CA        54.2610    8.8830   30.8190 C.3    54  ALA54       0.1694
     13  C         53.7890   10.2850   30.4140 C.2    54  ALA54       0.2592
     14  O         53.0980   10.4500   29.4010 O.2    54  ALA54      -0.2718
     15  CB        53.4720    8.3500   32.0210 C.3    54  ALA54       0.0304
     16  N         54.1550   11.3050   31.1990 N.am   55  PHE55      -0.1976
     17  CA        53.7770   12.6930   30.9040 C.3    55  PHE55       0.1639
     18  C         54.2860   13.1140   29.5250 C.2    55  PHE55       0.2290
     19  O         53.5170   13.5470   28.6650 O.2    55  PHE55      -0.2864
     20  CB        54.3610   13.6190   31.9760 C.3    55  PHE55       0.0560
     21  CG        53.6150   13.6030   33.2750 C.ar   55  PHE55      -0.0200
     22  CD1       52.4990   12.7960   33.4440 C.ar   55  PHE55      -0.0042
     23  CD2       54.0870   14.3250   34.3670 C.ar   55  PHE55      -0.0042
     24  CE1       51.8140   12.7630   34.6600 C.ar   55  PHE55      -0.0003
     25  CE2       53.4150   14.2930   35.5870 C.ar   55  PHE55      -0.0003
     26  CZ        52.2780   13.5120   35.7350 C.ar   55  PHE55      -0.0000
     27  N         52.6580   11.4720   26.6470 N.3    58  MET58      -0.1245
     28  CA        51.2900   11.9290   26.4540 C.3    58  MET58       0.1570
     29  C         51.2500   13.3160   25.8150 C.2    58  MET58       0.2261
     30  O         50.5030   13.5310   24.8520 O.2    58  MET58      -0.2867
     31  CB        50.5820   11.9620   27.8010 C.3    58  MET58       0.0387
     32  CG        49.0750   12.2420   27.7220 C.3    58  MET58       0.0595
     33  SD        48.0280   10.9290   27.0490 S.3    58  MET58      -0.1393
     34  CE        47.7390   11.4750   25.3920 C.3    58  MET58       0.0692
     35  N         49.6870   14.6120   22.3440 N.3    62  LEU62      -0.1245
     36  CA        48.6850   15.6750   22.2940 C.3    62  LEU62       0.1561
     37  C         49.1020   16.8240   21.3990 C.2    62  LEU62       0.2260
     38  O         48.2520   17.4000   20.7220 O.2    62  LEU62      -0.2867
     39  CB        48.4170   16.2200   23.6980 C.3    62  LEU62       0.0270
     40  CG        47.7680   15.2170   24.6650 C.3    62  LEU62       0.0019
     41  CD1       47.6700   15.7570   26.0980 C.3    62  LEU62       0.0001
     42  CD2       46.4240   14.7540   24.1460 C.3    62  LEU62       0.0001
     43  N         41.6430   20.3640   24.7600 N.3    73  LEU73      -0.1245
     44  CA        42.1400   19.3400   25.6780 C.3    73  LEU73       0.1561
     45  C         41.1030   18.8070   26.6560 C.2    73  LEU73       0.2260
     46  O         41.3640   17.7880   27.3190 O.2    73  LEU73      -0.2867
     47  CB        43.3270   19.8540   26.4750 C.3    73  LEU73       0.0270
     48  CG        44.6380   20.0630   25.7350 C.3    73  LEU73       0.0019
     49  CD1       45.5040   20.7640   26.7050 C.3    73  LEU73       0.0001
     50  CD2       45.3000   18.7480   25.3290 C.3    73  LEU73       0.0001
     51  N         39.6630   14.9410   26.3640 N.3    76  VAL76      -0.1231
     52  CA        40.6300   13.9070   26.7330 C.3    76  VAL76       0.1692
     53  C         40.9340   13.9590   28.2190 C.2    76  VAL76       0.2591
     54  O         41.1720   12.9230   28.8560 O.2    76  VAL76      -0.2718
     55  CB        41.8980   14.0510   25.8960 C.3    76  VAL76       0.0266
     56  CG1       42.6880   12.7590   25.9380 C.3    76  VAL76       0.0020
     57  CG2       41.4700   14.3600   24.5220 C.3    76  VAL76       0.0020
     58  N         40.9590   15.1640   28.7900 N.am   77  MET77      -0.1979
     59  CA        41.2170   15.2740   30.2170 C.3    77  MET77       0.1605
     60  C         40.0970   14.6520   31.0280 C.2    77  MET77       0.2287
     61  O         40.3570   13.9230   31.9950 O.2    77  MET77      -0.2864
     62  CB        41.4000   16.7370   30.5750 C.3    77  MET77       0.0413
     63  CG        41.5850   17.0300   32.0400 C.3    77  MET77       0.0598
     64  SD        42.3650   18.6550   32.2020 S.3    77  MET77      -0.1393
     65  CE        41.1490   19.7720   31.5840 C.3    77  MET77       0.0692
     66  N         38.2600   12.2200   29.8390 N.3    79  HIS79      -0.1226
     67  CA        38.3640   10.7870   29.5870 C.3    79  HIS79       0.1752
     68  C         39.3450   10.1470   30.5570 C.2    79  HIS79       0.2596
     69  O         39.0210    9.1500   31.2060 O.2    79  HIS79      -0.2718
     70  CB        38.7810   10.5590   28.1250 C.3    79  HIS79       0.0759
     71  CG        39.0430    9.1290   27.7360 C.ar   79  HIS79       0.0818
     72  ND1       40.3150    8.5950   27.6510 N.ar   79  HIS79      -0.2268
     73  CD2       38.2070    8.1540   27.3020 C.ar   79  HIS79       0.1154
     74  CE1       40.2480    7.3480   27.2180 C.ar   79  HIS79       0.1986
     75  NE2       38.9790    7.0530   27.0070 N.ar   79  HIS79      -0.2212
     76  N         40.5000   10.7690   30.7720 N.am   80  VAL80      -0.1966
     77  CA        41.4520   10.0930   31.6470 C.3    80  VAL80       0.1727
     78  C         41.0830   10.2870   33.1260 C.2    80  VAL80       0.2616
     79  O         41.2640    9.3700   33.9380 O.2    80  VAL80      -0.2715
     80  CB        42.8960   10.5420   31.3460 C.3    80  VAL80       0.0290
     81  CG1       43.8260    9.9590   32.3690 C.3    80  VAL80       0.0023
     82  CG2       43.3370   10.1260   29.9680 C.3    80  VAL80       0.0023
     83  N         40.5520   11.4700   33.5060 N.am   81  PHE81      -0.1974
     84  CA        40.3900   11.8200   34.9220 C.3    81  PHE81       0.1639
     85  C         39.0200   11.5400   35.5430 C.2    81  PHE81       0.2290
     86  O         38.9500   11.2100   36.7390 O.2    81  PHE81      -0.2864
     87  CB        40.6650   13.3110   35.1090 C.3    81  PHE81       0.0560
     88  CG        40.2510   13.8530   36.4460 C.ar   81  PHE81      -0.0200
     89  CD1       40.9600   13.5260   37.5860 C.ar   81  PHE81      -0.0042
     90  CD2       39.1540   14.6920   36.5560 C.ar   81  PHE81      -0.0042
     91  CE1       40.5910   14.0160   38.7970 C.ar   81  PHE81      -0.0003
     92  CE2       38.7770   15.1870   37.7680 C.ar   81  PHE81      -0.0003
     93  CZ        39.4940   14.8490   38.8930 C.ar   81  PHE81      -0.0000
     94  N         36.7720    9.1190   35.2560 N.3    83  ASP83      -0.1225
     95  CA        36.2360    7.7730   35.4130 C.3    83  ASP83       0.1805
     96  C         37.0550    7.0020   36.4410 C.2    83  ASP83       0.2598
     97  O         38.2880    7.0920   36.4740 O.2    83  ASP83      -0.2718
     98  CB        36.1880    7.0140   34.0830 C.3    83  ASP83       0.1424
     99  CG        35.6420    5.5900   34.2390 C.2    83  ASP83       0.3668
    100  OD1       34.8320    5.3460   35.1670 O.co2  83  ASP83      -0.2456
    101  OD2       35.9720    4.7210   33.3900 O.co2  83  ASP83      -0.2456
    102  N         36.3440    6.2750   37.3000 N.am   84  GLY84      -0.1942
    103  CA        36.8920    5.5500   38.4330 C.3    84  GLY84       0.2014
    104  C         36.7000    6.3750   39.6910 C.2    84  GLY84       0.2638
    105  O         36.2790    7.5380   39.6500 O.2    84  GLY84      -0.2714
    106  N         37.0750    5.7900   40.8300 N.am   85  VAL85      -0.1977
    107  CA        36.9320    6.5310   42.0800 C.3    85  VAL85       0.1596
    108  C         37.8950    7.7150   42.0470 C.2    85  VAL85       0.2287
    109  O         38.9550    7.6650   41.4080 O.2    85  VAL85      -0.2864
    110  CB        37.1730    5.6370   43.3110 C.3    85  VAL85       0.0276
    111  CG1       38.6140    5.1270   43.3330 C.3    85  VAL85       0.0022
    112  CG2       36.7990    6.3740   44.6230 C.3    85  VAL85       0.0022
    113  N         40.4490   10.2360   44.0900 N.3    87  ASN87      -0.1240
    114  CA        41.2740   10.3770   45.2840 C.3    87  ASN87       0.1653
    115  C         42.2280   11.5470   45.0840 C.2    87  ASN87       0.2266
    116  O         42.4110   12.0330   43.9660 O.2    87  ASN87      -0.2867
    117  CB        42.0380    9.0870   45.6050 C.3    87  ASN87       0.1155
    118  CG        42.8690    8.5860   44.4360 C.2    87  ASN87       0.2627
    119  OD1       43.6410    9.3380   43.8340 O.2    87  ASN87      -0.2716
    120  ND2       42.6940    7.3030   44.0920 N.am   87  ASN87      -0.0877
    121  N         44.8230   11.3740   42.3820 N.3    90  ARG90      -0.1245
    122  CA        44.4600   11.6450   40.9930 C.3    90  ARG90       0.1563
    123  C         44.3780   13.1300   40.7200 C.2    90  ARG90       0.2260
    124  O         44.6460   13.5790   39.6020 O.2    90  ARG90      -0.2867
    125  CB        43.1090   11.0390   40.6130 C.3    90  ARG90       0.0307
    126  CG        43.2730    9.7000   40.0830 C.3    90  ARG90       0.0489
    127  CD        42.4250    9.4300   38.8710 C.3    90  ARG90       0.2205
    128  NE        41.0870    8.9540   39.0930 N.pl3  90  ARG90      -0.0865
    129  CZ        40.2810    8.6380   38.0840 C.cat  90  ARG90       0.5346
    130  NH1       40.7160    8.7720   36.8200 N.pl3  90  ARG90       0.1354
    131  NH2       39.0550    8.1830   38.3350 N.pl3  90  ARG90       0.1354
    132  N         47.8370   14.2790   40.4000 N.3    93  THR93      -0.1203
    133  CA        48.3100   13.8900   39.0800 C.3    93  THR93       0.1994
    134  C         47.7650   14.8150   37.9980 C.2    93  THR93       0.2617
    135  O         48.5170   15.2850   37.1460 O.2    93  THR93      -0.2717
    136  CB        47.9040   12.4520   38.7870 C.3    93  THR93       0.1784
    137  OG1       48.2450   11.6300   39.9050 O.3    93  THR93      -0.2211
    138  CG2       48.6340   11.9550   37.5530 C.3    93  THR93       0.0376
    139  N         46.4560   15.0710   38.0120 N.am   94  LEU94      -0.1979
    140  CA        45.8150   16.0120   37.0910 C.3    94  LEU94       0.1596
    141  C         46.5490   17.3470   37.0520 C.2    94  LEU94       0.2287
    142  O         46.9130   17.8600   35.9800 O.2    94  LEU94      -0.2864
    143  CB        44.3620   16.2370   37.5380 C.3    94  LEU94       0.0297
    144  CG        43.5180   17.3070   36.8260 C.3    94  LEU94       0.0022
    145  CD1       42.8160   16.8020   35.5660 C.3    94  LEU94       0.0001
    146  CD2       42.5380   17.9920   37.7840 C.3    94  LEU94       0.0001
    147  N         50.3490   17.0450   35.8270 N.3    97  PHE97      -0.1227
    148  CA        50.4800   17.0390   34.3800 C.3    97  PHE97       0.1736
    149  C         50.1070   18.3970   33.8050 C.2    97  PHE97       0.2596
    150  O         50.6690   18.8230   32.7810 O.2    97  PHE97      -0.2718
    151  CB        49.6070   15.9650   33.7740 C.3    97  PHE97       0.0547
    152  CG        49.7500   15.8500   32.2910 C.ar   97  PHE97      -0.0202
    153  CD1       48.7250   16.2100   31.4400 C.ar   97  PHE97      -0.0042
    154  CD2       50.9490   15.4130   31.7480 C.ar   97  PHE97      -0.0042
    155  CE1       48.8710   16.0890   30.0920 C.ar   97  PHE97      -0.0003
    156  CE2       51.0970   15.2950   30.3890 C.ar   97  PHE97      -0.0003
    157  CZ        50.0560   15.6510   29.5620 C.ar   97  PHE97      -0.0000
    158  N         49.2000   19.1110   34.4820 N.am   98  GLY98      -0.1957
    159  CA        49.0200   20.5210   34.1830 C.3    98  GLY98       0.1869
    160  C         50.3260   21.2820   34.1880 C.2    98  GLY98       0.2309
    161  O         50.6630   21.9550   33.2110 O.2    98  GLY98      -0.2863
    162  N         52.5860   20.3620   31.1800 N.3   101  VAL101     -0.1245
    163  CA        52.1800   21.0380   29.9580 C.3   101  VAL101      0.1561
    164  C         52.5700   22.5120   30.0290 C.2   101  VAL101      0.2260
    165  O         52.9880   23.1030   29.0280 O.2   101  VAL101     -0.2867
    166  CB        50.6660   20.8680   29.7250 C.3   101  VAL101      0.0252
    167  CG1       50.1820   21.8040   28.6140 C.3   101  VAL101      0.0019
    168  CG2       50.3090   19.4030   29.4460 C.3   101  VAL101      0.0019
    169  N         44.7070   27.0770   30.0770 N.3   117  LEU117     -0.1245
    170  CA        44.9910   25.6970   30.4460 C.3   117  LEU117      0.1561
    171  C         44.5780   25.4660   31.8880 C.2   117  LEU117      0.2260
    172  O         43.7330   24.6030   32.1840 O.2   117  LEU117     -0.2867
    173  CB        46.4840   25.4090   30.2560 C.3   117  LEU117      0.0270
    174  CG        47.1150   24.1920   30.9650 C.3   117  LEU117      0.0019
    175  CD1       46.7120   22.8620   30.3460 C.3   117  LEU117      0.0001
    176  CD2       48.6380   24.3010   31.0940 C.3   117  LEU117      0.0001
    177  N         41.5830   23.1130   33.2910 N.3   121  ILE121     -0.1245
    178  CA        41.7570   22.0890   34.3140 C.3   121  ILE121      0.1561
    179  C         40.7770   22.3350   35.4520 C.2   121  ILE121      0.2260
    180  O         40.0040   21.4430   35.8380 O.2   121  ILE121     -0.2867
    181  CB        43.2140   22.0570   34.8010 C.3   121  ILE121      0.0252
    182  CG1       44.1260   21.6180   33.6720 C.3   121  ILE121      0.0019
    183  CG2       43.3650   21.1310   35.9910 C.3   121  ILE121      0.0019
    184  CD1       45.5880   21.9460   33.9440 C.3   121  ILE121      0.0001
@<TRIPOS>BOND
     1    38    37    2
     2    37    36    1
     3    36    35    1
     4    36    39    1
     5    39    40    1
     6    42    40    1
     7    57    55    1
     8    40    41    1
     9    43    44    1
    10    30    29    2
    11    50    48    1
    12    34    33    1
    13    44    47    1
    14    44    45    1
    15    48    47    1
    16    48    49    1
    17    29    28    1
    18    55    56    1
    19    55    52    1
    20    51    52    1
    21    28    27    1
    22    28    31    1
    23    45    46    2
    24    52    53    1
    25    75    74   ar
    26    75    73   ar
    27    33    32    1
    28    74    72   ar
    29    73    71   ar
    30    72    71   ar
    31    32    31    1
    32    71    70    1
    33    70    67    1
    34    53    58   am
    35    53    54    2
    36   167   166    1
    37    19    18    2
    38    58    59    1
    39   165   164    2
    40    14    13    2
    41   168   166    1
    42    18    17    1
    43   157   155   ar
    44   157   156   ar
    45    67    66    1
    46    67    68    1
    47   166   163    1
    48   163   164    1
    49   163   162    1
    50    82    80    1
    51   169   170    1
    52   155   153   ar
    53    59    62    1
    54    59    60    1
    55   173   170    1
    56   173   174    1
    57   175   174    1
    58   156   154   ar
    59    13    12    1
    60    13    16   am
    61   170   171    1
    62    68    76   am
    63    68    69    2
    64    62    63    1
    65    76    77    1
    66    12    11    1
    67    12    15    1
    68    17    16    1
    69    17    20    1
    70   174   176    1
    71    60    61    2
    72    80    77    1
    73    80    81    1
    74   153   152   ar
    75    65    64    1
    76    77    78    1
    77   154   152   ar
    78   171   172    2
    79    20    21    1
    80    63    64    1
    81   152   151    1
    82   150   149    2
    83    78    83   am
    84    78    79    2
    85   161   160    2
    86    21    22   ar
    87    21    23   ar
    88   177   178    1
    89   101    99   ar
    90    22    24   ar
    91     4     3    2
    92    83    84    1
    93   182   184    1
    94   182   181    1
    95   151   148    1
    96   149   148    1
    97   149   158   am
    98    98    99    1
    99    98    95    1
   100   159   160    1
   101   159   158    1
   102    99   100   ar
   103   178   181    1
   104   178   179    1
   105    23    25   ar
   106   148   147    1
   107     3     2    1
   108    24    26   ar
   109   181   183    1
   110    84    87    1
   111    84    85    1
   112    87    88    1
   113    94    95    1
   114    95    96    1
   115   179   180    2
   116    85    86    2
   117   145   144    1
   118    25    26   ar
   119     2     5    1
   120     2     1    1
   121     5     6    1
   122   142   141    2
   123    96    97    2
   124    96   102   am
   125    88    90   ar
   126    88    89   ar
   127    90    92   ar
   128   130   129    1
   129   144   143    1
   130   144   146    1
   131     7     6   ar
   132     7     9   ar
   133   141   140    1
   134     6     8   ar
   135   140   143    1
   136   140   139    1
   137   135   134    2
   138   102   103    1
   139   138   136    1
   140    89    91   ar
   141    92    93   ar
   142   134   139   am
   143   134   133    1
   144   129   131    1
   145   129   128    2
   146     9    10   ar
   147     8    10   ar
   148   103   104    1
   149   136   133    1
   150   136   137    1
   151    91    93   ar
   152   127   128    1
   153   127   126    1
   154   133   132    1
   155   124   123    2
   156   105   104    2
   157   104   106   am
   158   126   125    1
   159   125   122    1
   160   123   122    1
   161   106   107    1
   162   122   121    1
   163   109   108    2
   164   108   107    1
   165   107   110    1
   166   110   111    1
   167   110   112    1
   168   119   118    2
   169   116   115    2
   170   113   114    1
   171   120   118   am
   172   118   117    1
   173   115   114    1
   174   114   117    1
