@<TRIPOS>MOLECULE
tmp/5fdxB00.pdb
 213 201 0 0 0
SMALL
GASTEIGER

@<TRIPOS>ATOM
      1  N          2.7560  -59.5600   10.4730 N.3    12  LEU12      -0.1245
      2  CA         3.1930  -58.2700   10.9940 C.3    12  LEU12       0.1561
      3  C          2.1090  -57.1980   10.9620 C.2    12  LEU12       0.2260
      4  O          2.0170  -56.4070   11.9030 O.2    12  LEU12      -0.2867
      5  CB         4.4780  -57.7950   10.2860 C.3    12  LEU12       0.0270
      6  CG         5.7240  -58.7030   10.4090 C.3    12  LEU12       0.0019
      7  CD1        6.8810  -58.1470    9.6240 C.3    12  LEU12       0.0001
      8  CD2        6.1490  -58.9030   11.8680 C.3    12  LEU12       0.0001
      9  N          1.2060  -57.5020    5.7040 N.3    20  VAL20      -0.1245
     10  CA         2.6490  -57.7560    5.8470 C.3    20  VAL20       0.1561
     11  C          2.9320  -59.0050    6.6930 C.2    20  VAL20       0.2260
     12  O          2.3790  -59.1390    7.7870 O.2    20  VAL20      -0.2867
     13  CB         3.4300  -56.5030    6.3530 C.3    20  VAL20       0.0252
     14  CG1        4.9040  -56.8140    6.6200 C.3    20  VAL20       0.0019
     15  CG2        3.3100  -55.3450    5.3650 C.3    20  VAL20       0.0019
     16  N         10.7640  -59.0470    5.4810 N.3    32  ALA32      -0.1231
     17  CA         9.4380  -58.4580    5.6230 C.3    32  ALA32       0.1694
     18  C          8.8160  -58.4780    4.2350 C.2    32  ALA32       0.2592
     19  O          9.4280  -57.9930    3.2790 O.2    32  ALA32      -0.2718
     20  CB         9.5380  -57.0360    6.1480 C.3    32  ALA32       0.0304
     21  N          7.6370  -59.1100    4.1070 N.am   33  VAL33      -0.1966
     22  CA         6.9400  -59.2360    2.8270 C.3    33  VAL33       0.1727
     23  C          5.6000  -58.4850    2.8500 C.2    33  VAL33       0.2616
     24  O          4.7900  -58.7090    3.7420 O.2    33  VAL33      -0.2715
     25  CB         6.7710  -60.7270    2.3940 C.3    33  VAL33       0.0290
     26  CG1        6.3600  -60.8410    0.9280 C.3    33  VAL33       0.0023
     27  CG2        8.0470  -61.5300    2.6460 C.3    33  VAL33       0.0023
     28  N          5.3790  -57.6010    1.8670 N.am   34  LYS34      -0.1977
     29  CA         4.1290  -56.8610    1.6800 C.3    34  LYS34       0.1596
     30  C          3.4880  -57.5080    0.4700 C.2    34  LYS34       0.2287
     31  O          4.1830  -57.7760   -0.5110 O.2    34  LYS34      -0.2864
     32  CB         4.3900  -55.3600    1.4300 C.3    34  LYS34       0.0298
     33  CG         3.1510  -54.4650    1.4640 C.3    34  LYS34       0.0038
     34  CD         3.5140  -53.0420    1.0640 C.3    34  LYS34       0.0206
     35  CE         2.3140  -52.1410    0.9150 C.3    34  LYS34       0.1093
     36  NZ         2.7090  -50.7120    0.7870 N.3    34  LYS34      -0.1314
     37  N          0.1180  -48.0980   -7.4410 N.3    47  ASP47      -0.1239
     38  CA         0.9100  -47.5860   -6.3290 C.3    47  ASP47       0.1674
     39  C          1.9910  -48.5910   -5.8960 C.2    47  ASP47       0.2266
     40  O          3.1180  -48.1870   -5.6540 O.2    47  ASP47      -0.2867
     41  CB        -0.0180  -47.2100   -5.1590 C.3    47  ASP47       0.1410
     42  CG        -0.9790  -46.0660   -5.4750 C.2    47  ASP47       0.3668
     43  OD1       -1.0680  -45.6680   -6.6680 O.co2  47  ASP47      -0.2456
     44  OD2       -1.6480  -45.5710   -4.5310 O.co2  47  ASP47      -0.2456
     45  N          5.8470  -47.8780   -6.0020 N.3    51  GLU51      -0.1245
     46  CA         6.5880  -48.0610   -4.7370 C.3    51  GLU51       0.1567
     47  C          7.8280  -48.9430   -4.9530 C.2    51  GLU51       0.2260
     48  O          8.9150  -48.5880   -4.4870 O.2    51  GLU51      -0.2867
     49  CB         5.6710  -48.6650   -3.6490 C.3    51  GLU51       0.0388
     50  CG         6.3480  -48.9620   -2.3130 C.3    51  GLU51       0.1160
     51  CD         5.4430  -48.9690   -1.0940 C.2    51  GLU51       0.3649
     52  OE1        4.3300  -49.5380   -1.1800 O.co2  51  GLU51      -0.2457
     53  OE2        5.8550  -48.4200   -0.0450 O.co2  51  GLU51      -0.2457
     54  N         10.4730  -47.1270   -7.0310 N.3    54  ILE54      -0.1231
     55  CA        11.1920  -46.1240   -6.2420 C.3    54  ILE54       0.1692
     56  C         12.2930  -46.7980   -5.4010 C.2    54  ILE54       0.2591
     57  O         13.4660  -46.4180   -5.5190 O.2    54  ILE54      -0.2718
     58  CB        10.2450  -45.1950   -5.4100 C.3    54  ILE54       0.0266
     59  CG1        9.2060  -44.4830   -6.3110 C.3    54  ILE54       0.0019
     60  CG2       11.0400  -44.1620   -4.5750 C.3    54  ILE54       0.0020
     61  CD1        7.8690  -44.0250   -5.5670 C.3    54  ILE54       0.0001
     62  N         11.9160  -47.8350   -4.6270 N.am   55  MET55      -0.1979
     63  CA        12.7960  -48.6260   -3.7610 C.3    55  MET55       0.1605
     64  C         13.9250  -49.4090   -4.4750 C.2    55  MET55       0.2287
     65  O         14.9030  -49.7900   -3.8260 O.2    55  MET55      -0.2864
     66  CB        11.9580  -49.5920   -2.9240 C.3    55  MET55       0.0413
     67  CG        11.0950  -48.9150   -1.8890 C.3    55  MET55       0.0598
     68  SD        10.0320  -50.1230   -1.0750 S.3    55  MET55      -0.1393
     69  CE        11.0460  -50.5280    0.3520 C.3    55  MET55       0.0692
     70  N         17.4260  -47.6070   -4.3640 N.3    58  LEU58      -0.1245
     71  CA        17.8870  -47.2410   -3.0150 C.3    58  LEU58       0.1561
     72  C         18.7810  -48.3120   -2.3930 C.2    58  LEU58       0.2260
     73  O         18.2910  -49.3200   -1.8730 O.2    58  LEU58      -0.2867
     74  CB        16.7030  -46.8510   -2.0890 C.3    58  LEU58       0.0270
     75  CG        15.7360  -45.7510   -2.6140 C.3    58  LEU58       0.0019
     76  CD1       14.5950  -45.5170   -1.6550 C.3    58  LEU58       0.0001
     77  CD2       16.4580  -44.4360   -2.9170 C.3    58  LEU58       0.0001
     78  N         19.5730  -47.0330    4.8050 N.3    63  ILE63      -0.1231
     79  CA        18.3120  -46.9390    4.0510 C.3    63  ILE63       0.1692
     80  C         17.7360  -48.3460    3.9960 C.2    63  ILE63       0.2591
     81  O         18.4930  -49.3040    4.1010 O.2    63  ILE63      -0.2718
     82  CB        18.4700  -46.2980    2.6200 C.3    63  ILE63       0.0266
     83  CG1       19.1380  -44.8950    2.6600 C.3    63  ILE63       0.0019
     84  CG2       17.1420  -46.2570    1.8200 C.3    63  ILE63       0.0020
     85  CD1       18.3410  -43.7390    3.3450 C.3    63  ILE63       0.0001
     86  N         16.4000  -48.4640    3.8800 N.am   64  ILE64      -0.1980
     87  CA        15.6600  -49.7230    3.7540 C.3    64  ILE64       0.1595
     88  C         16.0200  -50.3270    2.3920 C.2    64  ILE64       0.2287
     89  O         16.1250  -49.6000    1.4070 O.2    64  ILE64      -0.2864
     90  CB        14.1220  -49.5100    3.9890 C.3    64  ILE64       0.0276
     91  CG1       13.3210  -50.8280    3.9610 C.3    64  ILE64       0.0022
     92  CG2       13.5150  -48.4770    3.0460 C.3    64  ILE64       0.0022
     93  CD1       13.2040  -51.5370    5.3060 C.3    64  ILE64       0.0001
     94  N          6.4910  -57.7000   -2.4740 N.3    78  MET78      -0.1245
     95  CA         7.7890  -57.0320   -2.3470 C.3    78  MET78       0.1570
     96  C          8.4450  -57.4950   -1.0530 C.2    78  MET78       0.2261
     97  O          7.7590  -57.6570   -0.0400 O.2    78  MET78      -0.2867
     98  CB         7.7040  -55.4830   -2.4600 C.3    78  MET78       0.0387
     99  CG         6.6630  -54.8120   -1.5640 C.3    78  MET78       0.0595
    100  SD         6.6140  -52.9900   -1.7180 S.3    78  MET78      -0.1393
    101  CE         7.7930  -52.5830   -0.5370 C.3    78  MET78       0.0692
    102  N         11.6050  -56.9180    1.7410 N.3    80  THR80      -0.1203
    103  CA        12.5080  -55.9520    2.3640 C.3    80  THR80       0.1994
    104  C         13.2770  -56.5930    3.5400 C.2    80  THR80       0.2618
    105  O         13.0620  -57.7730    3.8560 O.2    80  THR80      -0.2717
    106  CB        11.7030  -54.7220    2.8250 C.3    80  THR80       0.1784
    107  OG1       10.7170  -55.1330    3.7760 O.3    80  THR80      -0.2211
    108  CG2       11.0390  -53.9850    1.6640 C.3    80  THR80       0.0376
    109  N         14.1720  -55.8020    4.1870 N.am   81  ASP81      -0.1959
    110  CA        14.9220  -56.2370    5.3710 C.3    81  ASP81       0.1840
    111  C         13.9460  -56.2440    6.5250 C.2    81  ASP81       0.2622
    112  O         12.9910  -55.4660    6.5060 O.2    81  ASP81      -0.2715
    113  CB        16.0500  -55.2400    5.7200 C.3    81  ASP81       0.1450
    114  CG        17.2030  -55.1880    4.7390 C.2    81  ASP81       0.3671
    115  OD1       17.7710  -56.2630    4.4250 O.co2  81  ASP81      -0.2456
    116  OD2       17.5720  -54.0700    4.3220 O.co2  81  ASP81      -0.2456
    117  N         14.1720  -57.0970    7.5290 N.am   82  TYR82      -0.1960
    118  CA        13.3390  -57.0890    8.7230 C.3    82  TYR82       0.1771
    119  C         14.1050  -56.3710    9.8360 C.2    82  TYR82       0.2619
    120  O         15.2690  -56.6880   10.0890 O.2    82  TYR82      -0.2715
    121  CB        12.8940  -58.5040    9.1490 C.3    82  TYR82       0.0574
    122  CG        12.0430  -58.4980   10.4040 C.ar   82  TYR82      -0.0198
    123  CD1       10.7910  -57.8850   10.4200 C.ar   82  TYR82      -0.0009
    124  CD2       12.5020  -59.0750   11.5830 C.ar   82  TYR82      -0.0009
    125  CE1       10.0190  -57.8480   11.5780 C.ar   82  TYR82       0.0417
    126  CE2       11.7360  -59.0480   12.7460 C.ar   82  TYR82       0.0417
    127  CZ        10.5000  -58.4220   12.7400 C.ar   82  TYR82       0.1957
    128  OH         9.7400  -58.3790   13.8790 O.3    82  TYR82      -0.2866
    129  N         13.4520  -55.3820   10.4660 N.am   83  MET83      -0.1977
    130  CA        13.9930  -54.5600   11.5470 C.3    83  MET83       0.1605
    131  C         13.2700  -54.9350   12.8390 C.2    83  MET83       0.2287
    132  O         12.1460  -54.4890   13.0830 O.2    83  MET83      -0.2864
    133  CB        13.8580  -53.0630   11.2080 C.3    83  MET83       0.0413
    134  CG        14.4450  -52.6820    9.8430 C.3    83  MET83       0.0598
    135  SD        16.2070  -53.0680    9.6120 S.3    83  MET83      -0.1393
    136  CE        16.9640  -51.7560   10.5650 C.3    83  MET83       0.0692
    137  N         11.4280  -52.4170   15.5540 N.3    86  GLY86      -0.1225
    138  CA        10.3780  -51.5350   15.0520 C.3    86  GLY86       0.1811
    139  C         10.8480  -50.1190   14.7860 C.2    86  GLY86       0.2280
    140  O         12.0490  -49.8810   14.5980 O.2    86  GLY86      -0.2866
    141  N         20.3410  -39.9210   -0.0570 N.3   124  LEU124     -0.1245
    142  CA        19.1390  -39.5120   -0.7810 C.3   124  LEU124      0.1561
    143  C         19.3370  -38.1660   -1.4460 C.2   124  LEU124      0.2260
    144  O         18.7850  -37.9300   -2.5210 O.2   124  LEU124     -0.2867
    145  CB        17.9090  -39.5010    0.1440 C.3   124  LEU124      0.0270
    146  CG        17.4850  -40.8580    0.7360 C.3   124  LEU124      0.0019
    147  CD1       16.4390  -40.6830    1.7870 C.3   124  LEU124      0.0001
    148  CD2       16.9770  -41.8000   -0.3370 C.3   124  LEU124      0.0001
    149  N         16.9230  -36.8910   -4.4780 N.3   129  PHE129     -0.1241
    150  CA        15.6970  -37.5140   -4.0040 C.3   129  PHE129      0.1605
    151  C         15.2950  -36.8890   -2.6790 C.2   129  PHE129      0.2264
    152  O         16.0710  -36.8760   -1.7170 O.2   129  PHE129     -0.2867
    153  CB        15.8690  -39.0520   -3.8620 C.3   129  PHE129      0.0534
    154  CG        14.6230  -39.7840   -3.4050 C.ar  129  PHE129     -0.0203
    155  CD1       13.6260  -40.1370   -4.3150 C.ar  129  PHE129     -0.0042
    156  CD2       14.4350  -40.1060   -2.0610 C.ar  129  PHE129     -0.0042
    157  CE1       12.4540  -40.7760   -3.8820 C.ar  129  PHE129     -0.0003
    158  CE2       13.2730  -40.7590   -1.6350 C.ar  129  PHE129     -0.0003
    159  CZ        12.2870  -41.0860   -2.5450 C.ar  129  PHE129     -0.0000
    160  N         12.7860  -37.0150    0.4800 N.3   131  HIS131     -0.1241
    161  CA        12.0340  -37.9780    1.2850 C.3   131  HIS131      0.1621
    162  C         10.5950  -37.4700    1.5150 C.2   131  HIS131      0.2264
    163  O          9.6530  -38.2370    1.2960 O.2   131  HIS131     -0.2867
    164  CB        12.7580  -38.2710    2.5960 C.3   131  HIS131      0.0745
    165  CG        12.1360  -39.3830    3.3860 C.ar  131  HIS131      0.0817
    166  ND1       10.9320  -39.2170    4.0470 N.ar  131  HIS131     -0.2268
    167  CD2       12.5780  -40.6400    3.6010 C.ar  131  HIS131      0.1154
    168  CE1       10.6670  -40.3800    4.6110 C.ar  131  HIS131      0.1986
    169  NE2       11.6300  -41.2650    4.3760 N.ar  131  HIS131     -0.2212
    170  N         13.5980  -46.9580   11.1050 N.3   140  LEU140     -0.1245
    171  CA        13.5610  -48.3280   11.6410 C.3   140  LEU140      0.1561
    172  C         14.8310  -48.7300   12.4080 C.2   140  LEU140      0.2260
    173  O         15.9330  -48.3150   12.0320 O.2   140  LEU140     -0.2867
    174  CB        13.2260  -49.3410   10.5280 C.3   140  LEU140      0.0270
    175  CG        11.7800  -49.2840   10.0060 C.3   140  LEU140      0.0019
    176  CD1       11.6370  -50.0350    8.7010 C.3   140  LEU140      0.0001
    177  CD2       10.7950  -49.8090   11.0460 C.3   140  LEU140      0.0001
    178  N         16.4760  -45.6120    7.4110 N.3   149  ILE149     -0.1231
    179  CA        15.4020  -44.6620    7.0640 C.3   149  ILE149      0.1692
    180  C         14.3990  -45.4220    6.2190 C.2   149  ILE149      0.2592
    181  O         14.7920  -46.2900    5.4420 O.2   149  ILE149     -0.2718
    182  CB        15.9260  -43.4030    6.3040 C.3   149  ILE149      0.0266
    183  CG1       16.9160  -42.5890    7.1720 C.3   149  ILE149      0.0019
    184  CG2       14.7630  -42.5140    5.8130 C.3   149  ILE149      0.0020
    185  CD1       17.7280  -41.5440    6.4140 C.3   149  ILE149      0.0001
    186  N         13.1150  -45.1260    6.3950 N.am  150  ALA150     -0.1966
    187  CA        12.0370  -45.7960    5.6790 C.3   150  ALA150      0.1728
    188  C         10.9130  -44.7890    5.4040 C.2   150  ALA150      0.2616
    189  O         11.0500  -43.6090    5.7330 O.2   150  ALA150     -0.2715
    190  CB        11.5180  -46.9720    6.5230 C.3   150  ALA150      0.0334
    191  N          9.8200  -45.2550    4.7760 N.am  151  ASP151     -0.1957
    192  CA         8.6180  -44.4890    4.4740 C.3   151  ASP151      0.1840
    193  C          7.4430  -45.4660    4.4640 C.2   151  ASP151      0.2622
    194  O          7.3650  -46.3870    3.6420 O.2   151  ASP151     -0.2715
    195  CB         8.7570  -43.7220    3.1580 C.3   151  ASP151      0.1450
    196  CG         7.7840  -42.5810    3.0030 C.2   151  ASP151      0.3671
    197  OD1        6.6920  -42.6400    3.6220 O.co2 151  ASP151     -0.2456
    198  OD2        8.0990  -41.6310    2.2370 O.co2 151  ASP151     -0.2456
    199  N          6.5780  -45.2990    5.4530 N.am  152  PHE152     -0.1960
    200  CA         5.4120  -46.1380    5.7140 C.3   152  PHE152      0.1771
    201  C          4.1490  -45.5150    5.1220 C.2   152  PHE152      0.2620
    202  O          3.0540  -46.0620    5.2660 O.2   152  PHE152     -0.2715
    203  CB         5.2610  -46.3060    7.2460 C.3   152  PHE152      0.0574
    204  CG         6.2280  -47.2840    7.8780 C.ar  152  PHE152     -0.0200
    205  CD1        7.5010  -46.8800    8.2620 C.ar  152  PHE152     -0.0042
    206  CD2        5.8680  -48.6140    8.0810 C.ar  152  PHE152     -0.0042
    207  CE1        8.3970  -47.7910    8.8390 C.ar  152  PHE152     -0.0003
    208  CE2        6.7650  -49.5210    8.6490 C.ar  152  PHE152     -0.0003
    209  CZ         8.0200  -49.1020    9.0300 C.ar  152  PHE152     -0.0000
    210  N          4.3100  -44.3790    4.4640 N.am  153  GLY153     -0.1954
    211  CA         3.1830  -43.6230    3.9530 C.3   153  GLY153      0.1869
    212  C          2.4440  -43.0200    5.1300 C.2   153  GLY153      0.2309
    213  O          3.0440  -42.7390    6.1810 O.2   153  GLY153     -0.2863
@<TRIPOS>BOND
     1    37    38    1
     2    54    55    1
     3    43    42   ar
     4    38    39    1
     5    38    41    1
     6    59    61    1
     7    59    58    1
     8    55    58    1
     9    55    56    1
    10    45    46    1
    11    39    40    2
    12    57    56    2
    13    42    41    1
    14    42    44   ar
    15    58    60    1
    16    56    62   am
    17    47    46    1
    18    47    48    2
    19    46    49    1
    20    62    63    1
    21   149   150    1
    22    64    65    2
    23    64    63    1
    24    70    71    1
    25   155   157   ar
    26   155   154   ar
    27   150   153    1
    28   150   151    1
    29   157   159   ar
    30   153   154    1
    31    63    66    1
    32    49    50    1
    33   154   156   ar
    34    71    72    1
    35    71    74    1
    36    66    67    1
    37    77    75    1
    38   151   152    2
    39    75    74    1
    40    75    76    1
    41   159   158   ar
    42   144   143    2
    43    94    95    1
    44    98    95    1
    45    98    99    1
    46    72    73    2
    47    95    96    1
    48    50    51    1
    49   156   158   ar
    50    67    68    1
    51   100    99    1
    52   100   101    1
    53   143   142    1
    54    52    51   ar
    55    51    53   ar
    56    68    69    1
    57    96    97    2
    58   142   141    1
    59   142   145    1
    60    31    30    2
    61   148   146    1
    62   145   146    1
    63    30    29    1
    64   160   161    1
    65   146   147    1
    66    36    35    1
    67    35    34    1
    68    26    25    1
    69    34    33    1
    70   161   162    1
    71   161   164    1
    72   163   162    2
    73    89    88    2
    74    32    33    1
    75    32    29    1
    76   108   106    1
    77    29    28    1
    78   102   103    1
    79    84    82    1
    80    28    23   am
    81   198   196   ar
    82   103   106    1
    83   103   104    1
    84    88    87    1
    85    25    27    1
    86    25    22    1
    87   164   165    1
    88    82    83    1
    89    82    79    1
    90    83    85    1
    91   106   107    1
    92    22    23    1
    93    22    21    1
    94    23    24    2
    95   196   195    1
    96   196   197   ar
    97    92    90    1
    98   195   192    1
    99    19    18    2
   100   165   167   ar
   101   165   166   ar
   102   104   105    2
   103   104   109   am
   104   167   169   ar
   105   194   193    2
   106    87    86    1
   107    87    90    1
   108    86    80   am
   109   211   210    1
   110   211   212    1
   111    91    90    1
   112    91    93    1
   113    80    79    1
   114    80    81    2
   115   166   168   ar
   116    79    78    1
   117    21    18   am
   118   109   110    1
   119    18    17    1
   120   116   114   ar
   121   169   168   ar
   122   115   114   ar
   123   210   201   am
   124   193   192    1
   125   193   199   am
   126   192   191    1
   127   114   113    1
   128   191   188   am
   129   201   202    2
   130   201   200    1
   131   212   213    2
   132    15    13    1
   133   110   113    1
   134   110   111    1
   135   188   187    1
   136   188   189    2
   137   181   180    2
   138   199   200    1
   139    16    17    1
   140    17    20    1
   141   187   186    1
   142   187   190    1
   143     9    10    1
   144   200   203    1
   145   184   182    1
   146    10    13    1
   147    10    11    1
   148   180   186   am
   149   180   179    1
   150   182   179    1
   151   182   183    1
   152    13    14    1
   153   185   183    1
   154   112   111    2
   155   111   117   am
   156    11    12    2
   157   179   178    1
   158   203   204    1
   159   117   118    1
   160   204   206   ar
   161   204   205   ar
   162   206   208   ar
   163   205   207   ar
   164   208   209   ar
   165   176   175    1
   166   118   121    1
   167   118   119    1
   168   207   209   ar
   169   121   122    1
   170   135   134    1
   171   135   136    1
   172     7     6    1
   173   119   120    2
   174   119   129   am
   175   134   133    1
   176   175   174    1
   177   175   177    1
   178     5     6    1
   179     5     2    1
   180   122   123   ar
   181   122   124   ar
   182     6     8    1
   183   123   125   ar
   184   129   130    1
   185     1     2    1
   186   174   171    1
   187     3     2    1
   188     3     4    2
   189   170   171    1
   190   133   130    1
   191   130   131    1
   192   125   127   ar
   193   124   126   ar
   194   171   172    1
   195   173   172    2
   196   127   126   ar
   197   127   128    1
   198   131   132    2
   199   140   139    2
   200   139   138    1
   201   138   137    1
