@<TRIPOS>MOLECULE
tmp/5fdxB01.pdb
 153 150 0 0 0
SMALL
GASTEIGER

@<TRIPOS>ATOM
      1  N          2.5600  -31.2820    8.9140 N.3   174  ILE174     -0.1231
      2  CA         2.8140  -29.8430    9.1160 C.3   174  ILE174      0.1692
      3  C          3.7530  -29.4950   10.2970 C.2   174  ILE174      0.2591
      4  O          4.3380  -28.4090   10.2840 O.2   174  ILE174     -0.2718
      5  CB         1.4800  -29.0180    9.2020 C.3   174  ILE174      0.0266
      6  CG1        0.5700  -29.4610   10.3740 C.3   174  ILE174      0.0019
      7  CG2        0.7210  -29.0390    7.8560 C.3   174  ILE174      0.0020
      8  CD1       -0.3170  -28.3510   10.9500 C.3   174  ILE174      0.0001
      9  N          3.9040  -30.3930   11.2940 N.am  175  ARG175     -0.1980
     10  CA         4.7800  -30.1740   12.4480 C.3   175  ARG175      0.1597
     11  C          6.2550  -30.5010   12.1590 C.2   175  ARG175      0.2287
     12  O          7.1010  -30.0960   12.9310 O.2   175  ARG175     -0.2864
     13  CB         4.2500  -30.9130   13.6890 C.3   175  ARG175      0.0334
     14  CG         3.1190  -30.1580   14.3910 C.3   175  ARG175      0.0492
     15  CD         2.3350  -31.0110   15.3680 C.3   175  ARG175      0.2205
     16  NE         0.9770  -30.4960   15.5600 N.pl3 175  ARG175     -0.0865
     17  CZ         0.5810  -29.7650   16.5960 C.cat 175  ARG175      0.5346
     18  NH1        1.4190  -29.4940   17.5830 N.pl3 175  ARG175      0.1354
     19  NH2       -0.6640  -29.3150   16.6600 N.pl3 175  ARG175      0.1354
     20  N          7.3520  -30.0670    8.7400 N.3   177  MET177     -0.1245
     21  CA         7.4370  -29.2700    7.5250 C.3   177  MET177      0.1570
     22  C          7.9990  -27.8590    7.7210 C.2   177  MET177      0.2261
     23  O          7.6390  -27.1820    8.6930 O.2   177  MET177     -0.2867
     24  CB         6.0470  -29.1850    6.8910 C.3   177  MET177      0.0387
     25  CG         5.6720  -30.4160    6.0810 C.3   177  MET177      0.0595
     26  SD         3.9190  -30.4460    5.6040 S.3   177  MET177     -0.1393
     27  CE         3.8580  -29.1290    4.4600 C.3   177  MET177      0.0692
     28  N          8.4390  -23.7820    6.6320 N.3   179  TRP179     -0.1241
     29  CA         7.4020  -22.7680    6.3430 C.3   179  TRP179      0.1605
     30  C          7.0070  -22.6810    4.8710 C.2   179  TRP179      0.2264
     31  O          5.8180  -22.5380    4.5860 O.2   179  TRP179     -0.2867
     32  CB         7.7670  -21.3980    6.9020 C.3   179  TRP179      0.0550
     33  CG         8.9590  -20.7910    6.2630 C.ar  179  TRP179      0.0003
     34  CD1       10.2540  -20.9070    6.6670 C.ar  179  TRP179      0.0946
     35  CD2        8.9630  -19.9110    5.1370 C.ar  179  TRP179      0.0152
     36  NE1       11.0740  -20.1710    5.8430 N.ar  179  TRP179     -0.2442
     37  CE2       10.3050  -19.5330    4.9050 C.ar  179  TRP179      0.0810
     38  CE3        7.9540  -19.3830    4.3050 C.ar  179  TRP179      0.0012
     39  CZ2       10.6700  -18.6650    3.8650 C.ar  179  TRP179      0.0191
     40  CZ3        8.3200  -18.5470    3.2610 C.ar  179  TRP179      0.0001
     41  CH2        9.6610  -18.1920    3.0520 C.ar  179  TRP179      0.0015
     42  N          4.6450  -25.4760    3.9500 N.3   182  ILE182     -0.1245
     43  CA         3.3100  -25.1730    4.4850 C.3   182  ILE182      0.1561
     44  C          2.5780  -24.1300    3.6080 C.2   182  ILE182      0.2260
     45  O          1.4050  -24.3340    3.2610 O.2   182  ILE182     -0.2867
     46  CB         3.3790  -24.7870    5.9990 C.3   182  ILE182      0.0252
     47  CG1        3.5920  -26.0450    6.8700 C.3   182  ILE182      0.0019
     48  CG2        2.1320  -24.0220    6.4590 C.3   182  ILE182      0.0019
     49  CD1        4.3530  -25.7910    8.2060 C.3   182  ILE182      0.0001
     50  N         15.1460  -29.2590    7.3620 N.3   194  TRP194     -0.1241
     51  CA        14.2390  -28.7450    8.3900 C.3   194  TRP194      0.1605
     52  C         13.6090  -29.9040    9.1680 C.2   194  TRP194      0.2264
     53  O         13.7300  -29.9300   10.3840 O.2   194  TRP194     -0.2867
     54  CB        13.1770  -27.8340    7.7740 C.3   194  TRP194      0.0550
     55  CG        12.3710  -27.0730    8.7810 C.ar  194  TRP194      0.0003
     56  CD1       11.5190  -27.5890    9.7090 C.ar  194  TRP194      0.0946
     57  CD2       12.2880  -25.6500    8.9050 C.ar  194  TRP194      0.0152
     58  NE1       10.9080  -26.5780   10.4020 N.ar  194  TRP194     -0.2442
     59  CE2       11.3490  -25.3740    9.9170 C.ar  194  TRP194      0.0810
     60  CE3       12.8800  -24.5760    8.2220 C.ar  194  TRP194      0.0012
     61  CZ2       11.0260  -24.0670   10.3000 C.ar  194  TRP194      0.0191
     62  CZ3       12.5380  -23.2830    8.5780 C.ar  194  TRP194      0.0001
     63  CH2       11.6230  -23.0360    9.6040 C.ar  194  TRP194      0.0015
     64  N         13.6750  -31.4550   13.3170 N.3   198  VAL198     -0.1245
     65  CA        12.4920  -31.7590   14.1210 C.3   198  VAL198      0.1561
     66  C         12.6420  -33.1930   14.6660 C.2   198  VAL198      0.2260
     67  O         12.3670  -33.4140   15.8480 O.2   198  VAL198     -0.2867
     68  CB        11.1450  -31.4580   13.3810 C.3   198  VAL198      0.0252
     69  CG1        9.9390  -31.8540   14.2240 C.3   198  VAL198      0.0019
     70  CG2       11.0420  -29.9920   13.0120 C.3   198  VAL198      0.0019
     71  N          5.6290  -29.1400   19.0600 N.3   212  PHE212     -0.1241
     72  CA         4.6230  -28.0860   19.2740 C.3   212  PHE212      0.1605
     73  C          3.3530  -28.6200   19.9370 C.2   212  PHE212      0.2264
     74  O          2.2700  -28.0700   19.7220 O.2   212  PHE212     -0.2867
     75  CB         4.2980  -27.3120   17.9810 C.3   212  PHE212      0.0534
     76  CG         5.4090  -26.4330   17.4690 C.ar  212  PHE212     -0.0203
     77  CD1        5.8310  -25.3250   18.1940 C.ar  212  PHE212     -0.0042
     78  CD2        6.0050  -26.6850   16.2420 C.ar  212  PHE212     -0.0042
     79  CE1        6.8410  -24.4950   17.7060 C.ar  212  PHE212     -0.0003
     80  CE2        7.0110  -25.8520   15.7540 C.ar  212  PHE212     -0.0003
     81  CZ         7.4230  -24.7630   16.4890 C.ar  212  PHE212     -0.0000
     82  N          0.2090  -23.7900   14.3090 N.3   220  VAL220     -0.1245
     83  CA         1.4020  -24.2970   13.6200 C.3   220  VAL220      0.1561
     84  C          1.5520  -23.6330   12.2320 C.2   220  VAL220      0.2260
     85  O          2.6520  -23.1600   11.9240 O.2   220  VAL220     -0.2867
     86  CB         1.4780  -25.8640   13.5770 C.3   220  VAL220      0.0252
     87  CG1        2.6490  -26.3530   12.7180 C.3   220  VAL220      0.0019
     88  CG2        1.5840  -26.4430   14.9820 C.3   220  VAL220      0.0019
     89  N          2.3830  -19.9010   12.5280 N.3   223  ASN223     -0.1225
     90  CA         3.8140  -19.7260   12.7780 C.3   223  ASN223      0.1785
     91  C          4.6420  -19.7790   11.5000 C.2   223  ASN223      0.2597
     92  O          5.6750  -19.1090   11.4200 O.2   223  ASN223     -0.2718
     93  CB         4.3200  -20.7460   13.7630 C.3   223  ASN223      0.1169
     94  CG         5.5910  -20.3240   14.4640 C.2   223  ASN223      0.2627
     95  OD1        5.6790  -19.2490   15.0980 O.2   223  ASN223     -0.2716
     96  ND2        6.5920  -21.1900   14.3930 N.am  223  ASN223     -0.0877
     97  N          4.1920  -20.5650   10.4970 N.am  224  ALA224     -0.1979
     98  CA         4.8530  -20.6370    9.1960 C.3   224  ALA224      0.1597
     99  C          4.7080  -19.2880    8.4790 C.2   224  ALA224      0.2287
    100  O          5.6330  -18.8580    7.8010 O.2   224  ALA224     -0.2864
    101  CB         4.2480  -21.7430    8.3590 C.3   224  ALA224      0.0319
    102  N          7.1870  -16.7880    9.8920 N.3   227  PHE227     -0.1241
    103  CA         8.5390  -17.0000    9.3690 C.3   227  PHE227      0.1605
    104  C          8.6190  -16.2070    8.0810 C.2   227  PHE227      0.2264
    105  O          9.6160  -15.5310    7.8590 O.2   227  PHE227     -0.2867
    106  CB         8.8410  -18.4850    9.1070 C.3   227  PHE227      0.0534
    107  CG         9.4140  -19.2110   10.2960 C.ar  227  PHE227     -0.0203
    108  CD1       10.7610  -19.0910   10.6230 C.ar  227  PHE227     -0.0042
    109  CD2        8.6110  -20.0220   11.0900 C.ar  227  PHE227     -0.0042
    110  CE1       11.2910  -19.7640   11.7290 C.ar  227  PHE227     -0.0003
    111  CE2        9.1430  -20.6970   12.1940 C.ar  227  PHE227     -0.0003
    112  CZ        10.4800  -20.5680   12.5020 C.ar  227  PHE227     -0.0000
    113  N          8.0950  -18.7120   16.4030 N.3   235  VAL235     -0.1231
    114  CA         8.5330  -19.4510   17.5820 C.3   235  VAL235      0.1692
    115  C          9.1220  -20.8010   17.1630 C.2   235  VAL235      0.2592
    116  O          8.7630  -21.3490   16.1210 O.2   235  VAL235     -0.2718
    117  CB         7.4700  -19.5320   18.7330 C.3   235  VAL235      0.0266
    118  CG1        7.0930  -18.1430   19.2280 C.3   235  VAL235      0.0020
    119  CG2        6.2180  -20.3030   18.3270 C.3   235  VAL235      0.0020
    120  N         10.0850  -21.2870   17.9590 N.am  236  TYR236     -0.1962
    121  CA        10.8440  -22.5110   17.7200 C.3   236  TYR236      0.1771
    122  C         10.6250  -23.5300   18.8500 C.2   236  TYR236      0.2619
    123  O         10.2650  -23.1620   19.9760 O.2   236  TYR236     -0.2715
    124  CB        12.3490  -22.1630   17.6240 C.3   236  TYR236      0.0574
    125  CG        12.6710  -21.0170   16.6840 C.ar  236  TYR236     -0.0198
    126  CD1       12.5210  -19.6900   17.0900 C.ar  236  TYR236     -0.0009
    127  CD2       13.1400  -21.2560   15.3910 C.ar  236  TYR236     -0.0009
    128  CE1       12.7670  -18.6320   16.2150 C.ar  236  TYR236      0.0417
    129  CE2       13.4520  -20.2020   14.5290 C.ar  236  TYR236      0.0417
    130  CZ        13.2590  -18.8910   14.9470 C.ar  236  TYR236      0.1957
    131  OH        13.5520  -17.8430   14.1150 O.3   236  TYR236     -0.2866
    132  N         10.8910  -24.8110   18.5660 N.am  237  LEU237     -0.1977
    133  CA        10.7980  -25.8510   19.5890 C.3   237  LEU237      0.1596
    134  C         11.8020  -25.4470   20.6560 C.2   237  LEU237      0.2287
    135  O         12.8320  -24.8380   20.3460 O.2   237  LEU237     -0.2864
    136  CB        11.1560  -27.2580   19.0380 C.3   237  LEU237      0.0297
    137  CG        10.3620  -27.7810   17.8300 C.3   237  LEU237      0.0022
    138  CD1       11.0960  -28.9310   17.1470 C.3   237  LEU237      0.0001
    139  CD2        8.9860  -28.2300   18.2310 C.3   237  LEU237      0.0001
    140  N         16.4640  -24.7170   11.0070 N.3   255  TRP255     -0.1241
    141  CA        15.2280  -23.9360   10.9380 C.3   255  TRP255      0.1605
    142  C         15.4480  -22.4650   10.5490 C.2   255  TRP255      0.2264
    143  O         14.7140  -21.5780   10.9970 O.2   255  TRP255     -0.2867
    144  CB        14.4090  -24.0540   12.2300 C.3   255  TRP255      0.0550
    145  CG        14.2390  -25.4580   12.7320 C.ar  255  TRP255      0.0003
    146  CD1       13.9050  -26.5640   12.0040 C.ar  255  TRP255      0.0946
    147  CD2       14.3630  -25.8910   14.0870 C.ar  255  TRP255      0.0152
    148  NE1       13.8420  -27.6660   12.8210 N.ar  255  TRP255     -0.2442
    149  CE2       14.1180  -27.2810   14.1080 C.ar  255  TRP255      0.0810
    150  CE3       14.7030  -25.2450   15.2860 C.ar  255  TRP255      0.0012
    151  CZ2       14.1890  -28.0340   15.2880 C.ar  255  TRP255      0.0191
    152  CZ3       14.7620  -25.9860   16.4530 C.ar  255  TRP255      0.0001
    153  CH2       14.4840  -27.3580   16.4530 C.ar  255  TRP255      0.0015
@<TRIPOS>BOND
     1    41    40   ar
     2    41    39   ar
     3    40    38   ar
     4    45    44    2
     5    44    43    1
     6    39    37   ar
     7    42    43    1
     8    38    35   ar
     9    27    26    1
    10    43    46    1
    11    31    30    2
    12    30    29    1
    13    37    35   ar
    14    37    36   ar
    15    35    33   ar
    16    26    25    1
    17    36    34   ar
    18    46    48    1
    19    46    47    1
    20    25    24    1
    21    33    34   ar
    22    33    32    1
    23    29    28    1
    24    29    32    1
    25    47    49    1
    26    24    21    1
    27    50    51    1
    28    21    22    1
    29    21    20    1
    30    22    23    2
    31    54    51    1
    32    54    55    1
    33   100    99    2
    34     7     5    1
    35   105   104    2
    36   104   103    1
    37    60    62   ar
    38    60    57   ar
    39   101    98    1
    40    51    52    1
    41    99    98    1
    42    62    63   ar
    43    55    57   ar
    44    55    56   ar
    45    57    59   ar
    46     1     2    1
    47   106   103    1
    48   106   107    1
    49     2     5    1
    50     2     3    1
    51    52    53    2
    52    98    97    1
    53     5     6    1
    54   103   102    1
    55    63    61   ar
    56    56    58   ar
    57    59    61   ar
    58    59    58   ar
    59     4     3    2
    60   107   108   ar
    61   107   109   ar
    62     3     9   am
    63     6     8    1
    64    97    91   am
    65   142   141    1
    66   142   143    2
    67   108   110   ar
    68   141   140    1
    69   141   144    1
    70   109   111   ar
    71     9    10    1
    72    92    91    2
    73    91    90    1
    74   110   112   ar
    75    85    84    2
    76   146   145   ar
    77   146   148   ar
    78    11    10    1
    79    11    12    2
    80   111   112   ar
    81   144   145    1
    82    84    83    1
    83    10    13    1
    84    89    90    1
    85    87    86    1
    86   145   147   ar
    87    90    93    1
    88   148   149   ar
    89    70    68    1
    90    64    65    1
    91    68    65    1
    92    68    69    1
    93    86    83    1
    94    86    88    1
    95    83    82    1
    96    13    14    1
    97    93    94    1
    98   147   149   ar
    99   147   150   ar
   100   149   151   ar
   101   131   130    1
   102    65    66    1
   103    14    15    1
   104    96    94   am
   105    94    95    2
   106   129   130   ar
   107   129   127   ar
   108    66    67    2
   109   130   128   ar
   110   150   152   ar
   111   151   153   ar
   112    15    16    1
   113   127   125   ar
   114    16    17    2
   115    80    78   ar
   116    80    81   ar
   117   116   115    2
   118   128   126   ar
   119    78    76   ar
   120   113   114    1
   121   153   152   ar
   122    81    79   ar
   123    17    19    1
   124    17    18    1
   125   125   126   ar
   126   125   124    1
   127   138   137    1
   128   115   114    1
   129   115   120   am
   130    76    75    1
   131    76    77   ar
   132   114   117    1
   133   124   121    1
   134    79    77   ar
   135   121   120    1
   136   121   122    1
   137   137   139    1
   138   137   136    1
   139    75    72    1
   140   119   117    1
   141   132   122   am
   142   132   133    1
   143   117   118    1
   144   122   123    2
   145   136   133    1
   146    71    72    1
   147    72    73    1
   148   133   134    1
   149    74    73    2
   150   135   134    2
