@<TRIPOS>MOLECULE
tmp/5fdzA00.pdb
 157 160 0 0 0
SMALL
GASTEIGER

@<TRIPOS>ATOM
      1  N         -7.8300   13.3570   78.1810 N.3    23  TRP23      -0.1228
      2  CA        -7.1660   12.0780   78.4700 C.3    23  TRP23       0.1722
      3  C         -5.8350   11.8070   77.7410 C.2    23  TRP23       0.2437
      4  O         -4.9210   11.2770   78.3520 O.2    23  TRP23      -0.2733
      5  CB        -8.1510   10.9030   78.3090 C.3    23  TRP23       0.0563
      6  CG        -8.7260   10.7520   76.9270 C.ar   23  TRP23       0.0003
      7  CD1       -9.8470   11.3370   76.4440 C.ar   23  TRP23       0.0946
      8  CD2       -8.1770    9.9830   75.8520 C.ar   23  TRP23       0.0152
      9  NE1      -10.0420   10.9840   75.1400 N.ar   23  TRP23      -0.2442
     10  CE2       -9.0300   10.1530   74.7480 C.ar   23  TRP23       0.0810
     11  CE3       -7.0440    9.1580   75.7170 C.ar   23  TRP23       0.0012
     12  CZ2       -8.8030    9.5250   73.5200 C.ar   23  TRP23       0.0191
     13  CZ3       -6.8080    8.5440   74.4970 C.ar   23  TRP23       0.0001
     14  CH2       -7.6850    8.7260   73.4130 C.ar   23  TRP23       0.0015
     15  N         -5.6930   12.2220   76.4630 N.am   24  PRO24      -0.2718
     16  CA        -4.3710   12.0420   75.8370 C.3    24  PRO24       0.1535
     17  C         -3.2310   12.8900   76.4140 C.2    24  PRO24       0.2599
     18  O         -2.0690   12.6160   76.1200 O.2    24  PRO24      -0.2715
     19  CB        -4.6080   12.4650   74.3630 C.3    24  PRO24       0.0310
     20  CG        -6.0810   12.5640   74.2010 C.3    24  PRO24       0.0237
     21  CD        -6.5870   12.9630   75.5550 C.3    24  PRO24       0.0939
     22  N         -3.5560   13.9110   77.1990 N.am   25  PHE25      -0.1960
     23  CA        -2.5920   14.9410   77.5890 C.3    25  PHE25       0.1771
     24  C         -2.2820   14.9450   79.0750 C.2    25  PHE25       0.2619
     25  O         -1.5830   15.8320   79.5790 O.2    25  PHE25      -0.2715
     26  CB        -3.1400   16.3180   77.1700 C.3    25  PHE25       0.0574
     27  CG        -3.6930   16.3500   75.7610 C.ar   25  PHE25      -0.0200
     28  CD1       -2.8480   16.2670   74.6620 C.ar   25  PHE25      -0.0042
     29  CD2       -5.0690   16.4500   75.5250 C.ar   25  PHE25      -0.0042
     30  CE1       -3.3580   16.2810   73.3670 C.ar   25  PHE25      -0.0003
     31  CE2       -5.5710   16.4640   74.2280 C.ar   25  PHE25      -0.0003
     32  CZ        -4.7170   16.3710   73.1540 C.ar   25  PHE25      -0.0000
     33  N         -2.7770   13.9420   79.7720 N.am   26  MET26      -0.1963
     34  CA        -2.7390   13.9300   81.2220 C.3    26  MET26       0.1736
     35  C         -1.3460   13.6760   81.7730 C.2    26  MET26       0.2616
     36  O         -1.0020   14.1810   82.8420 O.2    26  MET26      -0.2715
     37  CB        -3.7230   12.8850   81.7650 C.3    26  MET26       0.0427
     38  CG        -5.1820   13.2150   81.5140 C.3    26  MET26       0.0599
     39  SD        -5.7070   14.7320   82.3430 S.3    26  MET26      -0.1393
     40  CE        -5.7110   14.1840   84.0510 C.3    26  MET26       0.0692
     41  N         -0.5470   12.9020   81.0570 N.am   27  GLU27      -0.1964
     42  CA         0.7660   12.5130   81.5570 C.3    27  GLU27       0.1718
     43  C          1.8230   12.5760   80.4820 C.2    27  GLU27       0.2458
     44  O          1.4890   12.5250   79.3070 O.2    27  GLU27      -0.2730
     45  CB         0.7090   11.0980   82.1580 C.3    27  GLU27       0.0428
     46  CG         0.1630   11.0890   83.5760 C.3    27  GLU27       0.1163
     47  CD         0.4210    9.7890   84.2960 C.2    27  GLU27       0.3649
     48  OE1        0.7370    8.7860   83.6220 O.co2  27  GLU27      -0.2457
     49  OE2        0.2940    9.7680   85.5340 O.co2  27  GLU27      -0.2457
     50  N          3.1120   12.6590   80.8890 N.am   28  PRO28      -0.2716
     51  CA         4.1640   12.5750   79.9050 C.3    28  PRO28       0.1536
     52  C          3.9580   11.3710   79.0040 C.2    28  PRO28       0.2598
     53  O          3.6770   10.2610   79.4870 O.2    28  PRO28      -0.2715
     54  CB         5.4420   12.4220   80.7520 C.3    28  PRO28       0.0310
     55  CG         5.1160   13.0580   82.0470 C.3    28  PRO28       0.0237
     56  CD         3.6610   12.7440   82.2600 C.3    28  PRO28       0.0939
     57  N          4.0660   11.6020   77.7040 N.am   29  VAL29      -0.1964
     58  CA         3.9330   10.5400   76.7050 C.3    29  VAL29       0.1727
     59  C          5.0870    9.5660   76.9200 C.2    29  VAL29       0.2616
     60  O          6.2300    9.9950   77.1320 O.2    29  VAL29      -0.2715
     61  CB         4.0020   11.1160   75.2630 C.3    29  VAL29       0.0290
     62  CG1        3.9580   10.0090   74.2270 C.3    29  VAL29       0.0023
     63  CG2        2.8780   12.1300   75.0210 C.3    29  VAL29       0.0023
     64  N          4.7780    8.2670   76.8940 N.am   30  LYS30      -0.1977
     65  CA         5.7840    7.2130   77.1160 C.3    30  LYS30       0.1596
     66  C          6.4120    6.8140   75.7920 C.2    30  LYS30       0.2287
     67  O          5.7160    6.6580   74.7840 O.2    30  LYS30      -0.2864
     68  CB         5.1580    5.9580   77.7400 C.3    30  LYS30       0.0298
     69  CG         4.2510    6.1870   78.9360 C.3    30  LYS30       0.0038
     70  CD         3.5440    4.8890   79.3120 C.3    30  LYS30       0.0206
     71  CE         2.7410    4.9770   80.6030 C.3    30  LYS30       0.1093
     72  NZ         2.2540    6.3510   80.9540 N.3    30  LYS30      -0.1314
     73  N          4.7870    3.8040   74.0250 N.3    33  GLU33      -0.1231
     74  CA         3.5350    4.0240   73.2790 C.3    33  GLU33       0.1699
     75  C          3.6690    4.9520   72.0450 C.2    33  GLU33       0.2592
     76  O          2.8260    4.8960   71.1570 O.2    33  GLU33      -0.2718
     77  CB         2.3960    4.4860   74.2310 C.3    33  GLU33       0.0402
     78  CG         2.5670    5.8720   74.8550 C.3    33  GLU33       0.1161
     79  CD         1.5950    6.1820   76.0100 C.2    33  GLU33       0.3649
     80  OE1        0.5980    5.4230   76.1970 O.co2  33  GLU33      -0.2457
     81  OE2        1.8330    7.2090   76.7210 O.co2  33  GLU33      -0.2457
     82  N          4.7340    5.7570   71.9690 N.am   34  ALA34      -0.1966
     83  CA         4.8810    6.7670   70.8990 C.3    34  ALA34       0.1713
     84  C          6.2290    6.6730   70.1770 C.2    34  ALA34       0.2458
     85  O          7.1920    7.3180   70.5900 O.2    34  ALA34      -0.2730
     86  CB         4.6980    8.1630   71.4690 C.3    34  ALA34       0.0333
     87  N          6.2990    5.8680   69.0890 N.am   35  PRO35      -0.2727
     88  CA         7.5650    5.6250   68.3810 C.3    35  PRO35       0.1402
     89  C          8.3490    6.9030   68.0220 C.2    35  PRO35       0.2269
     90  O          7.8040    7.8130   67.3740 O.2    35  PRO35      -0.2865
     91  CB         7.1170    4.8680   67.1210 C.3    35  PRO35       0.0296
     92  CG         5.9030    4.1210   67.5610 C.3    35  PRO35       0.0237
     93  CD         5.2140    5.0060   68.5650 C.3    35  PRO35       0.0939
     94  N          9.0820    9.5330   69.6180 N.3    37  TYR37      -0.1241
     95  CA         8.4490   10.7850   70.0320 C.3    37  TYR37       0.1605
     96  C          9.4850   11.7970   70.4950 C.2    37  TYR37       0.2264
     97  O          9.4460   12.9620   70.0800 O.2    37  TYR37      -0.2867
     98  CB         7.4220   10.5260   71.1490 C.3    37  TYR37       0.0534
     99  CG         6.5940   11.7360   71.5500 C.ar   37  TYR37      -0.0201
    100  CD1        5.3830   11.9890   70.9400 C.ar   37  TYR37      -0.0009
    101  CD2        7.0280   12.6240   72.5450 C.ar   37  TYR37      -0.0009
    102  CE1        4.6030   13.0940   71.2950 C.ar   37  TYR37       0.0417
    103  CE2        6.2550   13.7380   72.9150 C.ar   37  TYR37       0.0417
    104  CZ         5.0410   13.9750   72.2840 C.ar   37  TYR37       0.1957
    105  OH         4.2450   15.0700   72.6270 O.3    37  TYR37      -0.2866
    106  N          1.4400   21.8610   74.6820 N.3    72  VAL72      -0.1245
    107  CA         0.7510   20.5800   74.7220 C.3    72  VAL72       0.1561
    108  C          0.0830   20.3430   73.3690 C.2    72  VAL72       0.2260
    109  O          0.1940   19.2590   72.7990 O.2    72  VAL72      -0.2867
    110  CB        -0.3000   20.4920   75.8720 C.3    72  VAL72       0.0252
    111  CG1       -1.1380   19.2350   75.7620 C.3    72  VAL72       0.0019
    112  CG2        0.3640   20.5500   77.2370 C.3    72  VAL72       0.0019
    113  N          1.2800   17.8460   69.9970 N.3    76  CYS76      -0.1235
    114  CA         0.3230   16.8500   69.5170 C.3    76  CYS76       0.1677
    115  C          0.0530   16.9590   68.0190 C.2    76  CYS76       0.2270
    116  O         -0.0520   15.9470   67.3270 O.2    76  CYS76      -0.2867
    117  CB        -1.0030   16.9400   70.2980 C.3    76  CYS76       0.0956
    118  SG        -2.2810   15.8170   69.7010 S.3    76  CYS76      -0.0801
    119  N          3.1810   15.9280   65.9140 N.3    79  TYR79      -0.1227
    120  CA         3.4890   14.4990   65.9130 C.3    79  TYR79       0.1736
    121  C          2.4000   13.6420   65.2330 C.2    79  TYR79       0.2595
    122  O          2.7260   12.7130   64.5050 O.2    79  TYR79      -0.2718
    123  CB         3.7680   14.0250   67.3490 C.3    79  TYR79       0.0548
    124  CG         4.1910   12.5770   67.4550 C.ar   79  TYR79      -0.0200
    125  CD1        5.4890   12.1890   67.1820 C.ar   79  TYR79      -0.0009
    126  CD2        3.2840   11.5980   67.8310 C.ar   79  TYR79      -0.0009
    127  CE1        5.8690   10.8540   67.2610 C.ar   79  TYR79       0.0417
    128  CE2        3.6520   10.2620   67.9190 C.ar   79  TYR79       0.0417
    129  CZ         4.9410    9.8940   67.6300 C.ar   79  TYR79       0.1957
    130  OH         5.2890    8.5660   67.7070 O.3    79  TYR79      -0.2866
    131  N          1.1250   13.9580   65.4480 N.am   80  ASN80      -0.1961
    132  CA         0.0330   13.1050   64.9770 C.3    80  ASN80       0.1804
    133  C         -0.6130   13.5430   63.6460 C.2    80  ASN80       0.2463
    134  O         -0.5660   14.7220   63.2760 O.2    80  ASN80      -0.2730
    135  CB        -1.0480   12.9900   66.0640 C.3    80  ASN80       0.1195
    136  CG        -0.5380   12.2920   67.3140 C.2    80  ASN80       0.2630
    137  OD1       -0.4510   11.0580   67.3520 O.2    80  ASN80      -0.2716
    138  ND2       -0.1840   13.0640   68.3300 N.am   80  ASN80      -0.0877
    139  N         -1.2270   12.5770   62.9200 N.am   81  PRO81      -0.2727
    140  CA        -2.0480   12.8790   61.7450 C.3    81  PRO81       0.1402
    141  C         -3.2620   13.7760   62.0320 C.2    81  PRO81       0.2269
    142  O         -3.8820   13.6360   63.0870 O.2    81  PRO81      -0.2865
    143  CB        -2.5170   11.4920   61.2760 C.3    81  PRO81       0.0296
    144  CG        -1.4410   10.5670   61.7090 C.3    81  PRO81       0.0237
    145  CD        -0.9470   11.1240   63.0190 C.3    81  PRO81       0.0939
    146  N         -6.2100   11.9150   68.5800 N.3    86  TYR86      -0.1241
    147  CA        -5.4160   12.7970   69.4310 C.3    86  TYR86       0.1605
    148  C         -5.4210   14.2410   68.9010 C.2    86  TYR86       0.2264
    149  O         -5.5860   15.1890   69.6790 O.2    86  TYR86      -0.2867
    150  CB        -3.9650   12.3040   69.5850 C.3    86  TYR86       0.0534
    151  CG        -3.8090   10.8900   70.1450 C.ar   86  TYR86      -0.0201
    152  CD1       -4.5510   10.4490   71.2470 C.ar   86  TYR86      -0.0009
    153  CD2       -2.9140    9.9980   69.5770 C.ar   86  TYR86      -0.0009
    154  CE1       -4.4050    9.1590   71.7520 C.ar   86  TYR86       0.0417
    155  CE2       -2.7580    8.7050   70.0790 C.ar   86  TYR86       0.0417
    156  CZ        -3.5040    8.2930   71.1670 C.ar   86  TYR86       0.1957
    157  OH        -3.3430    7.0110   71.6550 O.3    86  TYR86      -0.2866
@<TRIPOS>BOND
     1   143   144    1
     2   143   140    1
     3   144   145    1
     4   140   141    1
     5   140   139    1
     6   141   142    2
     7   139   145    1
     8   139   133   am
     9   134   133    2
    10   133   132    1
    11   122   121    2
    12   132   131    1
    13   132   135    1
    14   121   131   am
    15   121   120    1
    16   120   119    1
    17   120   123    1
    18   135   136    1
    19    91    92    1
    20    91    88    1
    21   125   127   ar
    22   125   124   ar
    23   127   129   ar
    24   136   137    2
    25   136   138   am
    26   116   115    2
    27   123   124    1
    28    90    89    2
    29   124   126   ar
    30    92    93    1
    31   129   130    1
    32   129   128   ar
    33   126   128   ar
    34   115   114    1
    35    89    88    1
    36    88    87    1
    37    93    87    1
    38   146   147    1
    39   148   147    1
    40   148   149    2
    41    87    84   am
    42   147   150    1
    43   114   113    1
    44   114   117    1
    45   153   155   ar
    46   153   151   ar
    47   150   151    1
    48    94    95    1
    49   118   117    1
    50    95    96    1
    51    95    98    1
    52   155   156   ar
    53    97    96    2
    54   151   152   ar
    55    84    85    2
    56    84    83    1
    57    83    86    1
    58    83    82    1
    59   100   102   ar
    60   100    99   ar
    61    98    99    1
    62    76    75    2
    63   156   157    1
    64   156   154   ar
    65   152   154   ar
    66   102   104   ar
    67    99   101   ar
    68    82    75   am
    69    75    74    1
    70   104   105    1
    71   104   103   ar
    72   101   103   ar
    73   109   108    2
    74    32    30   ar
    75    32    31   ar
    76    74    73    1
    77    74    77    1
    78    30    28   ar
    79   108   107    1
    80    14    12   ar
    81    14    13   ar
    82    12    10   ar
    83    20    19    1
    84    20    21    1
    85    62    61    1
    86    31    29   ar
    87    77    78    1
    88    19    16    1
    89    13    11   ar
    90    28    27   ar
    91   106   107    1
    92   107   110    1
    93    10     9   ar
    94    10     8   ar
    95    67    66    2
    96    78    79    1
    97    63    61    1
    98     9     7   ar
    99    61    58    1
   100    29    27   ar
   101    21    15    1
   102    11     8   ar
   103    27    26    1
   104   111   110    1
   105    66    65    1
   106    16    17    1
   107    16    15    1
   108     8     6   ar
   109   110   112    1
   110    79    80   ar
   111    79    81   ar
   112    18    17    2
   113    17    22   am
   114     7     6   ar
   115    15     3   am
   116    58    59    1
   117    58    57    1
   118    64    59   am
   119    64    65    1
   120    59    60    2
   121     6     5    1
   122    65    68    1
   123    26    23    1
   124    22    23    1
   125    23    24    1
   126    57    52   am
   127    68    69    1
   128     3     4    2
   129     3     2    1
   130     1     2    1
   131     5     2    1
   132    69    70    1
   133    52    53    2
   134    52    51    1
   135    24    25    2
   136    24    33   am
   137    44    43    2
   138    70    71    1
   139    33    34    1
   140    51    54    1
   141    51    50    1
   142    43    50   am
   143    43    42    1
   144    71    72    1
   145    54    55    1
   146    50    56    1
   147    41    42    1
   148    41    35   am
   149    34    37    1
   150    34    35    1
   151    38    37    1
   152    38    39    1
   153    42    45    1
   154    35    36    2
   155    55    56    1
   156    45    46    1
   157    39    40    1
   158    46    47    1
   159    48    47   ar
   160    47    49   ar
