@<TRIPOS>MOLECULE
tmp/5fe0A00.pdb
 103 103 0 0 0
SMALL
GASTEIGER

@<TRIPOS>ATOM
      1  N        -36.5550   27.4480   37.0930 N.3    24  PRO24      -0.2102
      2  CA       -37.4300   26.3940   36.5080 C.3    24  PRO24       0.1504
      3  C        -37.3050   25.0160   37.1130 C.2    24  PRO24       0.2575
      4  O        -38.1920   24.2020   36.8920 O.2    24  PRO24      -0.2718
      5  CB       -36.9240   26.2830   35.0630 C.3    24  PRO24       0.0282
      6  CG       -36.2500   27.5760   34.8080 C.3    24  PRO24       0.0208
      7  CD       -35.5810   27.9230   36.1020 C.3    24  PRO24       0.0893
      8  N        -36.2100   24.7460   37.8390 N.am   25  PHE25      -0.1977
      9  CA       -35.8490   23.4180   38.2630 C.3    25  PHE25       0.1639
     10  C        -35.9420   23.2120   39.7600 C.2    25  PHE25       0.2290
     11  O        -35.4850   22.1800   40.2590 O.2    25  PHE25      -0.2864
     12  CB       -34.4040   23.1380   37.8430 C.3    25  PHE25       0.0560
     13  CG       -34.1020   23.5800   36.4420 C.ar   25  PHE25      -0.0200
     14  CD1      -34.7100   22.9470   35.3540 C.ar   25  PHE25      -0.0042
     15  CD2      -33.2700   24.6820   36.1910 C.ar   25  PHE25      -0.0042
     16  CE1      -34.4570   23.3650   34.0680 C.ar   25  PHE25      -0.0003
     17  CE2      -33.0010   25.0730   34.8940 C.ar   25  PHE25      -0.0003
     18  CZ       -33.5720   24.3990   33.8340 C.ar   25  PHE25      -0.0000
     19  N        -41.7300   19.4290   38.2490 N.3    29  VAL29      -0.1245
     20  CA       -42.6040   20.0740   37.2570 C.3    29  VAL29       0.1561
     21  C        -44.0860   19.8630   37.6360 C.2    29  VAL29       0.2260
     22  O        -44.4930   18.7360   37.9510 O.2    29  VAL29      -0.2867
     23  CB       -42.2830   19.5370   35.8520 C.3    29  VAL29       0.0252
     24  CG1      -43.3070   19.9680   34.8540 C.3    29  VAL29       0.0019
     25  CG2      -40.9050   20.0300   35.4330 C.3    29  VAL29       0.0019
     26  N        -48.7620   23.4740   35.0750 N.3    33  GLU33      -0.1231
     27  CA       -47.9050   24.2540   34.1910 C.3    33  GLU33       0.1699
     28  C        -47.6010   23.5220   32.8880 C.2    33  GLU33       0.2592
     29  O        -47.4530   24.1510   31.8730 O.2    33  GLU33      -0.2718
     30  CB       -46.5920   24.6200   34.9000 C.3    33  GLU33       0.0402
     31  CG       -46.7390   25.5710   36.1040 C.3    33  GLU33       0.1161
     32  CD       -45.4070   25.8160   36.8670 C.2    33  GLU33       0.3649
     33  OE1      -44.3400   25.3420   36.3700 O.co2  33  GLU33      -0.2457
     34  OE2      -45.4390   26.5060   37.9440 O.co2  33  GLU33      -0.2457
     35  N        -47.5100   22.1960   32.9260 N.am   34  ALA34      -0.1966
     36  CA       -47.0670   21.3980   31.8150 C.3    34  ALA34       0.1713
     37  C        -47.9810   20.1120   31.7640 C.2    34  ALA34       0.2458
     38  O        -47.5890   19.0410   32.2070 O.2    34  ALA34      -0.2730
     39  CB       -45.6190   21.0100   32.0390 C.3    34  ALA34       0.0333
     40  N        -49.2030   20.2330   31.2620 N.am   35  PRO35      -0.2727
     41  CA       -50.1880   19.1200   31.4140 C.3    35  PRO35       0.1402
     42  C        -49.7660   17.6800   31.0030 C.2    35  PRO35       0.2269
     43  O        -50.1200   16.7200   31.7210 O.2    35  PRO35      -0.2865
     44  CB       -51.3860   19.5920   30.5900 C.3    35  PRO35       0.0296
     45  CG       -51.2500   21.0760   30.4810 C.3    35  PRO35       0.0237
     46  CD       -49.8320   21.4850   30.8140 C.3    35  PRO35       0.0939
     47  N        -46.5660   16.4450   30.6530 N.3    37  TYR37      -0.1241
     48  CA       -45.1250   16.3260   30.9210 C.3    37  TYR37       0.1605
     49  C        -44.7300   14.9420   31.3610 C.2    37  TYR37       0.2264
     50  O        -43.7410   14.3460   30.8540 O.2    37  TYR37      -0.2867
     51  CB       -44.7110   17.3310   32.0170 C.3    37  TYR37       0.0534
     52  CG       -43.2340   17.3580   32.3350 C.ar   37  TYR37      -0.0201
     53  CD1      -42.6860   16.5300   33.3170 C.ar   37  TYR37      -0.0009
     54  CD2      -42.3760   18.1950   31.6450 C.ar   37  TYR37      -0.0009
     55  CE1      -41.3150   16.5550   33.6050 C.ar   37  TYR37       0.0417
     56  CE2      -41.0090   18.2310   31.9250 C.ar   37  TYR37       0.0417
     57  CZ       -40.4810   17.3990   32.8930 C.ar   37  TYR37       0.1957
     58  OH       -39.1210   17.4740   33.1690 O.3    37  TYR37      -0.2866
     59  N        -35.1870   18.8680   30.4820 N.3    76  CYS76      -0.1235
     60  CA       -35.5750   20.1860   30.0710 C.3    76  CYS76       0.1677
     61  C        -35.3240   20.4250   28.6020 C.2    76  CYS76       0.2270
     62  O        -36.1570   21.0200   27.9190 O.2    76  CYS76      -0.2867
     63  CB       -34.8730   21.2350   30.9340 C.3    76  CYS76       0.0956
     64  SG       -35.1370   22.9450   30.4070 S.3    76  CYS76      -0.0801
     65  N        -37.9000   18.2900   26.4880 N.3    79  TYR79      -0.1227
     66  CA       -39.2890   18.7460   26.5500 C.3    79  TYR79       0.1736
     67  C        -39.5050   20.1050   25.8890 C.2    79  TYR79       0.2595
     68  O        -40.5110   20.3110   25.2290 O.2    79  TYR79      -0.2718
     69  CB       -39.7780   18.7950   28.0010 C.3    79  TYR79       0.0548
     70  CG       -41.2570   19.0180   28.0990 C.ar   79  TYR79      -0.0200
     71  CD1      -42.1570   18.0130   27.7710 C.ar   79  TYR79      -0.0009
     72  CD2      -41.7720   20.2560   28.5240 C.ar   79  TYR79      -0.0009
     73  CE1      -43.5400   18.2360   27.8350 C.ar   79  TYR79       0.0417
     74  CE2      -43.1470   20.4900   28.5730 C.ar   79  TYR79       0.0417
     75  CZ       -44.0240   19.4680   28.2440 C.ar   79  TYR79       0.1957
     76  OH       -45.3850   19.6840   28.3210 O.3    79  TYR79      -0.2866
     77  N        -38.5680   21.0340   26.0820 N.am   80  ASN80      -0.1961
     78  CA       -38.7790   22.4350   25.7420 C.3    80  ASN80       0.1804
     79  C        -38.1220   22.8570   24.4170 C.2    80  ASN80       0.2463
     80  O        -37.0170   22.3990   24.0430 O.2    80  ASN80      -0.2730
     81  CB       -38.2780   23.3240   26.8800 C.3    80  ASN80       0.1195
     82  CG       -39.0520   23.1140   28.1730 C.2    80  ASN80       0.2630
     83  OD1      -40.1240   23.6610   28.3270 O.2    80  ASN80      -0.2716
     84  ND2      -38.5120   22.3480   29.0990 N.am   80  ASN80      -0.0877
     85  N        -38.7930   23.7760   23.6880 N.am   81  PRO81      -0.2727
     86  CA       -38.1800   24.2950   22.4470 C.3    81  PRO81       0.1402
     87  C        -36.8010   24.9340   22.6910 C.2    81  PRO81       0.2269
     88  O        -36.5800   25.5260   23.7570 O.2    81  PRO81      -0.2865
     89  CB       -39.1950   25.3520   21.9580 C.3    81  PRO81       0.0296
     90  CG       -40.4540   25.0990   22.7260 C.3    81  PRO81       0.0237
     91  CD       -40.0460   24.4850   24.0290 C.3    81  PRO81       0.0939
     92  N        -36.7080   28.2170   29.2020 N.3    86  TYR86      -0.1241
     93  CA       -36.3820   27.0580   30.0110 C.3    86  TYR86       0.1605
     94  C        -35.1000   26.4160   29.4950 C.2    86  TYR86       0.2264
     95  O        -34.2510   26.0520   30.2880 O.2    86  TYR86      -0.2867
     96  CB       -37.4970   25.9940   30.0200 C.3    86  TYR86       0.0534
     97  CG       -38.7890   26.4580   30.6350 C.ar   86  TYR86      -0.0201
     98  CD1      -38.8890   26.7070   31.9960 C.ar   86  TYR86      -0.0009
     99  CD2      -39.8890   26.7460   29.8400 C.ar   86  TYR86      -0.0009
    100  CE1      -40.0770   27.2100   32.5470 C.ar   86  TYR86       0.0417
    101  CE2      -41.0720   27.2010   30.3800 C.ar   86  TYR86       0.0417
    102  CZ       -41.1770   27.4200   31.7140 C.ar   86  TYR86       0.1957
    103  OH       -42.3760   27.8820   32.2090 O.3    86  TYR86      -0.2866
@<TRIPOS>BOND
     1    89    86    1
     2    89    90    1
     3    86    87    1
     4    86    85    1
     5    87    88    2
     6    90    91    1
     7    85    91    1
     8    85    79   am
     9    80    79    2
    10    79    78    1
    11    68    67    2
    12    78    77    1
    13    78    81    1
    14    67    77   am
    15    67    66    1
    16    65    66    1
    17    66    69    1
    18    81    82    1
    19    71    73   ar
    20    71    70   ar
    21    73    75   ar
    22    62    61    2
    23    69    70    1
    24    70    72   ar
    25    82    83    2
    26    82    84   am
    27    75    76    1
    28    75    74   ar
    29    72    74   ar
    30    61    60    1
    31    92    93    1
    32    94    93    1
    33    94    95    2
    34    99   101   ar
    35    99    97   ar
    36    93    96    1
    37    96    97    1
    38    60    59    1
    39    60    63    1
    40   101   102   ar
    41    64    63    1
    42    45    44    1
    43    45    46    1
    44    44    41    1
    45    97    98   ar
    46    47    48    1
    47    46    40    1
    48    50    49    2
    49    48    49    1
    50    48    51    1
    51    42    41    1
    52    42    43    2
    53    40    41    1
    54    40    37   am
    55    54    56   ar
    56    54    52   ar
    57   102   103    1
    58   102   100   ar
    59    37    36    1
    60    37    38    2
    61    36    39    1
    62    36    35    1
    63    29    28    2
    64    56    57   ar
    65    98   100   ar
    66    51    52    1
    67    52    53   ar
    68    28    35   am
    69    28    27    1
    70    57    58    1
    71    57    55   ar
    72    53    55   ar
    73    18    16   ar
    74    18    17   ar
    75    16    14   ar
    76    27    30    1
    77    27    26    1
    78     6     5    1
    79     6     7    1
    80    24    23    1
    81    17    15   ar
    82    30    31    1
    83     5     2    1
    84    14    13   ar
    85    25    23    1
    86    23    20    1
    87     7     1    1
    88    31    32    1
    89    15    13   ar
    90    33    32   ar
    91    13    12    1
    92     2     1    1
    93     2     3    1
    94    32    34   ar
    95     4     3    2
    96     3     8   am
    97    20    21    1
    98    20    19    1
    99    21    22    2
   100     8     9    1
   101    12     9    1
   102     9    10    1
   103    10    11    2
