@<TRIPOS>MOLECULE
tmp/5fe0B00.pdb
 89 87 0 0 0
SMALL
GASTEIGER

@<TRIPOS>ATOM
      1  N        -15.0240   19.2100   16.2870 N.3    24  PRO24      -0.2102
      2  CA       -14.2780   18.7130   17.4640 C.3    24  PRO24       0.1504
      3  C        -14.5280   17.2670   17.8540 C.2    24  PRO24       0.2575
      4  O        -13.7630   16.7250   18.6440 O.2    24  PRO24      -0.2718
      5  CB       -14.8240   19.5880   18.6110 C.3    24  PRO24       0.0282
      6  CG       -15.3590   20.8030   17.9320 C.3    24  PRO24       0.0208
      7  CD       -15.9660   20.2750   16.6650 C.3    24  PRO24       0.0893
      8  N        -15.6340   16.6930   17.3920 N.am   25  PHE25      -0.1977
      9  CA       -16.1210   15.4150   17.9060 C.3    25  PHE25       0.1639
     10  C        -15.9590   14.2830   16.9190 C.2    25  PHE25       0.2290
     11  O        -16.5350   13.2240   17.1330 O.2    25  PHE25      -0.2864
     12  CB       -17.6110   15.5480   18.2740 C.3    25  PHE25       0.0560
     13  CG       -17.9210   16.7770   19.0710 C.ar   25  PHE25      -0.0200
     14  CD1      -17.4020   16.9250   20.3250 C.ar   25  PHE25      -0.0042
     15  CD2      -18.6330   17.8320   18.5040 C.ar   25  PHE25      -0.0042
     16  CE1      -17.5880   18.0820   21.0230 C.ar   25  PHE25      -0.0003
     17  CE2      -18.8030   19.0110   19.1840 C.ar   25  PHE25      -0.0003
     18  CZ       -18.2940   19.1350   20.4580 C.ar   25  PHE25      -0.0000
     19  N        -10.7290   11.7630   21.3510 N.3    29  VAL29      -0.1245
     20  CA        -9.7930   12.6700   22.0100 C.3    29  VAL29       0.1561
     21  C         -8.4480   11.9570   22.2050 C.2    29  VAL29       0.2260
     22  O         -8.4070   10.8620   22.7460 O.2    29  VAL29      -0.2867
     23  CB       -10.3550   13.1730   23.3690 C.3    29  VAL29       0.0252
     24  CG1       -9.3070   13.9420   24.1770 C.3    29  VAL29       0.0019
     25  CG2      -11.5430   14.0740   23.1140 C.3    29  VAL29       0.0019
     26  N         -2.9400   15.1990   23.3100 N.3    33  GLU33      -0.1231
     27  CA        -3.4700   16.5490   23.1810 C.3    33  GLU33       0.1699
     28  C         -4.2170   17.0460   24.4020 C.2    33  GLU33       0.2592
     29  O         -4.3290   18.2400   24.5620 O.2    33  GLU33      -0.2718
     30  CB        -4.3620   16.6630   21.9540 C.3    33  GLU33       0.0402
     31  CG        -3.5410   16.6260   20.6830 C.3    33  GLU33       0.1161
     32  CD        -4.3670   16.3270   19.4730 C.2    33  GLU33       0.3649
     33  OE1       -5.5430   16.7240   19.4380 O.co2  33  GLU33      -0.2457
     34  OE2       -3.8340   15.6900   18.5540 O.co2  33  GLU33      -0.2457
     35  N         -4.7650   16.1650   25.2370 N.am   34  ALA34      -0.1980
     36  CA        -5.6080   16.6460   26.3620 C.3    34  ALA34       0.1597
     37  C         -5.1760   16.2340   27.7750 C.2    34  ALA34       0.2287
     38  O         -5.5400   15.1400   28.2270 O.2    34  ALA34      -0.2864
     39  CB        -7.0560   16.2770   26.1210 C.3    34  ALA34       0.0319
     40  N         -7.4610   14.2760   30.6390 N.3    37  TYR37      -0.1241
     41  CA        -8.7910   14.0130   30.0750 C.3    37  TYR37       0.1605
     42  C         -9.2960   12.6270   30.4960 C.2    37  TYR37       0.2264
     43  O        -10.3500   12.5100   31.1030 O.2    37  TYR37      -0.2867
     44  CB        -8.7570   14.0900   28.5410 C.3    37  TYR37       0.0534
     45  CG       -10.1150   13.9860   27.8920 C.ar   37  TYR37      -0.0201
     46  CD1      -10.6530   12.7380   27.5390 C.ar   37  TYR37      -0.0009
     47  CD2      -10.8640   15.1350   27.6200 C.ar   37  TYR37      -0.0009
     48  CE1      -11.8980   12.6340   26.9450 C.ar   37  TYR37       0.0417
     49  CE2      -12.1160   15.0380   27.0290 C.ar   37  TYR37       0.0417
     50  CZ       -12.6320   13.7940   26.6860 C.ar   37  TYR37       0.1957
     51  OH       -13.8870   13.7100   26.1140 O.3    37  TYR37      -0.2866
     52  N        -17.5840   16.8800   26.7140 N.3    76  CYS76      -0.1235
     53  CA       -16.9650   18.1060   26.2110 C.3    76  CYS76       0.1677
     54  C        -17.2370   19.2890   27.1390 C.2    76  CYS76       0.2270
     55  O        -16.3460   20.1230   27.3740 O.2    76  CYS76      -0.2867
     56  CB       -17.4740   18.4000   24.8050 C.3    76  CYS76       0.0956
     57  SG       -16.9640   20.0000   24.1400 S.3    76  CYS76      -0.0801
     58  N        -15.1880   18.9540   30.4780 N.3    79  TYR79      -0.1227
     59  CA       -13.7580   19.0970   30.3420 C.3    79  TYR79       0.1736
     60  C        -13.3280   20.5270   29.9350 C.2    79  TYR79       0.2595
     61  O        -12.3660   21.0620   30.4580 O.2    79  TYR79      -0.2718
     62  CB       -13.2150   18.0670   29.3530 C.3    79  TYR79       0.0548
     63  CG       -11.7170   18.0960   29.3460 C.ar   79  TYR79      -0.0200
     64  CD1      -10.9860   17.6160   30.4450 C.ar   79  TYR79      -0.0009
     65  CD2      -11.0150   18.6920   28.2870 C.ar   79  TYR79      -0.0009
     66  CE1       -9.6020   17.7040   30.4660 C.ar   79  TYR79       0.0417
     67  CE2       -9.6380   18.7780   28.2990 C.ar   79  TYR79       0.0417
     68  CZ        -8.9330   18.2790   29.3840 C.ar   79  TYR79       0.1957
     69  OH        -7.5640   18.3510   29.3750 O.3    79  TYR79      -0.2866
     70  N        -14.0490   21.1440   29.0130 N.am   80  ASN80      -0.1974
     71  CA       -13.5990   22.4020   28.4030 C.3    80  ASN80       0.1688
     72  C        -14.1840   23.6900   29.0750 C.2    80  ASN80       0.2292
     73  O        -15.3180   23.6680   29.5680 O.2    80  ASN80      -0.2864
     74  CB       -13.9400   22.3760   26.9230 C.3    80  ASN80       0.1181
     75  CG       -13.1630   21.3050   26.1670 C.2    80  ASN80       0.2629
     76  OD1      -12.0500   21.5250   25.8010 O.2    80  ASN80      -0.2716
     77  ND2      -13.7750   20.1630   25.9140 N.am   80  ASN80      -0.0877
     78  N        -14.8770   24.7810   21.8470 N.3    86  TYR86      -0.1241
     79  CA       -15.3460   23.3950   21.9780 C.3    86  TYR86       0.1605
     80  C        -16.6800   23.3310   22.6710 C.2    86  TYR86       0.2264
     81  O        -17.5490   22.6110   22.2200 O.2    86  TYR86      -0.2867
     82  CB       -14.3480   22.4840   22.7060 C.3    86  TYR86       0.0534
     83  CG       -13.0390   22.3300   21.9720 C.ar   86  TYR86      -0.0201
     84  CD1      -12.9930   21.9360   20.6400 C.ar   86  TYR86      -0.0009
     85  CD2      -11.8410   22.6120   22.6100 C.ar   86  TYR86      -0.0009
     86  CE1      -11.7820   21.7970   19.9680 C.ar   86  TYR86       0.0417
     87  CE2      -10.6190   22.4870   21.9490 C.ar   86  TYR86       0.0417
     88  CZ       -10.5960   22.0740   20.6360 C.ar   86  TYR86       0.1957
     89  OH        -9.3660   21.9750   20.0510 O.3    86  TYR86      -0.2866
@<TRIPOS>BOND
     1     1     7    1
     2     1     2    1
     3     7     6    1
     4    10    11    2
     5    10     9    1
     6     8     3   am
     7     8     9    1
     8     2     3    1
     9     2     5    1
    10     3     4    2
    11     9    12    1
    12     6     5    1
    13    12    13    1
    14    15    13   ar
    15    15    17   ar
    16    34    32   ar
    17    13    14   ar
    18    17    18   ar
    19    33    32   ar
    20    32    31    1
    21    86    88   ar
    22    86    84   ar
    23    89    88    1
    24    14    16   ar
    25    18    16   ar
    26    88    87   ar
    27    84    83   ar
    28    31    30    1
    29    19    20    1
    30    78    79    1
    31    87    85   ar
    32    30    27    1
    33    83    85   ar
    34    83    82    1
    35    79    80    1
    36    79    82    1
    37    20    21    1
    38    20    23    1
    39    21    22    2
    40    81    80    2
    41    25    23    1
    42    27    26    1
    43    27    28    1
    44    23    24    1
    45    57    56    1
    46    28    29    2
    47    28    35   am
    48    56    53    1
    49    35    36    1
    50    76    75    2
    51    77    75   am
    52    51    50    1
    53    39    36    1
    54    75    74    1
    55    53    52    1
    56    53    54    1
    57    36    37    1
    58    50    48   ar
    59    50    49   ar
    60    74    71    1
    61    48    46   ar
    62    49    47   ar
    63    54    55    2
    64    46    45   ar
    65    47    45   ar
    66    37    38    2
    67    45    44    1
    68    65    67   ar
    69    65    63   ar
    70    67    68   ar
    71    71    70    1
    72    71    72    1
    73    44    41    1
    74    70    60   am
    75    72    73    2
    76    63    62    1
    77    63    64   ar
    78    62    59    1
    79    69    68    1
    80    68    66   ar
    81    60    59    1
    82    60    61    2
    83    41    42    1
    84    41    40    1
    85    59    58    1
    86    64    66   ar
    87    42    43    2
