@<TRIPOS>MOLECULE
tmp/5fe1B00.pdb
 121 120 0 0 0
SMALL
GASTEIGER

@<TRIPOS>ATOM
      1  N         25.3120   -5.1030  -13.0370 N.3    24  TRP24      -0.1228
      2  CA        24.3380   -4.0010  -12.8080 C.3    24  TRP24       0.1722
      3  C         23.6300   -3.5190  -14.0630 C.2    24  TRP24       0.2437
      4  O         22.4720   -3.2270  -14.0140 O.2    24  TRP24      -0.2733
      5  CB        24.9680   -2.8160  -12.0370 C.3    24  TRP24       0.0563
      6  CG        26.1500   -2.1930  -12.6940 C.ar   24  TRP24       0.0003
      7  CD1       27.4590   -2.5310  -12.5110 C.ar   24  TRP24       0.0946
      8  CD2       26.1410   -1.1550  -13.6790 C.ar   24  TRP24       0.0152
      9  NE1       28.2760   -1.7660  -13.3160 N.ar   24  TRP24      -0.2442
     10  CE2       27.4910   -0.9100  -14.0450 C.ar   24  TRP24       0.0810
     11  CE3       25.1270   -0.4260  -14.3160 C.ar   24  TRP24       0.0012
     12  CZ2       27.8470    0.0600  -14.9920 C.ar   24  TRP24       0.0191
     13  CZ3       25.4930    0.5290  -15.2750 C.ar   24  TRP24       0.0001
     14  CH2       26.8330    0.7780  -15.5740 C.ar   24  TRP24       0.0015
     15  N         24.2960   -3.5520  -15.2400 N.am   25  PRO25      -0.2718
     16  CA        23.5370   -3.1370  -16.4350 C.3    25  PRO25       0.1535
     17  C         22.4340   -4.0920  -16.8870 C.2    25  PRO25       0.2598
     18  O         21.5830   -3.6960  -17.6540 O.2    25  PRO25      -0.2715
     19  CB        24.6150   -3.0570  -17.5160 C.3    25  PRO25       0.0310
     20  CG        25.9020   -2.9930  -16.7720 C.3    25  PRO25       0.0237
     21  CD        25.6790   -3.8800  -15.5960 C.3    25  PRO25       0.0939
     22  N         22.4340   -5.3160  -16.3900 N.am   26  PHE26      -0.1974
     23  CA        21.5920   -6.3760  -16.9360 C.3    26  PHE26       0.1639
     24  C         20.5200   -6.8020  -15.9580 C.2    26  PHE26       0.2290
     25  O         19.8860   -7.8280  -16.1440 O.2    26  PHE26      -0.2864
     26  CB        22.5070   -7.5710  -17.2800 C.3    26  PHE26       0.0560
     27  CG        23.7100   -7.1720  -18.0800 C.ar   26  PHE26      -0.0200
     28  CD1       23.5450   -6.6140  -19.3210 C.ar   26  PHE26      -0.0042
     29  CD2       24.9840   -7.2430  -17.5460 C.ar   26  PHE26      -0.0042
     30  CE1       24.6180   -6.1650  -20.0360 C.ar   26  PHE26      -0.0003
     31  CE2       26.0850   -6.8020  -18.2700 C.ar   26  PHE26      -0.0003
     32  CZ        25.9040   -6.2600  -19.5200 C.ar   26  PHE26      -0.0000
     33  N         17.7220   -5.3760  -15.1400 N.3    28  GLU28      -0.1245
     34  CA        16.3590   -5.1680  -15.5620 C.3    28  GLU28       0.1567
     35  C         16.1960   -4.9740  -17.0420 C.2    28  GLU28       0.2260
     36  O         17.1370   -4.6290  -17.7110 O.2    28  GLU28      -0.2867
     37  CB        15.8110   -3.9110  -14.8890 C.3    28  GLU28       0.0388
     38  CG        15.3550   -4.1350  -13.4700 C.3    28  GLU28       0.1160
     39  CD        14.8410   -2.8540  -12.8420 C.2    28  GLU28       0.3649
     40  OE1       14.1530   -2.0600  -13.5260 O.co2  28  GLU28      -0.2457
     41  OE2       15.1380   -2.6290  -11.6560 O.co2  28  GLU28      -0.2457
     42  N         15.8650   -3.3770  -20.4990 N.3    30  VAL30      -0.1231
     43  CA        16.2500   -2.1230  -21.1440 C.3    30  VAL30       0.1692
     44  C         14.9840   -1.2850  -21.4100 C.2    30  VAL30       0.2591
     45  O         13.9920   -1.8070  -21.9010 O.2    30  VAL30      -0.2718
     46  CB        16.9790   -2.3860  -22.4830 C.3    30  VAL30       0.0266
     47  CG1       17.2150   -1.0980  -23.2800 C.3    30  VAL30       0.0020
     48  CG2       18.2920   -3.0980  -22.2340 C.3    30  VAL30       0.0020
     49  N         15.0230    0.0040  -21.0810 N.am   31  LYS31      -0.1980
     50  CA        13.8820    0.8950  -21.3440 C.3    31  LYS31       0.1596
     51  C         14.0110    1.5740  -22.7030 C.2    31  LYS31       0.2287
     52  O         15.0840    2.0350  -23.0410 O.2    31  LYS31      -0.2864
     53  CB        13.7600    1.9360  -20.2570 C.3    31  LYS31       0.0298
     54  CG        13.5470    1.2950  -18.9030 C.3    31  LYS31       0.0038
     55  CD        12.7700    2.2100  -17.9870 C.3    31  LYS31       0.0206
     56  CE        13.5910    3.4320  -17.5820 C.3    31  LYS31       0.1093
     57  NZ        14.6340    3.0710  -16.5840 N.3    31  LYS31      -0.1314
     58  N         15.3160    5.0490  -22.7370 N.3    34  GLU34      -0.1231
     59  CA        16.7050    5.1780  -22.4690 C.3    34  GLU34       0.1699
     60  C         17.5900    4.5290  -23.4770 C.2    34  GLU34       0.2592
     61  O         18.7880    4.5520  -23.2790 O.2    34  GLU34      -0.2718
     62  CB        16.9100    4.5060  -21.1370 C.3    34  GLU34       0.0402
     63  CG        17.9660    5.0760  -20.2340 C.3    34  GLU34       0.1161
     64  CD        17.8850    4.4520  -18.8510 C.2    34  GLU34       0.3649
     65  OE1       16.7990    3.9450  -18.4600 O.co2  34  GLU34      -0.2457
     66  OE2       18.9290    4.4690  -18.1640 O.co2  34  GLU34      -0.2457
     67  N         17.0330    3.9080  -24.5200 N.am   35  ALA35      -0.1980
     68  CA        17.8520    3.2750  -25.5640 C.3    35  ALA35       0.1597
     69  C         17.2210    3.3750  -26.9560 C.2    35  ALA35       0.2287
     70  O         16.5310    2.4270  -27.4010 O.2    35  ALA35      -0.2864
     71  CB        18.1660    1.8230  -25.2370 C.3    35  ALA35       0.0319
     72  N         16.5860    0.4680  -29.7930 N.3    38  TYR38      -0.1241
     73  CA        16.9220   -0.8260  -29.2120 C.3    38  TYR38       0.1605
     74  C         15.9570   -1.9510  -29.6260 C.2    38  TYR38       0.2264
     75  O         16.3870   -2.9910  -30.0990 O.2    38  TYR38      -0.2867
     76  CB        16.9790   -0.7310  -27.6880 C.3    38  TYR38       0.0534
     77  CG        17.6160   -1.9290  -27.0500 C.ar   38  TYR38      -0.0201
     78  CD1       16.8520   -3.0470  -26.7200 C.ar   38  TYR38      -0.0009
     79  CD2       18.9920   -1.9480  -26.7750 C.ar   38  TYR38      -0.0009
     80  CE1       17.4250   -4.1540  -26.1220 C.ar   38  TYR38       0.0417
     81  CE2       19.5870   -3.0530  -26.1760 C.ar   38  TYR38       0.0417
     82  CZ        18.7920   -4.1540  -25.8510 C.ar   38  TYR38       0.1957
     83  OH        19.3230   -5.2450  -25.2620 O.3    38  TYR38      -0.2866
     84  N         23.6780   -6.9550  -25.7130 N.3    77  CYS77      -0.1235
     85  CA        24.4440   -5.7890  -25.2360 C.3    77  CYS77       0.1677
     86  C         25.6060   -5.4450  -26.1980 C.2    77  CYS77       0.2270
     87  O         25.8400   -4.2800  -26.5220 O.2    77  CYS77      -0.2867
     88  CB        24.9780   -6.0840  -23.8420 C.3    77  CYS77       0.0956
     89  SG        26.0110   -4.7860  -23.1940 S.3    77  CYS77      -0.0801
     90  N         24.2780   -3.9260  -29.5050 N.3    80  TYR80      -0.1227
     91  CA        23.7210   -2.6050  -29.3700 C.3    80  TYR80       0.1736
     92  C         24.7510   -1.5270  -29.0380 C.2    80  TYR80       0.2595
     93  O         24.7280   -0.4710  -29.6410 O.2    80  TYR80      -0.2718
     94  CB        22.5980   -2.6050  -28.3440 C.3    80  TYR80       0.0548
     95  CG        21.9100   -1.2980  -28.3670 C.ar   80  TYR80      -0.0200
     96  CD1       21.0650   -0.9560  -29.4450 C.ar   80  TYR80      -0.0009
     97  CD2       22.1470   -0.3430  -27.3610 C.ar   80  TYR80      -0.0009
     98  CE1       20.4630    0.2950  -29.4990 C.ar   80  TYR80       0.0417
     99  CE2       21.5420    0.9030  -27.4110 C.ar   80  TYR80       0.0417
    100  CZ        20.7050    1.2140  -28.4710 C.ar   80  TYR80       0.1957
    101  OH        20.1450    2.4550  -28.5010 O.3    80  TYR80      -0.2866
    102  N         25.6700   -1.8050  -28.1210 N.am   81  ASN81      -0.1974
    103  CA        26.5210   -0.7730  -27.5420 C.3    81  ASN81       0.1688
    104  C         27.9180   -0.6790  -28.1660 C.2    81  ASN81       0.2292
    105  O         28.4400   -1.7040  -28.6390 O.2    81  ASN81      -0.2864
    106  CB        26.6860   -1.0570  -26.0630 C.3    81  ASN81       0.1181
    107  CG        25.3910   -0.8820  -25.3090 C.2    81  ASN81       0.2629
    108  OD1       24.9460    0.2190  -25.1410 O.2    81  ASN81      -0.2716
    109  ND2       24.7670   -1.9540  -24.9250 N.am   81  ASN81      -0.0877
    110  N         29.0750   -0.6840  -20.6650 N.3    87  TYR87      -0.1241
    111  CA        28.1380   -1.8040  -20.8230 C.3    87  TYR87       0.1605
    112  C         28.7650   -2.9780  -21.5490 C.2    87  TYR87       0.2264
    113  O         28.5780   -4.1040  -21.1240 O.2    87  TYR87      -0.2867
    114  CB        26.8460   -1.4120  -21.5530 C.3    87  TYR87       0.0534
    115  CG        26.0020   -0.3420  -20.9100 C.ar   87  TYR87      -0.0201
    116  CD1       25.8040   -0.2720  -19.5380 C.ar   87  TYR87      -0.0009
    117  CD2       25.3700    0.6310  -21.7100 C.ar   87  TYR87      -0.0009
    118  CE1       25.0130    0.7380  -18.9830 C.ar   87  TYR87       0.0417
    119  CE2       24.5800    1.6410  -21.1560 C.ar   87  TYR87       0.0417
    120  CZ        24.4120    1.6890  -19.7970 C.ar   87  TYR87       0.1957
    121  OH        23.6180    2.7050  -19.2870 O.3    87  TYR87      -0.2866
@<TRIPOS>BOND
     1    75    74    2
     2    72    73    1
     3    93    92    2
     4    74    73    1
     5    90    91    1
     6    98    96   ar
     7    98   100   ar
     8    96    95   ar
     9    91    92    1
    10    91    94    1
    11    73    76    1
    12    92   102   am
    13   105   104    2
    14   101   100    1
    15   100    99   ar
    16    95    94    1
    17    95    97   ar
    18   104   103    1
    19   102   103    1
    20    76    77    1
    21   103   106    1
    22    99    97   ar
    23    70    69    2
    24    77    79   ar
    25    77    78   ar
    26    69    68    1
    27    79    81   ar
    28    78    80   ar
    29    87    86    2
    30    86    85    1
    31    81    82   ar
    32    80    82   ar
    33   106   107    1
    34    82    83    1
    35    84    85    1
    36    68    71    1
    37    68    67    1
    38   107   108    2
    39   107   109   am
    40    85    88    1
    41    67    60   am
    42    88    89    1
    43    60    61    2
    44    60    59    1
    45    47    46    1
    46    52    51    2
    47    58    59    1
    48    51    50    1
    49    46    48    1
    50    46    43    1
    51    59    62    1
    52    45    44    2
    53   117   119   ar
    54   117   115   ar
    55   114   115    1
    56   114   111    1
    57   112   113    2
    58   112   111    1
    59    44    43    1
    60    44    49   am
    61    50    49    1
    62    50    53    1
    63   119   120   ar
    64    43    42    1
    65    62    63    1
    66   115   116   ar
    67   111   110    1
    68    53    54    1
    69    63    64    1
    70    30    32   ar
    71    30    28   ar
    72   120   121    1
    73   120   118   ar
    74   116   118   ar
    75    32    31   ar
    76    28    27   ar
    77    54    55    1
    78    64    65   ar
    79    64    66   ar
    80    31    29   ar
    81    27    29   ar
    82    27    26    1
    83    55    56    1
    84    36    35    2
    85    18    17    2
    86    56    57    1
    87    19    20    1
    88    19    16    1
    89    26    23    1
    90    35    34    1
    91    23    22    1
    92    23    24    1
    93    17    16    1
    94    17    22   am
    95    20    21    1
    96    16    15    1
    97    25    24    2
    98    21    15    1
    99    14    13   ar
   100    14    12   ar
   101    34    33    1
   102    34    37    1
   103    13    11   ar
   104    15     3   am
   105    12    10   ar
   106    37    38    1
   107    11     8   ar
   108     3     4    2
   109     3     2    1
   110    10     8   ar
   111    10     9   ar
   112     8     6   ar
   113    40    39   ar
   114    38    39    1
   115     9     7   ar
   116     1     2    1
   117    39    41   ar
   118     2     5    1
   119     6     7   ar
   120     6     5    1
