@<TRIPOS>MOLECULE
tmp/5fe2A00.pdb
 105 101 0 0 0
SMALL
GASTEIGER

@<TRIPOS>ATOM
      1  N         -8.9910   34.5720  -47.4150 N.3    23  PRO23      -0.2102
      2  CA        -8.9800   35.4620  -46.2310 C.3    23  PRO23       0.1504
      3  C         -7.6130   35.9480  -45.7560 C.2    23  PRO23       0.2575
      4  O         -7.5490   36.9060  -44.9800 O.2    23  PRO23      -0.2718
      5  CB        -9.5830   34.5890  -45.1190 C.3    23  PRO23       0.0282
      6  CG       -10.2680   33.4570  -45.8120 C.3    23  PRO23       0.0208
      7  CD        -9.4370   33.2050  -47.0340 C.3    23  PRO23       0.0893
      8  N         -6.5440   35.3150  -46.2350 N.am   24  PHE24      -0.1977
      9  CA        -5.1910   35.5190  -45.7180 C.3    24  PHE24       0.1639
     10  C         -4.2610   36.2250  -46.6900 C.2    24  PHE24       0.2290
     11  O         -3.0480   36.3220  -46.4340 O.2    24  PHE24      -0.2864
     12  CB        -4.5990   34.1290  -45.3700 C.3    24  PHE24       0.0560
     13  CG        -5.5330   33.2870  -44.5600 C.ar   24  PHE24      -0.0200
     14  CD1       -5.8380   33.6560  -43.2730 C.ar   24  PHE24      -0.0042
     15  CD2       -6.1630   32.1690  -45.1120 C.ar   24  PHE24      -0.0042
     16  CE1       -6.7560   32.9340  -42.5410 C.ar   24  PHE24      -0.0003
     17  CE2       -7.0730   31.4240  -44.3760 C.ar   24  PHE24      -0.0003
     18  CZ        -7.3780   31.8080  -43.0790 C.ar   24  PHE24      -0.0000
     19  N         -3.9620   39.3110  -47.6280 N.3    26  GLU26      -0.1245
     20  CA        -3.4100   40.6090  -47.2250 C.3    26  GLU26       0.1567
     21  C         -3.5810   40.9200  -45.7480 C.2    26  GLU26       0.2260
     22  O         -4.4530   40.3600  -45.1280 O.2    26  GLU26      -0.2867
     23  CB        -4.1540   41.6930  -47.9750 C.3    26  GLU26       0.0388
     24  CG        -3.9660   41.6580  -49.4650 C.3    26  GLU26       0.1160
     25  CD        -4.6690   42.8390  -50.0880 C.2    26  GLU26       0.3649
     26  OE1       -5.7990   42.6650  -50.6170 O.co2  26  GLU26      -0.2457
     27  OE2       -4.1230   43.9480  -49.9660 O.co2  26  GLU26      -0.2457
     28  N         -4.8340   42.0290  -42.2660 N.3    28  VAL28      -0.1245
     29  CA        -6.1200   42.3360  -41.6240 C.3    28  VAL28       0.1561
     30  C         -6.2830   43.8540  -41.4500 C.2    28  VAL28       0.2260
     31  O         -5.3490   44.5260  -41.0090 O.2    28  VAL28      -0.2867
     32  CB        -6.2570   41.6230  -40.2370 C.3    28  VAL28       0.0252
     33  CG1       -7.5120   42.0910  -39.4690 C.3    28  VAL28       0.0019
     34  CG2       -6.2760   40.1100  -40.4240 C.3    28  VAL28       0.0019
     35  N        -12.0960   46.6450  -40.3010 N.3    32  GLU32      -0.1231
     36  CA       -13.0290   45.4950  -40.2960 C.3    32  GLU32       0.1699
     37  C        -12.9090   44.5490  -39.1250 C.2    32  GLU32       0.2592
     38  O        -13.6210   43.5550  -39.1330 O.2    32  GLU32      -0.2718
     39  CB       -12.8820   44.5940  -41.5340 C.3    32  GLU32       0.0402
     40  CG       -12.4610   45.2650  -42.8250 C.3    32  GLU32       0.1161
     41  CD       -12.1610   44.2710  -43.9370 C.2    32  GLU32       0.3649
     42  OE1      -12.2700   44.6090  -45.1250 O.co2  32  GLU32      -0.2457
     43  OE2      -11.7900   43.1310  -43.6220 O.co2  32  GLU32      -0.2457
     44  N        -11.9930   44.7580  -38.1760 N.am   33  ALA33      -0.1980
     45  CA       -11.8070   43.7620  -37.0960 C.3    33  ALA33       0.1597
     46  C        -11.6170   44.3520  -35.6960 C.2    33  ALA33       0.2287
     47  O        -10.4750   44.5020  -35.2550 O.2    33  ALA33      -0.2864
     48  CB       -10.6440   42.8420  -37.4310 C.3    33  ALA33       0.0319
     49  N         -8.6590   43.5460  -32.9200 N.3    36  TYR36      -0.1241
     50  CA        -7.7240   42.5700  -33.4750 C.3    36  TYR36       0.1605
     51  C         -6.2890   42.8670  -33.0090 C.2    36  TYR36       0.2264
     52  O         -5.6630   42.0210  -32.4250 O.2    36  TYR36      -0.2867
     53  CB        -7.7770   42.5550  -35.0190 C.3    36  TYR36       0.0534
     54  CG        -7.0440   41.3960  -35.6530 C.ar   36  TYR36      -0.0201
     55  CD1       -7.7030   40.1920  -35.9230 C.ar   36  TYR36      -0.0009
     56  CD2       -5.6990   41.5020  -35.9980 C.ar   36  TYR36      -0.0009
     57  CE1       -7.0380   39.1230  -36.5120 C.ar   36  TYR36       0.0417
     58  CE2       -5.0240   40.4500  -36.6010 C.ar   36  TYR36       0.0417
     59  CZ        -5.6910   39.2490  -36.8500 C.ar   36  TYR36       0.1957
     60  OH        -5.0170   38.1840  -37.4020 O.3    36  TYR36      -0.2866
     61  N         -0.2400   32.5570  -39.3790 N.3    71  VAL71      -0.1245
     62  CA        -1.4000   32.9990  -40.1370 C.3    71  VAL71       0.1561
     63  C         -2.6450   32.2390  -39.6720 C.2    71  VAL71       0.2260
     64  O         -3.6980   32.8330  -39.3620 O.2    71  VAL71      -0.2867
     65  CB        -1.2000   32.7790  -41.6510 C.3    71  VAL71       0.0252
     66  CG1       -2.4840   33.0340  -42.4100 C.3    71  VAL71       0.0019
     67  CG2       -0.0940   33.6520  -42.1880 C.3    71  VAL71       0.0019
     68  N         -5.7910   33.5510  -36.8920 N.3    75  CYS75      -0.1235
     69  CA        -7.1580   33.4790  -37.3660 C.3    75  CYS75       0.1677
     70  C         -8.0340   32.6880  -36.3820 C.2    75  CYS75       0.2270
     71  O         -9.1940   33.0730  -36.1120 O.2    75  CYS75      -0.2867
     72  CB        -7.1670   32.8240  -38.7400 C.3    75  CYS75       0.0956
     73  SG        -8.8070   32.6640  -39.4320 S.3    75  CYS75      -0.0801
     74  N         -8.7260   34.6030  -33.1230 N.3    78  TYR78      -0.1227
     75  CA        -9.5740   35.7550  -33.2760 C.3    78  TYR78       0.1736
     76  C        -11.0270   35.3890  -33.6380 C.2    78  TYR78       0.2595
     77  O        -11.9510   35.9270  -33.0680 O.2    78  TYR78      -0.2718
     78  CB        -9.0070   36.7160  -34.3200 C.3    78  TYR78       0.0548
     79  CG        -9.8010   37.9940  -34.3200 C.ar   78  TYR78      -0.0200
     80  CD1       -9.6670   38.9160  -33.2570 C.ar   78  TYR78      -0.0009
     81  CD2      -10.7570   38.2580  -35.3230 C.ar   78  TYR78      -0.0009
     82  CE1      -10.4280   40.0740  -33.2130 C.ar   78  TYR78       0.0417
     83  CE2      -11.5250   39.4140  -35.2910 C.ar   78  TYR78       0.0417
     84  CZ       -11.3600   40.3170  -34.2410 C.ar   78  TYR78       0.1957
     85  OH       -12.0980   41.4740  -34.2210 O.3    78  TYR78      -0.2866
     86  N        -11.2200   34.4860  -34.5850 N.am   79  ASN79      -0.1974
     87  CA       -12.5570   34.2260  -35.1200 C.3    79  ASN79       0.1688
     88  C        -13.3350   33.0730  -34.4020 C.2    79  ASN79       0.2292
     89  O        -12.7140   32.1270  -33.8870 O.2    79  ASN79      -0.2864
     90  CB       -12.4360   33.8850  -36.5780 C.3    79  ASN79       0.1181
     91  CG       -11.9580   35.0610  -37.3910 C.2    79  ASN79       0.2629
     92  OD1      -12.7120   35.9730  -37.6370 O.2    79  ASN79      -0.2716
     93  ND2      -10.6920   35.0700  -37.7440 N.am   79  ASN79      -0.0877
     94  N        -13.9300   31.9920  -41.8440 N.3    85  TYR85      -0.1241
     95  CA       -12.4880   32.2310  -41.7070 C.3    85  TYR85       0.1605
     96  C        -11.7980   31.0920  -40.9800 C.2    85  TYR85       0.2264
     97  O        -10.7620   30.6270  -41.4390 O.2    85  TYR85      -0.2867
     98  CB       -12.1830   33.5630  -41.0020 C.3    85  TYR85       0.0534
     99  CG       -12.6230   34.8010  -41.7570 C.ar   85  TYR85      -0.0201
    100  CD1      -12.5270   34.8790  -43.1320 C.ar   85  TYR85      -0.0009
    101  CD2      -13.1390   35.9040  -41.0800 C.ar   85  TYR85      -0.0009
    102  CE1      -12.9100   36.0190  -43.8150 C.ar   85  TYR85       0.0417
    103  CE2      -13.5450   37.0520  -41.7550 C.ar   85  TYR85       0.0417
    104  CZ       -13.4300   37.1010  -43.1240 C.ar   85  TYR85       0.1957
    105  OH       -13.8150   38.2570  -43.7970 O.3    85  TYR85      -0.2866
@<TRIPOS>BOND
     1    26    25   ar
     2    25    27   ar
     3    25    24    1
     4    24    23    1
     5    23    20    1
     6    19    20    1
     7     1     7    1
     8     1     2    1
     9    20    21    1
    10     7     6    1
    11    10    11    2
    12    10     9    1
    13     8     3   am
    14     8     9    1
    15     2     3    1
    16     2     5    1
    17     6     5    1
    18     3     4    2
    19    21    22    2
    20     9    12    1
    21    12    13    1
    22    42    41   ar
    23    15    13   ar
    24    15    17   ar
    25    13    14   ar
    26    17    18   ar
    27    41    43   ar
    28    41    40    1
    29   102   100   ar
    30   102   104   ar
    31   105   104    1
    32    14    16   ar
    33   100    99   ar
    34   104   103   ar
    35    18    16   ar
    36    40    39    1
    37    66    65    1
    38    28    29    1
    39    67    65    1
    40    94    95    1
    41    99   101   ar
    42    99    98    1
    43   103   101   ar
    44    95    98    1
    45    95    96    1
    46    65    62    1
    47    29    30    1
    48    29    32    1
    49    39    36    1
    50    30    31    2
    51    97    96    2
    52    34    32    1
    53    35    36    1
    54    36    37    1
    55    32    33    1
    56    62    63    1
    57    62    61    1
    58    63    64    2
    59    73    72    1
    60    38    37    2
    61    37    44   am
    62    72    69    1
    63    44    45    1
    64    93    91   am
    65    92    91    2
    66    48    45    1
    67    60    59    1
    68    91    90    1
    69    69    68    1
    70    69    70    1
    71    45    46    1
    72    59    58   ar
    73    59    57   ar
    74    58    56   ar
    75    90    87    1
    76    57    55   ar
    77    70    71    2
    78    56    54   ar
    79    55    54   ar
    80    46    47    2
    81    54    53    1
    82    81    83   ar
    83    81    79   ar
    84    83    84   ar
    85    87    86    1
    86    87    88    1
    87    53    50    1
    88    86    76   am
    89    88    89    2
    90    78    79    1
    91    78    75    1
    92    79    80   ar
    93    84    85    1
    94    84    82   ar
    95    76    75    1
    96    76    77    2
    97    50    51    1
    98    50    49    1
    99    75    74    1
   100    80    82   ar
   101    51    52    2
