@<TRIPOS>MOLECULE
tmp/5fe3A00.pdb
 121 120 0 0 0
SMALL
GASTEIGER

@<TRIPOS>ATOM
      1  N         -8.2200   24.5180  -13.0360 N.3    24  TRP24      -0.1228
      2  CA        -8.7030   23.1240  -12.8160 C.3    24  TRP24       0.1722
      3  C         -8.7410   22.2780  -14.0910 C.2    24  TRP24       0.2437
      4  O         -8.4140   21.1250  -14.0190 O.2    24  TRP24      -0.2733
      5  CB       -10.0350   23.0750  -12.0630 C.3    24  TRP24       0.0563
      6  CG       -11.1670   23.8000  -12.7220 C.ar   24  TRP24       0.0003
      7  CD1      -11.5340   25.1210  -12.5340 C.ar   24  TRP24       0.0946
      8  CD2      -12.0570   23.2830  -13.7030 C.ar   24  TRP24       0.0152
      9  NE1      -12.5860   25.4400  -13.3290 N.ar   24  TRP24      -0.2442
     10  CE2      -12.9280   24.3420  -14.0720 C.ar   24  TRP24       0.0810
     11  CE3      -12.1740   22.0480  -14.3490 C.ar   24  TRP24       0.0012
     12  CZ2      -13.9370   24.1780  -15.0240 C.ar   24  TRP24       0.0191
     13  CZ3      -13.1570   21.8850  -15.2740 C.ar   24  TRP24       0.0001
     14  CH2      -14.0320   22.9420  -15.6140 C.ar   24  TRP24       0.0015
     15  N         -9.0580   22.8690  -15.2650 N.am   25  PRO25      -0.2718
     16  CA        -9.0690   22.0510  -16.4800 C.3    25  PRO25       0.1535
     17  C         -7.7090   21.5420  -16.9370 C.2    25  PRO25       0.2598
     18  O         -7.6620   20.5960  -17.7300 O.2    25  PRO25      -0.2715
     19  CB        -9.6060   23.0310  -17.5610 C.3    25  PRO25       0.0310
     20  CG       -10.3600   24.0560  -16.7950 C.3    25  PRO25       0.0237
     21  CD        -9.4860   24.2520  -15.5800 C.3    25  PRO25       0.0939
     22  N         -6.6400   22.1570  -16.4400 N.am   26  PHE26      -0.1974
     23  CA        -5.2970   21.9260  -16.9140 C.3    26  PHE26       0.1639
     24  C         -4.4120   21.1500  -15.9490 C.2    26  PHE26       0.2290
     25  O         -3.1990   21.0700  -16.1640 O.2    26  PHE26      -0.2864
     26  CB        -4.6530   23.3050  -17.2750 C.3    26  PHE26       0.0560
     27  CG        -5.5930   24.1990  -18.0560 C.ar   26  PHE26      -0.0200
     28  CD1       -5.9880   23.8280  -19.3110 C.ar   26  PHE26      -0.0042
     29  CD2       -6.1980   25.2940  -17.4700 C.ar   26  PHE26      -0.0042
     30  CE1       -6.9310   24.5590  -20.0060 C.ar   26  PHE26      -0.0003
     31  CE2       -7.1110   26.0670  -18.1670 C.ar   26  PHE26      -0.0003
     32  CZ        -7.4910   25.7000  -19.4330 C.ar   26  PHE26      -0.0000
     33  N         -4.1650   17.9530  -15.0680 N.3    28  GLU28      -0.1245
     34  CA        -3.6300   16.6490  -15.4880 C.3    28  GLU28       0.1567
     35  C         -3.7660   16.4470  -16.9920 C.2    28  GLU28       0.2260
     36  O         -4.5690   17.1070  -17.5960 O.2    28  GLU28      -0.2867
     37  CB        -4.4240   15.5250  -14.7870 C.3    28  GLU28       0.0388
     38  CG        -4.2470   15.5320  -13.2890 C.3    28  GLU28       0.1160
     39  CD        -4.8500   14.3240  -12.6020 C.2    28  GLU28       0.3649
     40  OE1       -5.6880   13.5960  -13.1940 O.co2  28  GLU28      -0.2457
     41  OE2       -4.4790   14.1030  -11.4300 O.co2  28  GLU28      -0.2457
     42  N         -5.0320   15.5000  -20.5760 N.3    30  VAL30      -0.1231
     43  CA        -6.3180   15.2140  -21.2040 C.3    30  VAL30       0.1692
     44  C         -6.4170   13.7000  -21.4450 C.2    30  VAL30       0.2591
     45  O         -5.4670   13.1010  -21.9090 O.2    30  VAL30      -0.2718
     46  CB        -6.4730   15.9780  -22.5490 C.3    30  VAL30       0.0266
     47  CG1       -7.7560   15.5720  -23.2790 C.3    30  VAL30       0.0020
     48  CG2       -6.4960   17.4640  -22.2860 C.3    30  VAL30       0.0020
     49  N         -7.5570   13.0940  -21.1020 N.am   31  LYS31      -0.1980
     50  CA        -7.7650   11.6670  -21.3810 C.3    31  LYS31       0.1596
     51  C         -8.3800   11.4580  -22.7580 C.2    31  LYS31       0.2287
     52  O         -9.3250   12.1510  -23.1210 O.2    31  LYS31      -0.2864
     53  CB        -8.7070   11.0470  -20.3800 C.3    31  LYS31       0.0298
     54  CG        -8.2700   11.1150  -18.9470 C.3    31  LYS31       0.0038
     55  CD        -9.1170   10.1320  -18.1510 C.3    31  LYS31       0.0206
     56  CE        -9.4630   10.6330  -16.7650 C.3    31  LYS31       0.1093
     57  NZ        -8.2470   11.1490  -16.0860 N.3    31  LYS31      -0.1314
     58  N        -12.1270   11.0010  -22.6690 N.3    34  GLU34      -0.1231
     59  CA       -12.9340   12.1990  -22.5010 C.3    34  GLU34       0.1699
     60  C        -12.7860   13.1700  -23.6500 C.2    34  GLU34       0.2592
     61  O        -13.4720   14.1990  -23.6680 O.2    34  GLU34      -0.2718
     62  CB       -12.5800   12.9100  -21.1970 C.3    34  GLU34       0.0402
     63  CG       -12.7880   12.0410  -19.9810 C.3    34  GLU34       0.1161
     64  CD       -12.4310   12.7240  -18.6810 C.2    34  GLU34       0.3649
     65  OE1      -11.8980   13.8530  -18.6860 O.co2  34  GLU34      -0.2457
     66  OE2      -12.7550   12.1350  -17.6360 O.co2  34  GLU34      -0.2457
     67  N        -11.8770   12.9370  -24.5950 N.am   35  ALA35      -0.1980
     68  CA       -11.7970   13.9120  -25.6710 C.3    35  ALA35       0.1597
     69  C        -11.6270   13.3200  -27.0430 C.2    35  ALA35       0.2287
     70  O        -10.5030   13.2200  -27.5160 O.2    35  ALA35      -0.2864
     71  CB       -10.7340   14.9390  -25.3710 C.3    35  ALA35       0.0319
     72  N         -8.8510   14.2210  -29.7670 N.3    38  TYR38      -0.1241
     73  CA        -7.8940   15.1310  -29.1880 C.3    38  TYR38       0.1605
     74  C         -6.4690   14.8690  -29.6910 C.2    38  TYR38       0.2264
     75  O         -5.8420   15.7570  -30.2610 O.2    38  TYR38      -0.2867
     76  CB        -7.9010   15.0570  -27.6700 C.3    38  TYR38       0.0534
     77  CG        -7.1060   16.1590  -27.0330 C.ar   38  TYR38      -0.0201
     78  CD1       -5.7470   15.9970  -26.7300 C.ar   38  TYR38      -0.0009
     79  CD2       -7.7050   17.3850  -26.7350 C.ar   38  TYR38      -0.0009
     80  CE1       -5.0130   17.0210  -26.1510 C.ar   38  TYR38       0.0417
     81  CE2       -6.9720   18.4110  -26.1400 C.ar   38  TYR38       0.0417
     82  CZ        -5.6310   18.2160  -25.8480 C.ar   38  TYR38       0.1957
     83  OH        -4.8990   19.2110  -25.2720 O.3    38  TYR38      -0.2866
     84  N         -5.8340   24.0070  -25.6910 N.3    77  CYS77      -0.1235
     85  CA        -7.2120   24.1070  -25.2080 C.3    77  CYS77       0.1677
     86  C         -8.0750   24.9110  -26.1790 C.2    77  CYS77       0.2270
     87  O         -9.1720   24.5040  -26.5430 O.2    77  CYS77      -0.2867
     88  CB        -7.2250   24.7260  -23.8260 C.3    77  CYS77       0.0956
     89  SG        -8.8810   24.9730  -23.1660 S.3    77  CYS77      -0.0801
     90  N         -8.9240   23.1250  -29.4880 N.3    80  TYR80      -0.1227
     91  CA        -9.7650   21.9440  -29.3940 C.3    80  TYR80       0.1736
     92  C        -11.2060   22.2790  -29.0140 C.2    80  TYR80       0.2595
     93  O        -12.1480   21.7000  -29.5430 O.2    80  TYR80      -0.2718
     94  CB        -9.1870   20.9600  -28.3740 C.3    80  TYR80       0.0548
     95  CG        -9.9790   19.6660  -28.3440 C.ar   80  TYR80      -0.0200
     96  CD1       -9.9240   18.7790  -29.4190 C.ar   80  TYR80      -0.0009
     97  CD2      -10.8400   19.3620  -27.2770 C.ar   80  TYR80      -0.0009
     98  CE1      -10.6740   17.6120  -29.4340 C.ar   80  TYR80       0.0417
     99  CE2      -11.5870   18.1840  -27.2660 C.ar   80  TYR80       0.0417
    100  CZ       -11.5040   17.3140  -28.3530 C.ar   80  TYR80       0.1957
    101  OH       -12.2380   16.1560  -28.3780 O.3    80  TYR80      -0.2866
    102  N        -11.3680   23.1950  -28.0700 N.am   81  ASN81      -0.1974
    103  CA       -12.6780   23.4790  -27.4850 C.3    81  ASN81       0.1688
    104  C        -13.4360   24.6340  -28.1570 C.2    81  ASN81       0.2292
    105  O        -12.7970   25.5420  -28.6940 O.2    81  ASN81      -0.2864
    106  CB       -12.4900   23.7620  -26.0190 C.3    81  ASN81       0.1181
    107  CG       -11.9930   22.5420  -25.2650 C.2    81  ASN81       0.2629
    108  OD1      -12.7500   21.6390  -24.9890 O.2    81  ASN81      -0.2716
    109  ND2      -10.7230   22.5110  -24.9480 N.am   81  ASN81      -0.0877
    110  N        -14.0130   25.6130  -20.7250 N.3    87  TYR87      -0.1241
    111  CA       -12.5820   25.3620  -20.8160 C.3    87  TYR87       0.1605
    112  C        -11.8630   26.4980  -21.5640 C.2    87  TYR87       0.2264
    113  O        -10.7600   26.8820  -21.1720 O.2    87  TYR87      -0.2867
    114  CB       -12.2510   24.0440  -21.5120 C.3    87  TYR87       0.0534
    115  CG       -12.7880   22.7750  -20.8580 C.ar   87  TYR87      -0.0201
    116  CD1      -12.7400   22.5720  -19.4970 C.ar   87  TYR87      -0.0009
    117  CD2      -13.3240   21.7630  -21.6570 C.ar   87  TYR87      -0.0009
    118  CE1      -13.2270   21.3810  -18.9360 C.ar   87  TYR87       0.0417
    119  CE2      -13.8130   20.5800  -21.1210 C.ar   87  TYR87       0.0417
    120  CZ       -13.7560   20.3890  -19.7650 C.ar   87  TYR87       0.1957
    121  OH       -14.2450   19.2120  -19.3130 O.3    87  TYR87      -0.2866
@<TRIPOS>BOND
     1    75    74    2
     2    72    73    1
     3    74    73    1
     4    93    92    2
     5    90    91    1
     6    98    96   ar
     7    98   100   ar
     8    96    95   ar
     9    91    92    1
    10    91    94    1
    11    73    76    1
    12    92   102   am
    13   105   104    2
    14   101   100    1
    15    94    95    1
    16   100    99   ar
    17    95    97   ar
    18   104   103    1
    19   102   103    1
    20    76    77    1
    21    70    69    2
    22   103   106    1
    23    97    99   ar
    24    69    68    1
    25    77    79   ar
    26    77    78   ar
    27    79    81   ar
    28    78    80   ar
    29    87    86    2
    30    86    85    1
    31    80    82   ar
    32    81    82   ar
    33   106   107    1
    34    82    83    1
    35    84    85    1
    36    68    71    1
    37    68    67    1
    38   107   108    2
    39   107   109   am
    40    85    88    1
    41    67    60   am
    42    88    89    1
    43    61    60    2
    44    60    59    1
    45    47    46    1
    46    52    51    2
    47    51    50    1
    48    58    59    1
    49    46    48    1
    50    46    43    1
    51    59    62    1
    52    45    44    2
    53   117   119   ar
    54   117   115   ar
    55   112   113    2
    56   112   111    1
    57   114   115    1
    58   114   111    1
    59    44    43    1
    60    44    49   am
    61    50    49    1
    62    50    53    1
    63    43    42    1
    64    62    63    1
    65   119   120   ar
    66   115   116   ar
    67   111   110    1
    68    53    54    1
    69    30    32   ar
    70    30    28   ar
    71    63    64    1
    72   120   121    1
    73   120   118   ar
    74   116   118   ar
    75    32    31   ar
    76    28    27   ar
    77    54    55    1
    78    65    64   ar
    79    64    66   ar
    80    31    29   ar
    81    55    56    1
    82    27    29   ar
    83    27    26    1
    84    18    17    2
    85    36    35    2
    86    19    20    1
    87    19    16    1
    88    26    23    1
    89    35    34    1
    90    17    16    1
    91    17    22   am
    92    23    22    1
    93    23    24    1
    94    20    21    1
    95    56    57    1
    96    16    15    1
    97    25    24    2
    98    14    13   ar
    99    14    12   ar
   100    21    15    1
   101    34    33    1
   102    34    37    1
   103    13    11   ar
   104    15     3   am
   105    12    10   ar
   106    37    38    1
   107    11     8   ar
   108     3     4    2
   109     3     2    1
   110    10     8   ar
   111    10     9   ar
   112     8     6   ar
   113     9     7   ar
   114    38    39    1
   115    40    39   ar
   116     1     2    1
   117     2     5    1
   118     6     7   ar
   119     6     5    1
   120    39    41   ar
