@<TRIPOS>MOLECULE
tmp/5fe4B00.pdb
 119 120 0 0 0
SMALL
GASTEIGER

@<TRIPOS>ATOM
      1  N         32.5580   -9.3570   14.7290 N.3    23  TRP23      -0.1228
      2  CA        34.0000   -9.6120   14.5080 C.3    23  TRP23       0.1722
      3  C         34.7720   -9.9970   15.7730 C.2    23  TRP23       0.2437
      4  O         35.6490  -10.8390   15.6970 O.2    23  TRP23      -0.2733
      5  CB        34.6810   -8.4550   13.7540 C.3    23  TRP23       0.0563
      6  CG        34.6470   -7.1260   14.4480 C.ar   23  TRP23       0.0003
      7  CD1       33.7110   -6.1350   14.3030 C.ar   23  TRP23       0.0946
      8  CD2       35.5840   -6.6490   15.4010 C.ar   23  TRP23       0.0152
      9  NE1       34.0140   -5.0690   15.1140 N.ar   23  TRP23      -0.2442
     10  CE2       35.1640   -5.3610   15.7980 C.ar   23  TRP23       0.0810
     11  CE3       36.7460   -7.1820   15.9620 C.ar   23  TRP23       0.0012
     12  CZ2       35.8850   -4.5920   16.7200 C.ar   23  TRP23       0.0191
     13  CZ3       37.4370   -6.4350   16.8800 C.ar   23  TRP23       0.0001
     14  CH2       37.0200   -5.1480   17.2410 C.ar   23  TRP23       0.0015
     15  N         34.4170   -9.4400   16.9500 N.am   24  PRO24      -0.2718
     16  CA        35.1570   -9.8710   18.1400 C.3    24  PRO24       0.1535
     17  C         34.9120  -11.3070   18.6040 C.2    24  PRO24       0.2598
     18  O         35.6890  -11.8070   19.4420 O.2    24  PRO24      -0.2715
     19  CB        34.6210   -8.9200   19.2370 C.3    24  PRO24       0.0310
     20  CG        34.1050   -7.7320   18.4890 C.3    24  PRO24       0.0237
     21  CD        33.4490   -8.3780   17.3060 C.3    24  PRO24       0.0939
     22  N         33.8400  -11.9270   18.1020 N.am   25  PHE25      -0.1974
     23  CA        33.3350  -13.1960   18.6050 C.3    25  PHE25       0.1639
     24  C         33.5410  -14.3660   17.6340 C.2    25  PHE25       0.2290
     25  O         32.9740  -15.4280   17.8490 O.2    25  PHE25      -0.2864
     26  CB        31.8300  -13.0430   18.9490 C.3    25  PHE25       0.0560
     27  CG        31.5280  -11.7980   19.7330 C.ar   25  PHE25      -0.0200
     28  CD1       32.0320  -11.6560   20.9860 C.ar   25  PHE25      -0.0042
     29  CD2       30.8890  -10.7220   19.1460 C.ar   25  PHE25      -0.0042
     30  CE1       31.8860  -10.4710   21.6940 C.ar   25  PHE25      -0.0003
     31  CE2       30.6810   -9.5300   19.8580 C.ar   25  PHE25      -0.0003
     32  CZ        31.1760   -9.4060   21.1450 C.ar   25  PHE25      -0.0000
     33  N         36.1780  -16.2260   16.6250 N.3    27  GLU27      -0.1231
     34  CA        36.9720  -17.3710   17.0730 C.3    27  GLU27       0.1684
     35  C         37.3000  -17.3250   18.5780 C.2    27  GLU27       0.2434
     36  O         37.1790  -16.2950   19.1720 O.2    27  GLU27      -0.2733
     37  CB        38.2890  -17.3760   16.2880 C.3    27  GLU27       0.0402
     38  CG        38.0540  -17.2930   14.8020 C.3    27  GLU27       0.1161
     39  CD        39.2330  -17.7280   13.9880 C.2    27  GLU27       0.3649
     40  OE1       40.3860  -17.3200   14.3160 O.co2  27  GLU27      -0.2457
     41  OE2       38.9850  -18.4600   12.9970 O.co2  27  GLU27      -0.2457
     42  N         37.7790  -18.4410   19.1690 N.am   28  PRO28      -0.2718
     43  CA        38.2170  -18.4240   20.5720 C.3    28  PRO28       0.1535
     44  C         39.1850  -17.3080   20.9500 C.2    28  PRO28       0.2598
     45  O         40.1530  -17.0080   20.2230 O.2    28  PRO28      -0.2715
     46  CB        38.9280  -19.7850   20.7330 C.3    28  PRO28       0.0310
     47  CG        38.2250  -20.6800   19.7850 C.3    28  PRO28       0.0237
     48  CD        37.9310  -19.8090   18.5940 C.3    28  PRO28       0.0939
     49  N         38.9320  -16.7120   22.1030 N.am   29  VAL29      -0.1978
     50  CA        39.7990  -15.6840   22.6310 C.3    29  VAL29       0.1596
     51  C         41.1480  -16.3650   22.8430 C.2    29  VAL29       0.2287
     52  O         41.1930  -17.4860   23.3430 O.2    29  VAL29      -0.2864
     53  CB        39.2630  -15.0780   23.9620 C.3    29  VAL29       0.0276
     54  CG1       40.2830  -14.1010   24.5630 C.3    29  VAL29       0.0022
     55  CG2       37.9410  -14.3670   23.7220 C.3    29  VAL29       0.0022
     56  N         46.4470  -12.8760   24.0260 N.3    33  GLU33      -0.1231
     57  CA        45.9470  -11.5200   23.9090 C.3    33  GLU33       0.1699
     58  C         44.7980  -11.1850   24.8080 C.2    33  GLU33       0.2592
     59  O         44.1110  -10.2170   24.5380 O.2    33  GLU33      -0.2718
     60  CB        45.7160  -11.1410   22.4340 C.3    33  GLU33       0.0402
     61  CG        44.5140  -11.7350   21.7380 C.3    33  GLU33       0.1161
     62  CD        44.5550  -11.5110   20.2320 C.2    33  GLU33       0.3649
     63  OE1       45.5060  -10.8490   19.7410 O.co2  33  GLU33      -0.2457
     64  OE2       43.6390  -11.9850   19.5220 O.co2  33  GLU33      -0.2457
     65  N         44.5980  -11.9520   25.8940 N.am   34  ALA34      -0.1980
     66  CA        43.6870  -11.5210   26.9660 C.3    34  ALA34       0.1597
     67  C         44.1270  -11.9350   28.3660 C.2    34  ALA34       0.2287
     68  O         43.6940  -12.9750   28.8540 O.2    34  ALA34      -0.2864
     69  CB        42.2720  -12.0180   26.6920 C.3    34  ALA34       0.0319
     70  N         42.1610  -14.0030   31.2420 N.3    37  TYR37      -0.1241
     71  CA        40.8430  -14.3140   30.7000 C.3    37  TYR37       0.1605
     72  C         40.3410  -15.6780   31.1840 C.2    37  TYR37       0.2264
     73  O         39.2540  -15.7730   31.7630 O.2    37  TYR37      -0.2867
     74  CB        40.8440  -14.2980   29.1660 C.3    37  TYR37       0.0534
     75  CG        39.4670  -14.4230   28.5380 C.ar   37  TYR37      -0.0201
     76  CD1       38.9240  -15.6740   28.2330 C.ar   37  TYR37      -0.0009
     77  CD2       38.7150  -13.2890   28.2270 C.ar   37  TYR37      -0.0009
     78  CE1       37.6700  -15.8020   27.6650 C.ar   37  TYR37       0.0417
     79  CE2       37.4540  -13.4110   27.6460 C.ar   37  TYR37       0.0417
     80  CZ        36.9430  -14.6720   27.3590 C.ar   37  TYR37       0.1957
     81  OH        35.6990  -14.8050   26.7920 O.3    37  TYR37      -0.2866
     82  N         31.9450  -11.6920   27.2920 N.3    76  CYS76      -0.1235
     83  CA        32.5340  -10.4400   26.8100 C.3    76  CYS76       0.1677
     84  C         32.2980   -9.2890   27.8180 C.2    76  CYS76       0.2270
     85  O         33.2220   -8.5300   28.1520 O.2    76  CYS76      -0.2867
     86  CB        31.9500  -10.1030   25.4580 C.3    76  CYS76       0.0956
     87  SG        32.5340   -8.5630   24.8460 S.3    76  CYS76      -0.0801
     88  N         34.3300   -9.5050   31.0860 N.3    79  TYR79      -0.1227
     89  CA        35.7920   -9.3340   30.9500 C.3    79  TYR79       0.1736
     90  C         36.1840   -7.9110   30.5930 C.2    79  TYR79       0.2595
     91  O         37.1060   -7.3630   31.1480 O.2    79  TYR79      -0.2718
     92  CB        36.3600  -10.3050   29.9210 C.3    79  TYR79       0.0548
     93  CG        37.8740  -10.2470   29.8880 C.ar   79  TYR79      -0.0200
     94  CD1       38.6310  -10.7700   30.9420 C.ar   79  TYR79      -0.0009
     95  CD2       38.5510   -9.6260   28.8230 C.ar   79  TYR79      -0.0009
     96  CE1       40.0260  -10.6700   30.9390 C.ar   79  TYR79       0.0417
     97  CE2       39.9360   -9.5420   28.8020 C.ar   79  TYR79       0.0417
     98  CZ        40.6750  -10.0590   29.8600 C.ar   79  TYR79       0.1957
     99  OH        42.0550   -9.9680   29.8240 O.3    79  TYR79      -0.2866
    100  N         35.4530   -7.3040   29.6790 N.am   80  ASN80      -0.1974
    101  CA        35.8630   -6.0260   29.1120 C.3    80  ASN80       0.1688
    102  C         35.2920   -4.7760   29.8050 C.2    80  ASN80       0.2292
    103  O         34.1610   -4.8230   30.3160 O.2    80  ASN80      -0.2864
    104  CB        35.4880   -6.0340   27.6390 C.3    80  ASN80       0.1181
    105  CG        36.2480   -7.1160   26.8790 C.2    80  ASN80       0.2629
    106  OD1       37.4450   -6.9900   26.6750 O.2    80  ASN80      -0.2716
    107  ND2       35.5660   -8.1900   26.4970 N.am   80  ASN80      -0.0877
    108  N         34.6040   -3.7790   22.3930 N.3    86  TYR86      -0.1241
    109  CA        34.1020   -5.1650   22.4800 C.3    86  TYR86       0.1605
    110  C         32.7600   -5.2020   23.2190 C.2    86  TYR86       0.2264
    111  O         31.8690   -5.9080   22.8090 O.2    86  TYR86      -0.2867
    112  CB        35.0760   -6.1220   23.1650 C.3    86  TYR86       0.0534
    113  CG        36.4610   -6.2730   22.5210 C.ar   86  TYR86      -0.0201
    114  CD1       36.6470   -6.4440   21.1510 C.ar   86  TYR86      -0.0009
    115  CD2       37.5920   -6.2790   23.3340 C.ar   86  TYR86      -0.0009
    116  CE1       37.9610   -6.5910   20.6220 C.ar   86  TYR86       0.0417
    117  CE2       38.8780   -6.4300   22.8290 C.ar   86  TYR86       0.0417
    118  CZ        39.0670   -6.5890   21.4900 C.ar   86  TYR86       0.1957
    119  OH        40.3820   -6.7270   21.1130 O.3    86  TYR86      -0.2866
@<TRIPOS>BOND
     1    41    39   ar
     2     5     6    1
     3     5     2    1
     4    39    40   ar
     5    39    38    1
     6     7     6   ar
     7     7     9   ar
     8     6     8   ar
     9     2     1    1
    10     2     3    1
    11    38    37    1
    12     9    10   ar
    13     8    10   ar
    14     8    11   ar
    15     4     3    2
    16     3    15   am
    17    10    12   ar
    18    11    13   ar
    19    37    34    1
    20    33    34    1
    21    12    14   ar
    22    13    14   ar
    23    15    21    1
    24    15    16    1
    25    34    35    1
    26    21    20    1
    27    24    25    2
    28    24    23    1
    29    22    17   am
    30    22    23    1
    31    16    17    1
    32    16    19    1
    33    20    19    1
    34    35    42   am
    35    35    36    2
    36    48    42    1
    37    48    47    1
    38    17    18    2
    39    23    26    1
    40    26    27    1
    41    29    27   ar
    42    29    31   ar
    43    42    43    1
    44    64    62   ar
    45    27    28   ar
    46    63    62   ar
    47    47    46    1
    48    31    32   ar
    49    45    44    2
    50    62    61    1
    51    43    46    1
    52    43    44    1
    53   116   114   ar
    54   116   118   ar
    55    44    49   am
    56    28    30   ar
    57   119   118    1
    58    32    30   ar
    59   114   113   ar
    60   118   117   ar
    61    61    60    1
    62    49    50    1
    63   108   109    1
    64    60    57    1
    65   109   112    1
    66   109   110    1
    67   113   112    1
    68   113   115   ar
    69    50    51    1
    70    50    53    1
    71   111   110    2
    72   117   115   ar
    73    51    52    2
    74    55    53    1
    75    57    56    1
    76    57    58    1
    77    53    54    1
    78    59    58    2
    79    58    65   am
    80    87    86    1
    81    86    83    1
    82    65    66    1
    83   107   105   am
    84   106   105    2
    85    69    66    1
    86    81    80    1
    87    83    82    1
    88    83    84    1
    89   105   104    1
    90    66    67    1
    91    80    79   ar
    92    80    78   ar
    93   104   101    1
    94    79    77   ar
    95    78    76   ar
    96    84    85    2
    97    77    75   ar
    98    76    75   ar
    99    67    68    2
   100    75    74    1
   101    97    95   ar
   102    97    98   ar
   103    95    93   ar
   104   101   100    1
   105   101   102    1
   106    74    71    1
   107   100    90   am
   108   102   103    2
   109    99    98    1
   110    98    96   ar
   111    93    92    1
   112    93    94   ar
   113    92    89    1
   114    90    89    1
   115    90    91    2
   116    71    72    1
   117    71    70    1
   118    96    94   ar
   119    89    88    1
   120    72    73    2
