@<TRIPOS>MOLECULE
tmp/5fe5B00.pdb
 89 87 0 0 0
SMALL
GASTEIGER

@<TRIPOS>ATOM
      1  N         42.3350  -18.2030  -36.1100 N.3    25  PRO25      -0.2102
      2  CA        41.8860  -19.4520  -35.4910 C.3    25  PRO25       0.1504
      3  C         40.5900  -20.0410  -36.0710 C.2    25  PRO25       0.2575
      4  O         40.2940  -21.2080  -35.8190 O.2    25  PRO25      -0.2718
      5  CB        41.6180  -19.0410  -34.0300 C.3    25  PRO25       0.0282
      6  CG        42.3740  -17.8000  -33.8520 C.3    25  PRO25       0.0208
      7  CD        42.2160  -17.0930  -35.1440 C.3    25  PRO25       0.0893
      8  N         39.8300  -19.2150  -36.8090 N.am   26  PHE26      -0.1977
      9  CA        38.4580  -19.5130  -37.1950 C.3    26  PHE26       0.1639
     10  C         38.3260  -19.7120  -38.7060 C.2    26  PHE26       0.2290
     11  O         37.2240  -19.9030  -39.2060 O.2    26  PHE26      -0.2864
     12  CB        37.5430  -18.3630  -36.7350 C.3    26  PHE26       0.0560
     13  CG        37.7950  -17.9500  -35.3220 C.ar   26  PHE26      -0.0200
     14  CD1       37.5290  -18.8370  -34.2710 C.ar   26  PHE26      -0.0042
     15  CD2       38.3530  -16.7380  -35.0320 C.ar   26  PHE26      -0.0042
     16  CE1       37.7980  -18.4940  -32.9680 C.ar   26  PHE26      -0.0003
     17  CE2       38.5760  -16.3620  -33.7240 C.ar   26  PHE26      -0.0003
     18  CZ        38.2980  -17.2480  -32.6850 C.ar   26  PHE26      -0.0000
     19  N         38.0130  -26.7260  -37.4000 N.3    30  VAL30      -0.1245
     20  CA        39.0440  -27.2110  -36.4630 C.3    30  VAL30       0.1561
     21  C         39.5660  -28.6140  -36.8710 C.2    30  VAL30       0.2260
     22  O         38.7950  -29.5060  -37.2060 O.2    30  VAL30      -0.2867
     23  CB        38.4850  -27.2230  -35.0200 C.3    30  VAL30       0.0252
     24  CG1       39.4400  -27.9040  -34.0730 C.3    30  VAL30       0.0019
     25  CG2       38.2020  -25.8000  -34.5790 C.3    30  VAL30       0.0019
     26  N         45.1700  -30.9870  -34.5720 N.3    34  GLU34      -0.1231
     27  CA        45.4270  -29.8800  -33.6640 C.3    34  GLU34       0.1699
     28  C         44.6120  -29.9690  -32.3810 C.2    34  GLU34       0.2592
     29  O         45.0790  -29.4850  -31.3700 O.2    34  GLU34      -0.2718
     30  CB        45.1770  -28.5340  -34.3460 C.3    34  GLU34       0.0402
     31  CG        46.1150  -28.2760  -35.5220 C.3    34  GLU34       0.1161
     32  CD        45.7690  -27.0150  -36.3110 C.2    34  GLU34       0.3649
     33  OE1       44.7480  -26.3840  -36.0180 O.co2  34  GLU34      -0.2457
     34  OE2       46.5260  -26.6630  -37.2370 O.co2  34  GLU34      -0.2457
     35  N         43.4060  -30.5580  -32.3930 N.am   35  ALA35      -0.1980
     36  CA        42.5380  -30.5800  -31.1920 C.3    35  ALA35       0.1597
     37  C         41.7710  -31.9200  -31.0520 C.2    35  ALA35       0.2287
     38  O         40.5700  -31.9920  -31.3310 O.2    35  ALA35      -0.2864
     39  CB        41.5690  -29.4220  -31.2430 C.3    35  ALA35       0.0319
     40  N         37.9290  -32.4690  -29.8890 N.3    38  TYR38      -0.1241
     41  CA        37.1310  -31.2810  -30.1230 C.3    38  TYR38       0.1605
     42  C         35.7210  -31.6640  -30.5460 C.2    38  TYR38       0.2264
     43  O         34.7260  -31.1480  -30.0080 O.2    38  TYR38      -0.2867
     44  CB        37.7820  -30.4250  -31.2470 C.3    38  TYR38       0.0534
     45  CG        37.0620  -29.1420  -31.5170 C.ar   38  TYR38      -0.0201
     46  CD1       37.3430  -27.9940  -30.7760 C.ar   38  TYR38      -0.0009
     47  CD2       36.0730  -29.0660  -32.4850 C.ar   38  TYR38      -0.0009
     48  CE1       36.6810  -26.7840  -31.0060 C.ar   38  TYR38       0.0417
     49  CE2       35.4320  -27.8510  -32.7560 C.ar   38  TYR38       0.0417
     50  CZ        35.7160  -26.7140  -31.9810 C.ar   38  TYR38       0.1957
     51  OH        35.0990  -25.4760  -32.2250 O.3    38  TYR38      -0.2866
     52  N         34.3310  -21.4010  -29.5150 N.3    77  CYS77      -0.1235
     53  CA        35.6340  -21.0510  -29.0090 C.3    77  CYS77       0.1677
     54  C         35.6200  -20.7890  -27.5040 C.2    77  CYS77       0.2270
     55  O         36.4410  -21.3260  -26.7640 O.2    77  CYS77      -0.2867
     56  CB        36.1830  -19.8640  -29.7870 C.3    77  CYS77       0.0956
     57  SG        37.8060  -19.3770  -29.2180 S.3    77  CYS77      -0.0801
     58  N         35.0150  -24.1290  -25.5350 N.3    80  TYR80      -0.1227
     59  CA        36.1330  -25.0340  -25.6230 C.3    80  TYR80       0.1736
     60  C         37.3720  -24.5560  -24.8350 C.2    80  TYR80       0.2595
     61  O         38.0210  -25.3660  -24.2110 O.2    80  TYR80      -0.2718
     62  CB        36.5330  -25.2770  -27.0880 C.3    80  TYR80       0.0548
     63  CG        37.4310  -26.4670  -27.2380 C.ar   80  TYR80      -0.0200
     64  CD1       36.9490  -27.7580  -26.9600 C.ar   80  TYR80      -0.0009
     65  CD2       38.7650  -26.3190  -27.6100 C.ar   80  TYR80      -0.0009
     66  CE1       37.7880  -28.8740  -27.0630 C.ar   80  TYR80       0.0417
     67  CE2       39.6130  -27.4200  -27.7050 C.ar   80  TYR80       0.0417
     68  CZ        39.1190  -28.6820  -27.4600 C.ar   80  TYR80       0.1957
     69  OH        39.9240  -29.7680  -27.5880 O.3    80  TYR80      -0.2866
     70  N         37.7080  -23.2630  -24.9540 N.am   81  ASN81      -0.1974
     71  CA        38.9720  -22.7020  -24.4790 C.3    81  ASN81       0.1688
     72  C         38.8940  -21.8910  -23.1830 C.2    81  ASN81       0.2292
     73  O         37.9060  -21.2180  -22.9550 O.2    81  ASN81      -0.2864
     74  CB        39.5700  -21.8190  -25.5760 C.3    81  ASN81       0.1181
     75  CG        39.8210  -22.5830  -26.8350 C.2    81  ASN81       0.2629
     76  OD1       40.7410  -23.3810  -26.8910 O.2    81  ASN81      -0.2716
     77  ND2       38.9650  -22.3890  -27.8480 N.am   81  ASN81      -0.0877
     78  N         43.1430  -18.0960  -28.2260 N.3    87  TYR87      -0.1241
     79  CA        41.9210  -18.3270  -29.0240 C.3    87  TYR87       0.1605
     80  C         40.7600  -17.5070  -28.4900 C.2    87  TYR87       0.2264
     81  O         40.0760  -16.8470  -29.2500 O.2    87  TYR87      -0.2867
     82  CB        41.5010  -19.7870  -29.0300 C.3    87  TYR87       0.0534
     83  CG        42.5410  -20.6940  -29.5720 C.ar   87  TYR87      -0.0201
     84  CD1       43.0370  -20.5430  -30.8600 C.ar   87  TYR87      -0.0009
     85  CD2       43.0590  -21.6980  -28.7870 C.ar   87  TYR87      -0.0009
     86  CE1       44.0380  -21.3870  -31.3380 C.ar   87  TYR87       0.0417
     87  CE2       44.0360  -22.5450  -29.2580 C.ar   87  TYR87       0.0417
     88  CZ        44.5110  -22.3940  -30.5140 C.ar   87  TYR87       0.1957
     89  OH        45.4750  -23.2760  -30.8970 O.3    87  TYR87      -0.2866
@<TRIPOS>BOND
     1    11    10    2
     2    10     9    1
     3    19    20    1
     4    34    32   ar
     5    22    21    2
     6     9     8    1
     7     9    12    1
     8    21    20    1
     9     8     3   am
    10    12    13    1
    11    20    23    1
    12    32    33   ar
    13    32    31    1
    14     1     2    1
    15     1     7    1
    16     3     4    2
    17     3     2    1
    18    31    30    1
    19     2     5    1
    20    13    15   ar
    21    13    14   ar
    22     7     6    1
    23    15    17   ar
    24    23    25    1
    25    23    24    1
    26    26    27    1
    27    30    27    1
    28    14    16   ar
    29     5     6    1
    30    17    18   ar
    31    27    28    1
    32    16    18   ar
    33    49    47   ar
    34    49    50   ar
    35    47    45   ar
    36    35    28   am
    37    35    36    1
    38    28    29    2
    39    51    50    1
    40    50    48   ar
    41    45    44    1
    42    45    46   ar
    43    86    84   ar
    44    86    88   ar
    45    38    37    2
    46    44    41    1
    47    39    36    1
    48    36    37    1
    49    48    46   ar
    50    89    88    1
    51    84    83   ar
    52    42    41    1
    53    42    43    2
    54    88    87   ar
    55    41    40    1
    56    56    57    1
    57    56    53    1
    58    83    82    1
    59    83    85   ar
    60    52    53    1
    61    87    85   ar
    62    81    80    2
    63    82    79    1
    64    79    80    1
    65    79    78    1
    66    53    54    1
    67    77    75   am
    68    67    65   ar
    69    67    68   ar
    70    65    63   ar
    71    69    68    1
    72    54    55    2
    73    68    66   ar
    74    63    62    1
    75    63    64   ar
    76    62    59    1
    77    66    64   ar
    78    76    75    2
    79    75    74    1
    80    59    58    1
    81    59    60    1
    82    74    71    1
    83    70    60   am
    84    70    71    1
    85    60    61    2
    86    71    72    1
    87    72    73    2
