@<TRIPOS>MOLECULE
tmp/5fe6A00.pdb
 96 93 0 0 0
SMALL
GASTEIGER

@<TRIPOS>ATOM
      1  N         -5.5610   12.0010   37.7240 N.3    25  PRO25      -0.2102
      2  CA        -4.2370   11.7170   37.1430 C.3    25  PRO25       0.1504
      3  C         -3.0800   12.5370   37.7050 C.2    25  PRO25       0.2575
      4  O         -1.9230   12.1970   37.4620 O.2    25  PRO25      -0.2718
      5  CB        -4.3890   12.1050   35.6580 C.3    25  PRO25       0.0282
      6  CG        -5.8680   12.1880   35.4020 C.3    25  PRO25       0.0208
      7  CD        -6.4760   12.6000   36.7100 C.3    25  PRO25       0.0893
      8  N         -3.3910   13.5980   38.4200 N.am   26  PHE26      -0.1977
      9  CA        -2.4510   14.6120   38.7820 C.3    26  PHE26       0.1639
     10  C         -2.2140   14.6650   40.2600 C.2    26  PHE26       0.2290
     11  O         -1.5280   15.5380   40.7490 O.2    26  PHE26      -0.2864
     12  CB        -2.9920   15.9980   38.3120 C.3    26  PHE26       0.0560
     13  CG        -3.4190   16.0170   36.8850 C.ar   26  PHE26      -0.0200
     14  CD1       -2.5080   15.7960   35.8500 C.ar   26  PHE26      -0.0042
     15  CD2       -4.7450   16.1820   36.5750 C.ar   26  PHE26      -0.0042
     16  CE1       -2.9260   15.6840   34.5350 C.ar   26  PHE26      -0.0003
     17  CE2       -5.1840   16.1170   35.2690 C.ar   26  PHE26      -0.0003
     18  CZ        -4.2720   15.8630   34.2340 C.ar   26  PHE26      -0.0000
     19  N          4.0750   11.4640   38.8970 N.3    30  VAL30      -0.1245
     20  CA         3.9770   10.3880   37.9110 C.3    30  VAL30       0.1561
     21  C          4.8840    9.2130   38.3250 C.2    30  VAL30       0.2260
     22  O          6.0020    9.4280   38.8000 O.2    30  VAL30      -0.2867
     23  CB         4.3040   10.9120   36.4850 C.3    30  VAL30       0.0252
     24  CG1        4.4040    9.7860   35.4720 C.3    30  VAL30       0.0019
     25  CG2        3.2030   11.8910   36.0410 C.3    30  VAL30       0.0019
     26  N          4.2080    3.4370   35.6100 N.3    34  GLU34      -0.1231
     27  CA         3.1350    3.7190   34.6540 C.3    34  GLU34       0.1699
     28  C          3.6330    4.4260   33.3630 C.2    34  GLU34       0.2592
     29  O          3.0160    4.3430   32.2910 O.2    34  GLU34      -0.2718
     30  CB         2.0140    4.5010   35.3920 C.3    34  GLU34       0.0402
     31  CG         1.4740    3.7990   36.6430 C.3    34  GLU34       0.1161
     32  CD         0.5750    4.6860   37.5350 C.2    34  GLU34       0.3649
     33  OE1        0.5250    5.8910   37.2950 O.co2  34  GLU34      -0.2457
     34  OE2       -0.0810    4.1810   38.4850 O.co2  34  GLU34      -0.2457
     35  N          4.8220    5.0190   33.4240 N.am   35  ALA35      -0.1980
     36  CA         5.3300    5.8300   32.3620 C.3    35  ALA35       0.1597
     37  C          6.8580    5.7170   32.3460 C.2    35  ALA35       0.2287
     38  O          7.5610    6.6560   32.7280 O.2    35  ALA35      -0.2864
     39  CB         4.8990    7.2580   32.6240 C.3    35  ALA35       0.0319
     40  N          9.1580    8.6330   31.3520 N.3    38  TYR38      -0.1241
     41  CA         8.6140    9.9790   31.6570 C.3    38  TYR38       0.1605
     42  C          9.6340   10.9800   32.0750 C.2    38  TYR38       0.2264
     43  O          9.6840   12.1160   31.5930 O.2    38  TYR38      -0.2867
     44  CB         7.5520    9.8520   32.7740 C.3    38  TYR38       0.0534
     45  CG         6.7730   11.1170   33.0130 C.ar   38  TYR38      -0.0201
     46  CD1        5.6370   11.4120   32.2670 C.ar   38  TYR38      -0.0009
     47  CD2        7.1550   12.0380   33.9820 C.ar   38  TYR38      -0.0009
     48  CE1        4.8820   12.5590   32.5090 C.ar   38  TYR38       0.0417
     49  CE2        6.4320   13.1880   34.1920 C.ar   38  TYR38       0.0417
     50  CZ         5.2880   13.4520   33.4460 C.ar   38  TYR38       0.1957
     51  OH         4.5600   14.6320   33.6850 O.3    38  TYR38      -0.2866
     52  N          1.5210   21.4460   35.6380 N.3    73  VAL73      -0.1245
     53  CA         0.8800   20.1230   35.6690 C.3    73  VAL73       0.1561
     54  C          0.2020   19.8880   34.3190 C.2    73  VAL73       0.2260
     55  O          0.3080   18.8170   33.6870 O.2    73  VAL73      -0.2867
     56  CB        -0.1650   20.1000   36.8070 C.3    73  VAL73       0.0252
     57  CG1       -1.0000   18.8440   36.6920 C.3    73  VAL73       0.0019
     58  CG2        0.5020   20.2120   38.1740 C.3    73  VAL73       0.0019
     59  N          1.2710   17.4390   31.0200 N.3    77  CYS77      -0.1235
     60  CA         0.3250   16.4580   30.5690 C.3    77  CYS77       0.1677
     61  C          0.1570   16.5460   29.0480 C.2    77  CYS77       0.2270
     62  O          0.1230   15.5350   28.3610 O.2    77  CYS77      -0.2867
     63  CB        -1.0070   16.6130   31.3170 C.3    77  CYS77       0.0956
     64  SG        -2.2800   15.4450   30.7730 S.3    77  CYS77      -0.0801
     65  N          3.2540   15.4060   27.1280 N.3    80  TYR80      -0.1227
     66  CA         3.5030   14.0110   27.1490 C.3    80  TYR80       0.1736
     67  C          2.4840   13.1390   26.4200 C.2    80  TYR80       0.2595
     68  O          2.8840   12.1230   25.8250 O.2    80  TYR80      -0.2718
     69  CB         3.6880   13.5430   28.6070 C.3    80  TYR80       0.0548
     70  CG         4.3870   12.2270   28.7090 C.ar   80  TYR80      -0.0200
     71  CD1        5.7850   12.1510   28.5740 C.ar   80  TYR80      -0.0009
     72  CD2        3.6830   11.0520   28.9440 C.ar   80  TYR80      -0.0009
     73  CE1        6.4480   10.9210   28.5930 C.ar   80  TYR80       0.0417
     74  CE2        4.3370    9.7980   28.9800 C.ar   80  TYR80       0.0417
     75  CZ         5.7080    9.7410   28.8000 C.ar   80  TYR80       0.1957
     76  OH         6.3950    8.5410   28.8560 O.3    80  TYR80      -0.2866
     77  N          1.1990   13.4750   26.5140 N.am   81  ASN81      -0.1974
     78  CA         0.1100   12.6220   26.1110 C.3    81  ASN81       0.1688
     79  C         -0.5880   13.1420   24.8290 C.2    81  ASN81       0.2292
     80  O         -0.6820   14.3620   24.6240 O.2    81  ASN81      -0.2864
     81  CB        -0.9160   12.5230   27.2100 C.3    81  ASN81       0.1181
     82  CG        -0.3400   11.9770   28.4710 C.2    81  ASN81       0.2629
     83  OD1       -0.0320   10.7790   28.5280 O.2    81  ASN81      -0.2716
     84  ND2       -0.1180   12.8170   29.4400 N.am   81  ASN81      -0.0877
     85  N         -6.0300   11.4840   29.7840 N.3    87  TYR87      -0.1241
     86  CA        -5.2360   12.4530   30.5690 C.3    87  TYR87       0.1605
     87  C         -5.3590   13.8680   30.0290 C.2    87  TYR87       0.2264
     88  O         -5.5410   14.8280   30.7970 O.2    87  TYR87      -0.2867
     89  CB        -3.7690   12.0730   30.5900 C.3    87  TYR87       0.0534
     90  CG        -3.5400   10.6960   31.1260 C.ar   87  TYR87      -0.0201
     91  CD1       -3.9830   10.3310   32.3840 C.ar   87  TYR87      -0.0009
     92  CD2       -2.8710    9.7790   30.3720 C.ar   87  TYR87      -0.0009
     93  CE1       -3.7590    9.0350   32.8810 C.ar   87  TYR87       0.0417
     94  CE2       -2.6530    8.5100   30.8460 C.ar   87  TYR87       0.0417
     95  CZ        -3.0940    8.1580   32.0780 C.ar   87  TYR87       0.1957
     96  OH        -2.8280    6.8760   32.4750 O.3    87  TYR87      -0.2866
@<TRIPOS>BOND
     1    80    79    2
     2    79    78    1
     3    68    67    2
     4    78    77    1
     5    78    81    1
     6    67    77   am
     7    67    66    1
     8    65    66    1
     9    66    69    1
    10    81    82    1
    11    62    61    2
    12    82    83    2
    13    82    84   am
    14    71    73   ar
    15    71    70   ar
    16    73    75   ar
    17    69    70    1
    18    70    72   ar
    19    75    76    1
    20    75    74   ar
    21    72    74   ar
    22    61    60    1
    23    85    86    1
    24    87    86    1
    25    87    88    2
    26    92    94   ar
    27    92    90   ar
    28    60    59    1
    29    60    63    1
    30    86    89    1
    31    89    90    1
    32    64    63    1
    33    94    95   ar
    34    90    91   ar
    35    40    41    1
    36    43    42    2
    37    41    42    1
    38    41    44    1
    39    95    96    1
    40    95    93   ar
    41    46    48   ar
    42    46    45   ar
    43    29    28    2
    44    37    36    1
    45    37    38    2
    46    36    39    1
    47    36    35    1
    48    91    93   ar
    49    48    50   ar
    50    44    45    1
    51    45    47   ar
    52    28    35   am
    53    28    27    1
    54    50    51    1
    55    50    49   ar
    56    55    54    2
    57    47    49   ar
    58    18    16   ar
    59    18    17   ar
    60    54    53    1
    61    16    14   ar
    62    27    30    1
    63    27    26    1
    64    17    15   ar
    65    30    31    1
    66     6     5    1
    67     6     7    1
    68    24    23    1
    69    52    53    1
    70     5     2    1
    71    53    56    1
    72    14    13   ar
    73    25    23    1
    74    23    20    1
    75    15    13   ar
    76    31    32    1
    77    57    56    1
    78     7     1    1
    79    56    58    1
    80    13    12    1
    81     2     3    1
    82     2     1    1
    83    33    32   ar
    84     4     3    2
    85    32    34   ar
    86     3     8   am
    87    20    21    1
    88    20    19    1
    89    12     9    1
    90    21    22    2
    91     8     9    1
    92     9    10    1
    93    10    11    2
