@<TRIPOS>MOLECULE
tmp/5fe7A00.pdb
 114 113 0 0 0
SMALL
GASTEIGER

@<TRIPOS>ATOM
      1  N         -9.0090   34.8330   16.9200 N.3    25  PRO25      -0.2102
      2  CA        -9.0310   35.7180   18.0920 C.3    25  PRO25       0.1504
      3  C         -7.6550   36.2230   18.5120 C.2    25  PRO25       0.2575
      4  O         -7.5570   37.2180   19.2180 O.2    25  PRO25      -0.2718
      5  CB        -9.5600   34.7950   19.1990 C.3    25  PRO25       0.0282
      6  CG       -10.2730   33.7110   18.4690 C.3    25  PRO25       0.0208
      7  CD        -9.4330   33.4650   17.2730 C.3    25  PRO25       0.0893
      8  N         -6.6150   35.5190   18.1080 N.am   26  PHE26      -0.1977
      9  CA        -5.2700   35.7090   18.6340 C.3    26  PHE26       0.1639
     10  C         -4.3490   36.4410   17.6520 C.2    26  PHE26       0.2290
     11  O         -3.1590   36.5490   17.8780 O.2    26  PHE26      -0.2864
     12  CB        -4.6810   34.3650   18.9920 C.3    26  PHE26       0.0560
     13  CG        -5.6180   33.5050   19.8370 C.ar   26  PHE26      -0.0200
     14  CD1       -6.0220   33.9370   21.0600 C.ar   26  PHE26      -0.0042
     15  CD2       -6.1900   32.3740   19.3290 C.ar   26  PHE26      -0.0042
     16  CE1       -6.9790   33.2460   21.8020 C.ar   26  PHE26      -0.0003
     17  CE2       -7.1360   31.6610   20.0530 C.ar   26  PHE26      -0.0003
     18  CZ        -7.5310   32.0910   21.2900 C.ar   26  PHE26      -0.0000
     19  N         -4.2030   39.6040   16.7840 N.3    28  GLU28      -0.1231
     20  CA        -3.6840   40.8720   17.2250 C.3    28  GLU28       0.1684
     21  C         -3.7950   41.0410   18.7160 C.2    28  GLU28       0.2434
     22  O         -4.5840   40.3720   19.3180 O.2    28  GLU28      -0.2733
     23  CB        -4.4780   41.9840   16.5070 C.3    28  GLU28       0.0402
     24  CG        -3.8620   42.2440   15.1480 C.3    28  GLU28       0.1161
     25  CD        -4.6320   43.2110   14.2970 C.2    28  GLU28       0.3649
     26  OE1       -5.3100   44.0990   14.8440 O.co2  28  GLU28      -0.2457
     27  OE2       -4.5510   43.0720   13.0640 O.co2  28  GLU28      -0.2457
     28  N         -3.0910   42.0150   19.2860 N.am   29  PRO29      -0.2718
     29  CA        -3.2130   42.3140   20.7040 C.3    29  PRO29       0.1535
     30  C         -4.6500   42.5290   21.1510 C.2    29  PRO29       0.2598
     31  O         -5.4450   43.1620   20.4400 O.2    29  PRO29      -0.2715
     32  CB        -2.4450   43.6400   20.8430 C.3    29  PRO29       0.0310
     33  CG        -1.4330   43.6450   19.7310 C.3    29  PRO29       0.0237
     34  CD        -2.0790   42.8820   18.6160 C.3    29  PRO29       0.0939
     35  N         -4.9700   42.0450   22.3510 N.am   30  VAL30      -0.1964
     36  CA        -6.2470   42.3460   22.9710 C.3    30  VAL30       0.1727
     37  C         -6.3790   43.8580   23.0690 C.2    30  VAL30       0.2616
     38  O         -5.4060   44.5150   23.3730 O.2    30  VAL30      -0.2715
     39  CB        -6.3250   41.7200   24.3650 C.3    30  VAL30       0.0290
     40  CG1       -7.5920   42.1440   25.0870 C.3    30  VAL30       0.0023
     41  CG2       -6.2370   40.1980   24.2370 C.3    30  VAL30       0.0023
     42  N         -7.5460   44.4190   22.7600 N.am   31  LYS31      -0.1977
     43  CA        -7.6900   45.8910   22.8110 C.3    31  LYS31       0.1596
     44  C         -8.2300   46.2950   24.1550 C.2    31  LYS31       0.2287
     45  O         -9.2910   45.7750   24.5950 O.2    31  LYS31      -0.2864
     46  CB        -8.6400   46.4270   21.7650 C.3    31  LYS31       0.0298
     47  CG        -8.1690   46.2520   20.3570 C.3    31  LYS31       0.0038
     48  CD        -9.0230   47.1220   19.4320 C.3    31  LYS31       0.0206
     49  CE        -9.3180   46.4550   18.0940 C.3    31  LYS31       0.1093
     50  NZ        -8.3500   45.3710   17.7070 N.3    31  LYS31      -0.1314
     51  N        -11.7520   47.2680   24.5900 N.3    34  GLU34      -0.1231
     52  CA       -12.7510   46.2050   24.5270 C.3    34  GLU34       0.1699
     53  C        -12.6740   45.2270   25.6580 C.2    34  GLU34       0.2592
     54  O        -13.5460   44.3950   25.7840 O.2    34  GLU34      -0.2718
     55  CB       -12.5910   45.4440   23.2380 C.3    34  GLU34       0.0402
     56  CG       -13.0020   46.2660   22.0370 C.3    34  GLU34       0.1161
     57  CD       -12.3400   45.8070   20.7590 C.2    34  GLU34       0.3649
     58  OE1      -11.8790   46.6870   20.0010 O.co2  34  GLU34      -0.2457
     59  OE2      -12.2740   44.5800   20.5100 O.co2  34  GLU34      -0.2457
     60  N        -11.6390   45.2630   26.4800 N.am   35  ALA35      -0.1980
     61  CA       -11.5800   44.2320   27.5170 C.3    35  ALA35       0.1597
     62  C        -11.2860   44.7420   28.9010 C.2    35  ALA35       0.2287
     63  O        -10.1080   44.8150   29.2780 O.2    35  ALA35      -0.2864
     64  CB       -10.6020   43.1580   27.1390 C.3    35  ALA35       0.0319
     65  N         -8.4720   43.8760   31.4600 N.3    38  TYR38      -0.1241
     66  CA        -7.6230   42.8110   30.9340 C.3    38  TYR38       0.1605
     67  C         -6.1520   43.0420   31.2740 C.2    38  TYR38       0.2264
     68  O         -5.4780   42.1400   31.7520 O.2    38  TYR38      -0.2867
     69  CB        -7.7450   42.7010   29.4250 C.3    38  TYR38       0.0534
     70  CG        -6.9510   41.5770   28.8450 C.ar   38  TYR38      -0.0201
     71  CD1       -7.5120   40.3220   28.7370 C.ar   38  TYR38      -0.0009
     72  CD2       -5.6530   41.7630   28.3720 C.ar   38  TYR38      -0.0009
     73  CE1       -6.8140   39.2710   28.1690 C.ar   38  TYR38       0.0417
     74  CE2       -4.9390   40.7150   27.8030 C.ar   38  TYR38       0.0417
     75  CZ        -5.5160   39.4650   27.7180 C.ar   38  TYR38       0.1957
     76  OH        -4.8430   38.3990   27.1190 O.3    38  TYR38      -0.2866
     77  N         -5.7230   33.7320   27.5230 N.3    77  CYS77      -0.1235
     78  CA        -7.1060   33.6800   27.0740 C.3    77  CYS77       0.1677
     79  C         -7.9710   32.8420   28.0590 C.2    77  CYS77       0.2270
     80  O         -9.1040   33.2360   28.4230 O.2    77  CYS77      -0.2867
     81  CB        -7.1480   33.0940   25.6890 C.3    77  CYS77       0.0956
     82  SG        -8.7950   32.9370   25.0420 S.3    77  CYS77      -0.0801
     83  N         -8.7090   34.5380   31.4020 N.3    80  TYR80      -0.1227
     84  CA        -9.5570   35.7520   31.3810 C.3    80  TYR80       0.1736
     85  C        -10.9980   35.4610   30.9760 C.2    80  TYR80       0.2595
     86  O        -11.9040   36.0000   31.5210 O.2    80  TYR80      -0.2718
     87  CB        -8.9340   36.8230   30.4390 C.3    80  TYR80       0.0548
     88  CG        -9.6430   38.1520   30.5430 C.ar   80  TYR80      -0.0200
     89  CD1       -9.4050   39.0280   31.6120 C.ar   80  TYR80      -0.0009
     90  CD2      -10.5940   38.5130   29.5870 C.ar   80  TYR80      -0.0009
     91  CE1      -10.0990   40.2350   31.7000 C.ar   80  TYR80       0.0417
     92  CE2      -11.2840   39.7250   29.6660 C.ar   80  TYR80       0.0417
     93  CZ       -11.0390   40.5720   30.7130 C.ar   80  TYR80       0.1957
     94  OH       -11.7300   41.7550   30.7190 O.3    80  TYR80      -0.2866
     95  N        -11.2060   34.6030   30.0080 N.am   81  ASN81      -0.1974
     96  CA       -12.5310   34.4110   29.4460 C.3    81  ASN81       0.1688
     97  C        -13.3250   33.2690   30.1060 C.2    81  ASN81       0.2292
     98  O        -12.7300   32.3300   30.6250 O.2    81  ASN81      -0.2864
     99  CB       -12.3650   34.1700   27.9550 C.3    81  ASN81       0.1181
    100  CG       -11.7590   35.3940   27.2520 C.2    81  ASN81       0.2629
    101  OD1      -12.4390   36.3470   27.0050 O.2    81  ASN81      -0.2716
    102  ND2      -10.4810   35.3700   26.9930 N.am   81  ASN81      -0.0877
    103  N        -13.9640   32.3690   22.7270 N.3    87  TYR87      -0.1241
    104  CA       -12.5180   32.5610   22.7870 C.3    87  TYR87       0.1605
    105  C        -11.8550   31.3690   23.4710 C.2    87  TYR87       0.2264
    106  O        -10.8480   30.8990   22.9910 O.2    87  TYR87      -0.2867
    107  CB       -12.1060   33.8760   23.4730 C.3    87  TYR87       0.0534
    108  CG       -12.5490   35.1870   22.7650 C.ar   87  TYR87      -0.0201
    109  CD1      -12.6700   35.2860   21.3880 C.ar   87  TYR87      -0.0009
    110  CD2      -12.8630   36.3180   23.5290 C.ar   87  TYR87      -0.0009
    111  CE1      -13.1180   36.4880   20.7880 C.ar   87  TYR87       0.0417
    112  CE2      -13.3200   37.4990   22.9660 C.ar   87  TYR87       0.0417
    113  CZ       -13.4480   37.6000   21.5990 C.ar   87  TYR87       0.1957
    114  OH       -13.8750   38.8340   21.0940 O.3    87  TYR87      -0.2866
@<TRIPOS>BOND
     1    27    25   ar
     2    25    26   ar
     3    25    24    1
     4    24    23    1
     5    23    20    1
     6    19    20    1
     7     1     7    1
     8     1     2    1
     9    20    21    1
    10     7     6    1
    11    10    11    2
    12    10     9    1
    13    50    49    1
    14     2     3    1
    15     2     5    1
    16    49    48    1
    17     8     3   am
    18     8     9    1
    19     6     5    1
    20     3     4    2
    21    34    28    1
    22    34    33    1
    23     9    12    1
    24    21    28   am
    25    21    22    2
    26    12    13    1
    27    28    29    1
    28    15    13   ar
    29    15    17   ar
    30    48    47    1
    31    33    32    1
    32    13    14   ar
    33    58    57   ar
    34    17    18   ar
    35    47    46    1
    36    31    30    2
    37    59    57   ar
    38    29    32    1
    39    29    30    1
    40    57    56    1
    41   111   109   ar
    42   111   113   ar
    43    14    16   ar
    44   114   113    1
    45    30    35   am
    46    18    16   ar
    47   109   108   ar
    48   113   112   ar
    49    46    43    1
    50    56    55    1
    51    35    36    1
    52   103   104    1
    53    42    43    1
    54    42    37   am
    55   108   107    1
    56   108   110   ar
    57   104   105    1
    58   104   107    1
    59    43    44    1
    60   112   110   ar
    61    36    37    1
    62    36    39    1
    63   106   105    2
    64    37    38    2
    65    55    52    1
    66    44    45    2
    67    41    39    1
    68    39    40    1
    69    52    51    1
    70    52    53    1
    71    82    81    1
    72    53    54    2
    73    53    60   am
    74    81    78    1
    75    60    61    1
    76   102   100   am
    77   101   100    2
    78    78    77    1
    79    78    79    1
    80    76    75    1
    81    64    61    1
    82   100    99    1
    83    61    62    1
    84    75    74   ar
    85    75    73   ar
    86    74    72   ar
    87    99    96    1
    88    79    80    2
    89    73    71   ar
    90    72    70   ar
    91    71    70   ar
    92    70    69    1
    93    62    63    2
    94    69    66    1
    95    96    95    1
    96    96    97    1
    97    90    92   ar
    98    90    88   ar
    99    92    93   ar
   100    95    85   am
   101    97    98    2
   102    87    88    1
   103    87    84    1
   104    88    89   ar
   105    93    94    1
   106    93    91   ar
   107    66    67    1
   108    66    65    1
   109    85    84    1
   110    85    86    2
   111    67    68    2
   112    84    83    1
   113    89    91   ar
