@<TRIPOS>MOLECULE
tmp/5fe8A00.pdb
 121 120 0 0 0
SMALL
GASTEIGER

@<TRIPOS>ATOM
      1  N         15.1420    0.0520   94.9120 N.3    23  TRP23      -0.1228
      2  CA        13.7420   -0.0470   94.4930 C.3    23  TRP23       0.1722
      3  C         12.7590    0.9830   95.1780 C.2    23  TRP23       0.2437
      4  O         11.8130    1.4330   94.5290 O.2    23  TRP23      -0.2733
      5  CB        13.2110   -1.5040   94.6230 C.3    23  TRP23       0.0563
      6  CG        13.0910   -2.0170   96.0100 C.ar   23  TRP23       0.0003
      7  CD1       13.9930   -2.7850   96.6810 C.ar   23  TRP23       0.0946
      8  CD2       11.9910   -1.8050   96.9260 C.ar   23  TRP23       0.0152
      9  NE1       13.5450   -3.0550   97.9550 N.ar   23  TRP23      -0.2442
     10  CE2       12.3180   -2.4790   98.1320 C.ar   23  TRP23       0.0810
     11  CE3       10.7700   -1.1310   96.8310 C.ar   23  TRP23       0.0012
     12  CZ2       11.4860   -2.4730   99.2460 C.ar   23  TRP23       0.0191
     13  CZ3        9.9440   -1.1150   97.9310 C.ar   23  TRP23       0.0001
     14  CH2       10.3100   -1.7890   99.1430 C.ar   23  TRP23       0.0015
     15  N         13.0220    1.3840   96.4450 N.am   24  PRO24      -0.2718
     16  CA        12.1590    2.4450   97.0560 C.3    24  PRO24       0.1535
     17  C         12.3290    3.8300   96.4560 C.2    24  PRO24       0.2598
     18  O         11.4920    4.7010   96.6930 O.2    24  PRO24      -0.2715
     19  CB        12.6520    2.4880   98.4980 C.3    24  PRO24       0.0310
     20  CG        13.2850    1.1480   98.7340 C.3    24  PRO24       0.0237
     21  CD        14.0130    0.9180   97.4410 C.3    24  PRO24       0.0939
     22  N         13.4070    4.0460   95.7070 N.am   25  PHE25      -0.1974
     23  CA        13.8790    5.3880   95.3270 C.3    25  PHE25       0.1639
     24  C         13.8680    5.6430   93.8260 C.2    25  PHE25       0.2290
     25  O         14.3040    6.7150   93.3590 O.2    25  PHE25      -0.2864
     26  CB        15.3160    5.5660   95.8310 C.3    25  PHE25       0.0560
     27  CG        15.4900    5.1570   97.2590 C.ar   25  PHE25      -0.0200
     28  CD1       14.8010    5.8360   98.2730 C.ar   25  PHE25      -0.0042
     29  CD2       16.2840    4.0710   97.6090 C.ar   25  PHE25      -0.0042
     30  CE1       14.9220    5.4630   99.6010 C.ar   25  PHE25      -0.0003
     31  CE2       16.4150    3.6920   98.9320 C.ar   25  PHE25      -0.0003
     32  CZ        15.7420    4.4130   99.9380 C.ar   25  PHE25      -0.0000
     33  N         11.3990    6.2470   91.6320 N.3    27  GLU27      -0.1245
     34  CA        10.4580    7.2530   91.0880 C.3    27  GLU27       0.1567
     35  C          9.9330    8.1020   92.2290 C.2    27  GLU27       0.2260
     36  O         10.0450    7.6750   93.3750 O.2    27  GLU27      -0.2867
     37  CB         9.2780    6.5310   90.4530 C.3    27  GLU27       0.0388
     38  CG         9.7060    5.5910   89.3560 C.3    27  GLU27       0.1160
     39  CD         8.6050    5.2930   88.3970 C.2    27  GLU27       0.3649
     40  OE1        7.4310    5.1800   88.8410 O.co2  27  GLU27      -0.2457
     41  OE2        8.9390    5.1950   87.2030 O.co2  27  GLU27      -0.2457
     42  N          7.8730    9.4040   95.1270 N.3    29  VAL29      -0.1231
     43  CA         6.9220    8.7310   96.0390 C.3    29  VAL29       0.1692
     44  C          5.4790    9.0570   95.6460 C.2    29  VAL29       0.2591
     45  O          5.1360   10.2080   95.4010 O.2    29  VAL29      -0.2718
     46  CB         7.1940    9.1500   97.5030 C.3    29  VAL29       0.0266
     47  CG1        6.1770    8.5740   98.4540 C.3    29  VAL29       0.0020
     48  CG2        8.6160    8.7310   97.9070 C.3    29  VAL29       0.0020
     49  N          4.6420    8.0360   95.5540 N.am   30  LYS30      -0.1980
     50  CA         3.2410    8.2470   95.1950 C.3    30  LYS30       0.1596
     51  C          2.3970    8.5110   96.4550 C.2    30  LYS30       0.2287
     52  O          2.5650    7.8180   97.4490 O.2    30  LYS30      -0.2864
     53  CB         2.7030    7.0230   94.4630 C.3    30  LYS30       0.0298
     54  CG         3.2980    6.8120   93.0610 C.3    30  LYS30       0.0038
     55  CD         3.4540    5.3300   92.7290 C.3    30  LYS30       0.0206
     56  CE         4.0100    5.0780   91.3250 C.3    30  LYS30       0.1093
     57  NZ         5.4910    5.2900   91.2620 N.3    30  LYS30      -0.1314
     58  N          0.9240    5.5390   97.8500 N.3    33  GLU33      -0.1231
     59  CA         1.9000    4.7760   98.6550 C.3    33  GLU33       0.1699
     60  C          2.2500    5.3910  100.0110 C.2    33  GLU33       0.2592
     61  O          2.6850    4.6850  100.9270 O.2    33  GLU33      -0.2718
     62  CB         3.2290    4.6110   97.8580 C.3    33  GLU33       0.0402
     63  CG         3.1490    3.5210   96.7900 C.3    33  GLU33       0.1161
     64  CD         4.2520    3.5870   95.7380 C.2    33  GLU33       0.3649
     65  OE1        5.1720    4.4480   95.8480 O.co2  33  GLU33      -0.2457
     66  OE2        4.1790    2.7530   94.7780 O.co2  33  GLU33      -0.2457
     67  N          2.1490    6.7090  100.1240 N.am   34  ALA34      -0.1980
     68  CA         2.5560    7.4060  101.3450 C.3    34  ALA34       0.1597
     69  C          1.6860    8.6800  101.5070 C.2    34  ALA34       0.2287
     70  O          2.1560    9.7740  101.2210 O.2    34  ALA34      -0.2864
     71  CB         4.0090    7.7440  101.2260 C.3    34  ALA34       0.0319
     72  N          2.8990   12.3470  102.6400 N.3    37  TYR37      -0.1241
     73  CA         4.3320   12.4280  102.4430 C.3    37  TYR37       0.1605
     74  C          4.7340   13.8420  102.0320 C.2    37  TYR37       0.2264
     75  O          5.6830   14.4080  102.5590 O.2    37  TYR37      -0.2867
     76  CB         4.7720   11.4350  101.3430 C.3    37  TYR37       0.0534
     77  CG         6.2520   11.4180  101.0890 C.ar   37  TYR37      -0.0201
     78  CD1        6.8210   12.2640  100.1590 C.ar   37  TYR37      -0.0009
     79  CD2        7.0710   10.5590  101.7870 C.ar   37  TYR37      -0.0009
     80  CE1        8.1900   12.2340   99.9170 C.ar   37  TYR37       0.0417
     81  CE2        8.4430   10.5210  101.5720 C.ar   37  TYR37       0.0417
     82  CZ         9.0120   11.3590  100.6460 C.ar   37  TYR37       0.1957
     83  OH        10.3780   11.2820  100.4100 O.3    37  TYR37      -0.2866
     84  N         14.2760    9.9040  103.1670 N.3    76  CYS76      -0.1235
     85  CA        13.9040    8.6000  103.6610 C.3    76  CYS76       0.1677
     86  C         14.0830    8.4870  105.1900 C.2    76  CYS76       0.2270
     87  O         13.1730    8.0760  105.9350 O.2    76  CYS76      -0.2867
     88  CB        14.6850    7.5390  102.8970 C.3    76  CYS76       0.0956
     89  SG        14.2490    5.8650  103.3770 S.3    76  CYS76      -0.0801
     90  N         11.5390   10.6400  107.1380 N.3    79  TYR79      -0.1227
     91  CA        10.1620   10.1800  107.0310 C.3    79  TYR79       0.1736
     92  C          9.8980    8.8880  107.7810 C.2    79  TYR79       0.2595
     93  O          8.8120    8.7160  108.3380 O.2    79  TYR79      -0.2718
     94  CB         9.7530   10.0150  105.5610 C.3    79  TYR79       0.0548
     95  CG         8.2640    9.8500  105.3950 C.ar   79  TYR79      -0.0200
     96  CD1        7.3970   10.9480  105.5570 C.ar   79  TYR79      -0.0009
     97  CD2        7.7050    8.5950  105.1340 C.ar   79  TYR79      -0.0009
     98  CE1        6.0250   10.8010  105.3960 C.ar   79  TYR79       0.0417
     99  CE2        6.3120    8.4320  104.9890 C.ar   79  TYR79       0.0417
    100  CZ         5.4950    9.5330  105.1030 C.ar   79  TYR79       0.1957
    101  OH         4.1470    9.4100  104.9510 O.3    79  TYR79      -0.2866
    102  N         10.8590    7.9680  107.7430 N.am   80  ASN80      -0.1974
    103  CA        10.6630    6.5880  108.1790 C.3    80  ASN80       0.1688
    104  C         11.3970    6.2340  109.4670 C.2    80  ASN80       0.2292
    105  O         12.4710    6.7610  109.7010 O.2    80  ASN80      -0.2864
    106  CB        11.1280    5.6420  107.0890 C.3    80  ASN80       0.1181
    107  CG        10.3590    5.8230  105.8150 C.2    80  ASN80       0.2629
    108  OD1        9.2340    5.3660  105.7100 O.2    80  ASN80      -0.2716
    109  ND2       10.9510    6.5020  104.8430 N.am   80  ASN80      -0.0877
    110  N         12.5550    0.6430  104.3130 N.3    86  TYR86      -0.1241
    111  CA        12.9890    1.8120  103.5270 C.3    86  TYR86       0.1605
    112  C         14.2790    2.4320  104.0900 C.2    86  TYR86       0.2264
    113  O         15.2000    2.6900  103.3380 O.2    86  TYR86      -0.2867
    114  CB        11.9120    2.8900  103.4380 C.3    86  TYR86       0.0534
    115  CG        10.6210    2.4160  102.8750 C.ar   86  TYR86      -0.0201
    116  CD1       10.5320    1.8080  101.6210 C.ar   86  TYR86      -0.0009
    117  CD2        9.4740    2.5280  103.6270 C.ar   86  TYR86      -0.0009
    118  CE1        9.2980    1.3730  101.1400 C.ar   86  TYR86       0.0417
    119  CE2        8.2660    2.0970  103.1740 C.ar   86  TYR86       0.0417
    120  CZ         8.1790    1.5140  101.9430 C.ar   86  TYR86       0.1957
    121  OH         6.9320    1.1140  101.5510 O.3    86  TYR86      -0.2866
@<TRIPOS>BOND
     1    41    39   ar
     2    39    40   ar
     3    39    38    1
     4    38    37    1
     5    37    34    1
     6    34    33    1
     7    34    35    1
     8    57    56    1
     9    56    55    1
    10    35    36    2
    11    55    54    1
    12    54    53    1
    13    25    24    2
    14    24    23    1
    15    53    50    1
    16     2     5    1
    17     2     1    1
    18     2     3    1
    19     4     3    2
    20     5     6    1
    21    66    64   ar
    22    42    43    1
    23     3    15   am
    24    50    49    1
    25    50    51    1
    26    23    22    1
    27    23    26    1
    28    45    44    2
    29    49    44   am
    30    44    43    1
    31    22    17   am
    32    64    65   ar
    33    64    63    1
    34    26    27    1
    35     6     7   ar
    36     6     8   ar
    37    43    46    1
    38    15    16    1
    39    15    21    1
    40    51    52    2
    41    17    18    2
    42    17    16    1
    43     7     9   ar
    44    63    62    1
    45    11     8   ar
    46    11    13   ar
    47     8    10   ar
    48    16    19    1
    49    27    29   ar
    50    27    28   ar
    51    21    20    1
    52    46    48    1
    53    46    47    1
    54    29    31   ar
    55    58    59    1
    56    62    59    1
    57    13    14   ar
    58     9    10   ar
    59    10    12   ar
    60    28    30   ar
    61    19    20    1
    62    59    60    1
    63    31    32   ar
    64    14    12   ar
    65    30    32   ar
    66    80    78   ar
    67    80    82   ar
    68    60    67   am
    69    60    61    2
    70    67    68    1
    71    78    77   ar
    72    83    82    1
    73    82    81   ar
    74    77    76    1
    75    77    79   ar
    76   118   116   ar
    77   118   120   ar
    78    70    69    2
    79    71    68    1
    80    76    73    1
    81    68    69    1
    82   121   120    1
    83    81    79   ar
    84   116   115   ar
    85   120   119   ar
    86    74    73    1
    87    74    75    2
    88    73    72    1
    89   115   114    1
    90   115   117   ar
    91    88    89    1
    92    88    85    1
    93    84    85    1
    94   119   117   ar
    95   113   112    2
    96   114   111    1
    97   111   112    1
    98   111   110    1
    99    85    86    1
   100   109   107   am
   101   101   100    1
   102    99   100   ar
   103    99    97   ar
   104   100    98   ar
   105    97    95   ar
   106    86    87    2
   107    95    96   ar
   108    95    94    1
   109    98    96   ar
   110    94    91    1
   111   108   107    2
   112   107   106    1
   113    91    90    1
   114    91    92    1
   115   106   103    1
   116   102    92   am
   117   102   103    1
   118    92    93    2
   119   103   104    1
   120   104   105    2
