@<TRIPOS>MOLECULE
tmp/5fe9A00.pdb
 128 129 0 0 0
SMALL
GASTEIGER

@<TRIPOS>ATOM
      1  N         -8.1340   24.5910   86.7120 N.3    24  TRP24      -0.1228
      2  CA        -8.6120   23.2030   86.9450 C.3    24  TRP24       0.1722
      3  C         -8.6780   22.3200   85.6850 C.2    24  TRP24       0.2437
      4  O         -8.3910   21.1600   85.7590 O.2    24  TRP24      -0.2733
      5  CB        -9.9430   23.1900   87.7250 C.3    24  TRP24       0.0563
      6  CG       -11.0920   23.8290   86.9710 C.ar   24  TRP24       0.0003
      7  CD1      -11.5040   25.1260   87.0520 C.ar   24  TRP24       0.0946
      8  CD2      -11.9240   23.2060   86.0050 C.ar   24  TRP24       0.0152
      9  NE1      -12.5420   25.3460   86.2010 N.ar   24  TRP24      -0.2442
     10  CE2      -12.8150   24.1820   85.5330 C.ar   24  TRP24       0.0810
     11  CE3      -11.9840   21.9230   85.4650 C.ar   24  TRP24       0.0012
     12  CZ2      -13.7700   23.9070   84.5550 C.ar   24  TRP24       0.0191
     13  CZ3      -12.9200   21.6530   84.4980 C.ar   24  TRP24       0.0001
     14  CH2      -13.8170   22.6290   84.0660 C.ar   24  TRP24       0.0015
     15  N         -8.9820   22.8870   84.5000 N.am   25  PRO25      -0.2718
     16  CA        -8.9130   21.9950   83.3220 C.3    25  PRO25       0.1535
     17  C         -7.5170   21.5420   82.9080 C.2    25  PRO25       0.2598
     18  O         -7.3920   20.6040   82.1190 O.2    25  PRO25      -0.2715
     19  CB        -9.4620   22.8750   82.1860 C.3    25  PRO25       0.0310
     20  CG       -10.1290   24.0170   82.8530 C.3    25  PRO25       0.0237
     21  CD        -9.3480   24.2590   84.0910 C.3    25  PRO25       0.0939
     22  N         -6.4810   22.2160   83.3990 N.am   26  PHE26      -0.1974
     23  CA        -5.1450   22.0330   82.8810 C.3    26  PHE26       0.1639
     24  C         -4.1770   21.3740   83.8650 C.2    26  PHE26       0.2290
     25  O         -2.9710   21.4110   83.6250 O.2    26  PHE26      -0.2864
     26  CB        -4.5930   23.4100   82.4600 C.3    26  PHE26       0.0560
     27  CG        -5.5470   24.2000   81.6130 C.ar   26  PHE26      -0.0200
     28  CD1       -5.8820   23.7520   80.3510 C.ar   26  PHE26      -0.0042
     29  CD2       -6.1540   25.3470   82.1000 C.ar   26  PHE26      -0.0042
     30  CE1       -6.7900   24.4300   79.5830 C.ar   26  PHE26      -0.0003
     31  CE2       -7.0600   26.0420   81.3330 C.ar   26  PHE26      -0.0003
     32  CZ        -7.3790   25.5860   80.0670 C.ar   26  PHE26      -0.0000
     33  N         -3.8470   18.1240   84.9000 N.3    28  GLU28      -0.1231
     34  CA        -3.2420   16.8640   84.4620 C.3    28  GLU28       0.1684
     35  C         -3.4970   16.5900   82.9640 C.2    28  GLU28       0.2434
     36  O         -4.3110   17.2620   82.3600 O.2    28  GLU28      -0.2733
     37  CB        -3.6590   15.6900   85.3820 C.3    28  GLU28       0.0402
     38  CG        -5.0840   15.1900   85.3060 C.3    28  GLU28       0.1161
     39  CD        -5.2420   13.9290   86.1570 C.2    28  GLU28       0.3649
     40  OE1       -6.2000   13.8470   86.9510 O.co2  28  GLU28      -0.2457
     41  OE2       -4.3790   13.0300   86.0640 O.co2  28  GLU28      -0.2457
     42  N         -2.7350   15.6460   82.3500 N.am   29  PRO29      -0.2718
     43  CA        -2.9230   15.2830   80.9290 C.3    29  PRO29       0.1535
     44  C         -4.3700   14.9700   80.5430 C.2    29  PRO29       0.2598
     45  O         -5.0870   14.3270   81.3170 O.2    29  PRO29      -0.2715
     46  CB        -2.0740   14.0230   80.7800 C.3    29  PRO29       0.0310
     47  CG        -0.9790   14.1880   81.7710 C.3    29  PRO29       0.0237
     48  CD        -1.5740   14.9300   82.9340 C.3    29  PRO29       0.0939
     49  N         -4.7830   15.4290   79.3580 N.am   30  VAL30      -0.1964
     50  CA        -6.0980   15.0800   78.8040 C.3    30  VAL30       0.1727
     51  C         -6.1890   13.5650   78.6790 C.2    30  VAL30       0.2616
     52  O         -5.2580   12.9320   78.1830 O.2    30  VAL30      -0.2715
     53  CB        -6.3730   15.7430   77.4140 C.3    30  VAL30       0.0290
     54  CG1       -7.7040   15.2620   76.8240 C.3    30  VAL30       0.0023
     55  CG2       -6.3960   17.2550   77.5430 C.3    30  VAL30       0.0023
     56  N         -7.3020   12.9890   79.1340 N.am   31  LYS31      -0.1977
     57  CA        -7.5150   11.5460   79.0110 C.3    31  LYS31       0.1596
     58  C         -8.2060   11.2460   77.6790 C.2    31  LYS31       0.2287
     59  O         -9.1960   11.9140   77.3160 O.2    31  LYS31      -0.2864
     60  CB        -8.3570   11.0250   80.1590 C.3    31  LYS31       0.0298
     61  CG        -7.8840   11.4540   81.5400 C.3    31  LYS31       0.0038
     62  CD        -8.8220   10.9540   82.6370 C.3    31  LYS31       0.0206
     63  CE        -8.1370   11.1070   84.0250 C.3    31  LYS31       0.1093
     64  NZ        -8.4020   12.4540   84.5790 N.3    31  LYS31      -0.1314
     65  N        -11.8750   10.6980   77.8880 N.3    34  GLU34      -0.1231
     66  CA       -12.6670   11.9260   78.0660 C.3    34  GLU34       0.1699
     67  C        -12.6660   12.8780   76.8490 C.2    34  GLU34       0.2592
     68  O        -13.4220   13.8520   76.8480 O.2    34  GLU34      -0.2718
     69  CB       -12.2080   12.6650   79.3360 C.3    34  GLU34       0.0402
     70  CG       -12.1780   11.7720   80.5880 C.3    34  GLU34       0.1161
     71  CD       -12.4580   12.5120   81.8910 C.2    34  GLU34       0.3649
     72  OE1      -13.1290   11.9280   82.7860 O.co2  34  GLU34      -0.2457
     73  OE2      -12.0060   13.6630   82.0310 O.co2  34  GLU34      -0.2457
     74  N        -11.8320   12.6270   75.8280 N.am   35  ALA35      -0.1980
     75  CA       -11.8060   13.5270   74.6330 C.3    35  ALA35       0.1597
     76  C        -11.5310   12.8770   73.2870 C.2    35  ALA35       0.2287
     77  O        -10.3620   12.7580   72.9020 O.2    35  ALA35      -0.2864
     78  CB       -10.8090   14.6530   74.8530 C.3    35  ALA35       0.0319
     79  N         -8.7910   13.6400   70.3170 N.3    38  TYR38      -0.1241
     80  CA        -7.9640   14.7450   70.8260 C.3    38  TYR38       0.1605
     81  C         -6.5160   14.5840   70.3730 C.2    38  TYR38       0.2264
     82  O         -5.8990   15.5370   69.9120 O.2    38  TYR38      -0.2867
     83  CB        -8.0040   14.8350   72.3620 C.3    38  TYR38       0.0534
     84  CG        -7.2120   16.0060   72.9470 C.ar   38  TYR38      -0.0201
     85  CD1       -5.8480   15.8920   73.2350 C.ar   38  TYR38      -0.0009
     86  CD2       -7.8370   17.2270   73.2340 C.ar   38  TYR38      -0.0009
     87  CE1       -5.1390   16.9580   73.7840 C.ar   38  TYR38       0.0417
     88  CE2       -7.1300   18.2990   73.7790 C.ar   38  TYR38       0.0417
     89  CZ        -5.7890   18.1680   74.0640 C.ar   38  TYR38       0.1957
     90  OH        -5.0930   19.2440   74.5960 O.3    38  TYR38      -0.2866
     91  N         -5.8220   23.9970   74.0250 N.3    77  CYS77      -0.1235
     92  CA        -7.1850   24.1350   74.4920 C.3    77  CYS77       0.1677
     93  C         -8.0420   24.9550   73.5240 C.2    77  CYS77       0.2270
     94  O         -9.1850   24.5810   73.2300 O.2    77  CYS77      -0.2867
     95  CB        -7.1740   24.7940   75.8690 C.3    77  CYS77       0.0956
     96  SG        -8.8170   25.0070   76.5590 S.3    77  CYS77      -0.0801
     97  N         -8.7470   23.0130   70.1570 N.3    80  TYR80      -0.1227
     98  CA        -9.6240   21.8610   70.3010 C.3    80  TYR80       0.1736
     99  C        -11.0540   22.2300   70.6700 C.2    80  TYR80       0.2595
    100  O        -11.9830   21.6740   70.1360 O.2    80  TYR80      -0.2718
    101  CB        -9.0710   20.9070   71.3330 C.3    80  TYR80       0.0548
    102  CG        -9.8290   19.6110   71.3600 C.ar   80  TYR80      -0.0200
    103  CD1       -9.6860   18.6870   70.3160 C.ar   80  TYR80      -0.0009
    104  CD2      -10.7320   19.3080   72.4060 C.ar   80  TYR80      -0.0009
    105  CE1      -10.4200   17.5040   70.3070 C.ar   80  TYR80       0.0417
    106  CE2      -11.4610   18.1290   72.4040 C.ar   80  TYR80       0.0417
    107  CZ       -11.2990   17.2270   71.3570 C.ar   80  TYR80       0.1957
    108  OH       -11.9810   16.0360   71.3800 O.3    80  TYR80      -0.2866
    109  N        -11.2270   23.1790   71.5750 N.am   81  ASN81      -0.1974
    110  CA       -12.5600   23.4850   72.1070 C.3    81  ASN81       0.1688
    111  C        -13.3040   24.6490   71.4110 C.2    81  ASN81       0.2292
    112  O        -12.6690   25.6000   70.9370 O.2    81  ASN81      -0.2864
    113  CB       -12.4340   23.7960   73.5770 C.3    81  ASN81       0.1181
    114  CG       -11.9480   22.5960   74.3770 C.2    81  ASN81       0.2629
    115  OD1      -12.7170   21.7010   74.6830 O.2    81  ASN81      -0.2716
    116  ND2      -10.6800   22.5940   74.7280 N.am   81  ASN81      -0.0877
    117  N        -13.9420   25.5680   78.8940 N.3    87  TYR87      -0.1241
    118  CA       -12.4970   25.2970   78.7530 C.3    87  TYR87       0.1605
    119  C        -11.7840   26.4440   78.0530 C.2    87  TYR87       0.2264
    120  O        -10.7150   26.8560   78.5020 O.2    87  TYR87      -0.2867
    121  CB       -12.2230   23.9800   78.0140 C.3    87  TYR87       0.0534
    122  CG       -12.7090   22.7510   78.7500 C.ar   87  TYR87      -0.0201
    123  CD1      -12.3890   22.5340   80.0750 C.ar   87  TYR87      -0.0009
    124  CD2      -13.4830   21.7940   78.1050 C.ar   87  TYR87      -0.0009
    125  CE1      -12.8220   21.3990   80.7440 C.ar   87  TYR87       0.0417
    126  CE2      -13.9230   20.6580   78.7650 C.ar   87  TYR87       0.0417
    127  CZ       -13.5820   20.4690   80.0800 C.ar   87  TYR87       0.1957
    128  OH       -14.0200   19.3560   80.7320 O.3    87  TYR87      -0.2866
@<TRIPOS>BOND
     1    82    81    2
     2   100    99    2
     3    97    98    1
     4    98    99    1
     5    98   101    1
     6   105   103   ar
     7   105   107   ar
     8   103   102   ar
     9    79    80    1
    10    81    80    1
    11    99   109   am
    12    80    83    1
    13   112   111    2
    14   101   102    1
    15   107   108    1
    16   107   106   ar
    17   102   104   ar
    18   111   110    1
    19   109   110    1
    20   110   113    1
    21    83    84    1
    22   106   104   ar
    23    77    76    2
    24    84    86   ar
    25    84    85   ar
    26    94    93    2
    27    86    88   ar
    28    85    87   ar
    29    76    75    1
    30    93    92    1
    31   113   114    1
    32    88    89   ar
    33    87    89   ar
    34    91    92    1
    35    89    90    1
    36   114   115    2
    37   114   116   am
    38    92    95    1
    39    75    78    1
    40    75    74    1
    41    74    67   am
    42    95    96    1
    43    54    53    1
    44    68    67    2
    45    67    66    1
    46    59    58    2
    47    53    55    1
    48    53    50    1
    49    58    57    1
    50    65    66    1
    51   121   122    1
    52   121   118    1
    53   119   120    2
    54   119   118    1
    55    66    69    1
    56   124   122   ar
    57   124   126   ar
    58    52    51    2
    59    51    50    1
    60    51    56   am
    61   122   123   ar
    62   118   117    1
    63   126   127   ar
    64    50    49    1
    65    57    56    1
    66    57    60    1
    67    69    70    1
    68    49    44   am
    69    30    32   ar
    70    30    28   ar
    71    32    31   ar
    72   123   125   ar
    73   127   128    1
    74   127   125   ar
    75    60    61    1
    76    28    27   ar
    77    44    43    1
    78    44    45    2
    79    70    71    1
    80    46    43    1
    81    46    47    1
    82    43    42    1
    83    31    29   ar
    84    61    62    1
    85    27    29   ar
    86    27    26    1
    87    47    48    1
    88    71    73   ar
    89    71    72   ar
    90    18    17    2
    91    19    20    1
    92    19    16    1
    93    42    48    1
    94    42    35   am
    95    36    35    2
    96    26    23    1
    97    62    63    1
    98    20    21    1
    99    23    22    1
   100    23    24    1
   101    17    16    1
   102    17    22   am
   103    35    34    1
   104    16    15    1
   105    25    24    2
   106    63    64    1
   107    14    13   ar
   108    14    12   ar
   109    21    15    1
   110    34    33    1
   111    34    37    1
   112    13    11   ar
   113    15     3   am
   114    12    10   ar
   115    38    37    1
   116    38    39    1
   117    11     8   ar
   118    10     8   ar
   119    10     9   ar
   120     3     4    2
   121     3     2    1
   122     8     6   ar
   123    41    39   ar
   124    39    40   ar
   125     9     7   ar
   126     1     2    1
   127     2     5    1
   128     6     7   ar
   129     6     5    1
