@<TRIPOS>MOLECULE
tmp/5feaA00.pdb
 107 108 0 0 0
SMALL
GASTEIGER

@<TRIPOS>ATOM
      1  N         -5.4830  -33.1240    9.7990 N.3    40  VAL40      -0.1231
      2  CA        -5.8300  -34.1670   10.7910 C.3    40  VAL40       0.1692
      3  C         -5.2360  -33.8870   12.1530 C.2    40  VAL40       0.2592
      4  O         -5.9030  -34.0340   13.1660 O.2    40  VAL40      -0.2718
      5  CB        -5.3770  -35.5990   10.3010 C.3    40  VAL40       0.0266
      6  CG1       -5.0720  -36.6020   11.4120 C.3    40  VAL40       0.0020
      7  CG2       -6.4010  -36.2170    9.3610 C.3    40  VAL40       0.0020
      8  N         -3.9970  -33.4220   12.1570 N.am   41  TRP41      -0.1962
      9  CA        -3.2380  -33.2480   13.3770 C.3    41  TRP41       0.1771
     10  C         -3.7230  -32.0930   14.2250 C.2    41  TRP41       0.2620
     11  O         -3.3800  -32.0140   15.4150 O.2    41  TRP41      -0.2715
     12  CB        -1.7670  -33.0020   13.0380 C.3    41  TRP41       0.0590
     13  CG        -1.2060  -34.0320   12.1150 C.ar   41  TRP41       0.0006
     14  CD1       -0.9680  -33.8990   10.7880 C.ar   41  TRP41       0.0946
     15  CD2       -0.8440  -35.3650   12.4560 C.ar   41  TRP41       0.0152
     16  NE1       -0.4580  -35.0610   10.2760 N.ar   41  TRP41      -0.2442
     17  CE2       -0.3720  -35.9830   11.2830 C.ar   41  TRP41       0.0810
     18  CE3       -0.8640  -36.0940   13.6400 C.ar   41  TRP41       0.0012
     19  CZ2        0.0760  -37.3030   11.2610 C.ar   41  TRP41       0.0191
     20  CZ3       -0.4210  -37.3990   13.6230 C.ar   41  TRP41       0.0001
     21  CH2        0.0400  -37.9920   12.4420 C.ar   41  TRP41       0.0015
     22  N         -4.4660  -31.1720   13.6070 N.am   42  PHE42      -0.1960
     23  CA        -4.7510  -29.8780   14.1970 C.3    42  PHE42       0.1771
     24  C         -6.2270  -29.5840   14.3390 C.2    42  PHE42       0.2619
     25  O         -6.5920  -28.4590   14.6970 O.2    42  PHE42      -0.2715
     26  CB        -4.1190  -28.8000   13.3290 C.3    42  PHE42       0.0574
     27  CG        -2.6950  -29.0910   12.9390 C.ar   42  PHE42      -0.0200
     28  CD1       -1.6680  -29.0140   13.8830 C.ar   42  PHE42      -0.0042
     29  CD2       -2.3740  -29.4260   11.6240 C.ar   42  PHE42      -0.0042
     30  CE1       -0.3460  -29.2670   13.5240 C.ar   42  PHE42      -0.0003
     31  CE2       -1.0520  -29.6680   11.2620 C.ar   42  PHE42      -0.0003
     32  CZ        -0.0370  -29.5930   12.2120 C.ar   42  PHE42      -0.0000
     33  N         -7.0640  -30.5820   14.0600 N.am   43  ARG43      -0.1963
     34  CA        -8.5080  -30.4050   14.0230 C.3    43  ARG43       0.1729
     35  C         -9.0800  -30.1750   15.4000 C.2    43  ARG43       0.2616
     36  O         -9.7410  -29.1830   15.6560 O.2    43  ARG43      -0.2715
     37  CB        -9.1750  -31.6270   13.4020 C.3    43  ARG43       0.0348
     38  CG        -9.0250  -31.6520   11.9070 C.3    43  ARG43       0.0492
     39  CD        -9.3970  -32.9870   11.3030 C.3    43  ARG43       0.2205
     40  NE        -9.0300  -33.0040    9.8930 N.pl3  43  ARG43      -0.0865
     41  CZ        -9.1350  -34.0570    9.0860 C.cat  43  ARG43       0.5346
     42  NH1       -9.5850  -35.2260    9.5320 N.pl3  43  ARG43       0.1354
     43  NH2       -8.7740  -33.9390    7.8120 N.pl3  43  ARG43       0.1354
     44  N         -8.7960  -31.1040   16.2890 N.am   44  GLU44      -0.1964
     45  CA        -9.4050  -31.1090   17.5970 C.3    44  GLU44       0.1718
     46  C         -8.3910  -30.7530   18.6960 C.2    44  GLU44       0.2458
     47  O         -7.1870  -30.7990   18.4830 O.2    44  GLU44      -0.2730
     48  CB       -10.0140  -32.4860   17.8470 C.3    44  GLU44       0.0428
     49  CG       -10.9610  -33.0130   16.7680 C.3    44  GLU44       0.1163
     50  CD       -12.1640  -32.1030   16.4850 C.2    44  GLU44       0.3649
     51  OE1      -12.5280  -31.2680   17.3400 O.co2  44  GLU44      -0.2457
     52  OE2      -12.7700  -32.2460   15.3990 O.co2  44  GLU44      -0.2457
     53  N         -8.8840  -30.4050   19.8900 N.am   45  PRO45      -0.2716
     54  CA        -7.9710  -30.2480   21.0240 C.3    45  PRO45       0.1536
     55  C         -7.2150  -31.5430   21.3430 C.2    45  PRO45       0.2598
     56  O         -7.7450  -32.6430   21.1500 O.2    45  PRO45      -0.2715
     57  CB        -8.9100  -29.8800   22.1740 C.3    45  PRO45       0.0310
     58  CG       -10.1380  -29.3440   21.5260 C.3    45  PRO45       0.0237
     59  CD       -10.2800  -30.0980   20.2480 C.3    45  PRO45       0.0939
     60  N         -5.9910  -31.4130   21.8350 N.am   46  VAL46      -0.1978
     61  CA        -5.1280  -32.5780   22.0580 C.3    46  VAL46       0.1596
     62  C         -5.7550  -33.6090   23.0010 C.2    46  VAL46       0.2287
     63  O         -5.6130  -34.8180   22.7800 O.2    46  VAL46      -0.2864
     64  CB        -3.7270  -32.1340   22.5460 C.3    46  VAL46       0.0276
     65  CG1       -2.9380  -33.2840   23.1440 C.3    46  VAL46       0.0022
     66  CG2       -2.9520  -31.5140   21.3900 C.3    46  VAL46       0.0022
     67  N         -8.6830  -34.6050   23.1390 N.3    48  ALA48      -0.1231
     68  CA        -9.5960  -35.4710   22.4110 C.3    48  ALA48       0.1694
     69  C         -8.9290  -36.7230   21.8350 C.2    48  ALA48       0.2591
     70  O         -9.6210  -37.6250   21.3840 O.2    48  ALA48      -0.2718
     71  CB       -10.3100  -34.6960   21.3290 C.3    48  ALA48       0.0304
     72  N         -7.6050  -36.8060   21.8650 N.am   49  LEU49      -0.1980
     73  CA        -6.9330  -38.0540   21.5330 C.3    49  LEU49       0.1596
     74  C         -7.3530  -39.2580   22.3420 C.2    49  LEU49       0.2287
     75  O         -7.3710  -40.3630   21.8140 O.2    49  LEU49      -0.2864
     76  CB        -5.4310  -37.8930   21.6700 C.3    49  LEU49       0.0297
     77  CG        -4.7270  -37.0330   20.6360 C.3    49  LEU49       0.0022
     78  CD1       -3.2680  -36.8670   21.0050 C.3    49  LEU49       0.0001
     79  CD2       -4.8710  -37.6490   19.2680 C.3    49  LEU49       0.0001
     80  N        -10.2580  -40.6090   20.6180 N.3    52  GLU52      -0.1245
     81  CA        -9.8660  -41.2360   19.3610 C.3    52  GLU52       0.1567
     82  C         -9.1840  -42.5870   19.5590 C.2    52  GLU52       0.2260
     83  O         -9.4280  -43.5180   18.7940 O.2    52  GLU52      -0.2867
     84  CB        -8.9550  -40.3350   18.5090 C.3    52  GLU52       0.0388
     85  CG        -9.6810  -39.2690   17.6880 C.3    52  GLU52       0.1160
     86  CD       -10.7120  -39.8400   16.7050 C.2    52  GLU52       0.3649
     87  OE1      -10.3260  -40.3250   15.6120 O.co2  52  GLU52      -0.2457
     88  OE2      -11.9230  -39.7930   17.0400 O.co2  52  GLU52      -0.2457
     89  N         -8.3080  -47.2280    9.4740 N.3    99  PHE99      -0.1227
     90  CA        -8.5760  -46.1700   10.4510 C.3    99  PHE99       0.1736
     91  C         -8.2800  -44.7640    9.9400 C.2    99  PHE99       0.2595
     92  O         -9.0180  -43.8270   10.2670 O.2    99  PHE99      -0.2718
     93  CB        -7.7510  -46.3960   11.7130 C.3    99  PHE99       0.0547
     94  CG        -8.0870  -45.4430   12.8140 C.ar   99  PHE99      -0.0202
     95  CD1       -9.3130  -45.5420   13.4730 C.ar   99  PHE99      -0.0042
     96  CD2       -7.2120  -44.4170   13.1670 C.ar   99  PHE99      -0.0042
     97  CE1       -9.6630  -44.6440   14.4660 C.ar   99  PHE99      -0.0003
     98  CE2       -7.5580  -43.5150   14.1640 C.ar   99  PHE99      -0.0003
     99  CZ        -8.7830  -43.6280   14.8100 C.ar   99  PHE99      -0.0000
    100  N         -7.2030  -44.6230    9.1570 N.am  100  ASN100     -0.1974
    101  CA        -6.7170  -43.3190    8.7050 C.3   100  ASN100      0.1688
    102  C         -7.1270  -42.9490    7.2800 C.2   100  ASN100      0.2292
    103  O         -7.0270  -41.7820    6.9170 O.2   100  ASN100     -0.2864
    104  CB        -5.1960  -43.2390    8.8240 C.3   100  ASN100      0.1181
    105  CG        -4.7240  -43.2700   10.2640 C.2   100  ASN100      0.2629
    106  OD1       -4.8580  -42.2760   10.9770 O.2   100  ASN100     -0.2716
    107  ND2       -4.1460  -44.3930   10.6950 N.am  100  ASN100     -0.0877
@<TRIPOS>BOND
     1   103   102    2
     2   102   101    1
     3    43    41    1
     4   101   104    1
     5   101   100    1
     6   104   105    1
     7    41    42    1
     8    41    40    2
     9   100    91   am
    10     7     5    1
    11    89    90    1
    12     1     2    1
    13    40    39    1
    14    91    92    2
    15    91    90    1
    16   105   107   am
    17   105   106    2
    18    16    14   ar
    19    16    17   ar
    20     5     2    1
    21     5     6    1
    22    90    93    1
    23    14    13   ar
    24     2     3    1
    25    19    17   ar
    26    19    21   ar
    27    31    29   ar
    28    31    32   ar
    29    17    15   ar
    30    39    38    1
    31    29    27   ar
    32    93    94    1
    33    38    37    1
    34    13    15   ar
    35    13    12    1
    36     3     8   am
    37     3     4    2
    38     8     9    1
    39    32    30   ar
    40    21    20   ar
    41    15    18   ar
    42    94    96   ar
    43    94    95   ar
    44    27    26    1
    45    27    28   ar
    46    12     9    1
    47    96    98   ar
    48    26    23    1
    49     9    10    1
    50    37    34    1
    51    95    97   ar
    52    30    28   ar
    53    22    23    1
    54    22    10   am
    55    20    18   ar
    56    34    33    1
    57    34    35    1
    58    33    24   am
    59    98    99   ar
    60    23    24    1
    61    10    11    2
    62    24    25    2
    63    97    99   ar
    64    52    50   ar
    65    35    36    2
    66    35    44   am
    67    87    86   ar
    68    44    45    1
    69    50    49    1
    70    50    51   ar
    71    86    88   ar
    72    86    85    1
    73    49    48    1
    74    45    48    1
    75    45    46    1
    76    85    84    1
    77    47    46    2
    78    84    81    1
    79    46    53   am
    80    83    82    2
    81    79    77    1
    82    81    82    1
    83    81    80    1
    84    53    59    1
    85    53    54    1
    86    59    58    1
    87    77    78    1
    88    77    76    1
    89    54    55    1
    90    54    57    1
    91    56    55    2
    92    71    68    1
    93    55    60   am
    94    70    69    2
    95    66    64    1
    96    58    57    1
    97    73    76    1
    98    73    72    1
    99    73    74    1
   100    75    74    2
   101    60    61    1
   102    69    72   am
   103    69    68    1
   104    61    64    1
   105    61    62    1
   106    68    67    1
   107    64    65    1
   108    63    62    2
