@<TRIPOS>MOLECULE
tmp/5feaA01.pdb
 91 87 0 0 0
SMALL
GASTEIGER

@<TRIPOS>ATOM
      1  N         -3.9970  -33.4220   12.1570 N.3    41  TRP41      -0.1241
      2  CA        -3.2380  -33.2480   13.3770 C.3    41  TRP41       0.1605
      3  C         -3.7230  -32.0930   14.2250 C.2    41  TRP41       0.2264
      4  O         -3.3800  -32.0140   15.4150 O.2    41  TRP41      -0.2867
      5  CB        -1.7670  -33.0020   13.0380 C.3    41  TRP41       0.0550
      6  CG        -1.2060  -34.0320   12.1150 C.ar   41  TRP41       0.0003
      7  CD1       -0.9680  -33.8990   10.7880 C.ar   41  TRP41       0.0946
      8  CD2       -0.8440  -35.3650   12.4560 C.ar   41  TRP41       0.0152
      9  NE1       -0.4580  -35.0610   10.2760 N.ar   41  TRP41      -0.2442
     10  CE2       -0.3720  -35.9830   11.2830 C.ar   41  TRP41       0.0810
     11  CE3       -0.8640  -36.0940   13.6400 C.ar   41  TRP41       0.0012
     12  CZ2        0.0760  -37.3030   11.2610 C.ar   41  TRP41       0.0191
     13  CZ3       -0.4210  -37.3990   13.6230 C.ar   41  TRP41       0.0001
     14  CH2        0.0400  -37.9920   12.4420 C.ar   41  TRP41       0.0015
     15  N         -5.9910  -31.4130   21.8350 N.3    46  VAL46      -0.1245
     16  CA        -5.1280  -32.5780   22.0580 C.3    46  VAL46       0.1561
     17  C         -5.7550  -33.6090   23.0010 C.2    46  VAL46       0.2260
     18  O         -5.6130  -34.8180   22.7800 O.2    46  VAL46      -0.2867
     19  CB        -3.7270  -32.1340   22.5460 C.3    46  VAL46       0.0252
     20  CG1       -2.9380  -33.2840   23.1440 C.3    46  VAL46       0.0019
     21  CG2       -2.9520  -31.5140   21.3900 C.3    46  VAL46       0.0019
     22  N         -7.6050  -36.8060   21.8650 N.3    49  LEU49      -0.1245
     23  CA        -6.9330  -38.0540   21.5330 C.3    49  LEU49       0.1561
     24  C         -7.3530  -39.2580   22.3420 C.2    49  LEU49       0.2260
     25  O         -7.3710  -40.3630   21.8140 O.2    49  LEU49      -0.2867
     26  CB        -5.4310  -37.8930   21.6700 C.3    49  LEU49       0.0270
     27  CG        -4.7270  -37.0330   20.6360 C.3    49  LEU49       0.0019
     28  CD1       -3.2680  -36.8670   21.0050 C.3    49  LEU49       0.0001
     29  CD2       -4.8710  -37.6490   19.2680 C.3    49  LEU49       0.0001
     30  N        -10.2580  -40.6090   20.6180 N.3    52  GLU52      -0.1231
     31  CA        -9.8660  -41.2360   19.3610 C.3    52  GLU52       0.1699
     32  C         -9.1840  -42.5870   19.5590 C.2    52  GLU52       0.2592
     33  O         -9.4280  -43.5180   18.7940 O.2    52  GLU52      -0.2718
     34  CB        -8.9550  -40.3350   18.5090 C.3    52  GLU52       0.0402
     35  CG        -9.6810  -39.2690   17.6880 C.3    52  GLU52       0.1161
     36  CD       -10.7120  -39.8400   16.7050 C.2    52  GLU52       0.3649
     37  OE1      -10.3260  -40.3250   15.6120 O.co2  52  GLU52      -0.2457
     38  OE2      -11.9230  -39.7930   17.0400 O.co2  52  GLU52      -0.2457
     39  N         -8.2990  -42.6790   20.5470 N.am   53  ILE53      -0.1980
     40  CA        -7.6980  -43.9590   20.9320 C.3    53  ILE53       0.1595
     41  C         -8.8100  -44.9580   21.2870 C.2    53  ILE53       0.2287
     42  O         -8.7030  -46.1230   20.9870 O.2    53  ILE53      -0.2864
     43  CB        -6.6850  -43.7750   22.0830 C.3    53  ILE53       0.0276
     44  CG1       -5.4450  -43.0110   21.6020 C.3    53  ILE53       0.0022
     45  CG2       -6.2390  -45.1140   22.6460 C.3    53  ILE53       0.0022
     46  CD1       -4.6580  -42.3570   22.7220 C.3    53  ILE53       0.0001
     47  N        -10.4120  -46.1130   18.0400 N.3    56  TYR56      -0.1241
     48  CA        -9.5110  -47.0490   17.3710 C.3    56  TYR56       0.1605
     49  C         -9.8030  -48.5090   17.7430 C.2    56  TYR56       0.2264
     50  O         -9.8210  -49.3730   16.8800 O.2    56  TYR56      -0.2867
     51  CB        -8.0380  -46.7290   17.6850 C.3    56  TYR56       0.0534
     52  CG        -7.0600  -47.5400   16.8830 C.ar   56  TYR56      -0.0201
     53  CD1       -6.6390  -48.7980   17.3230 C.ar   56  TYR56      -0.0009
     54  CD2       -6.5620  -47.0660   15.6800 C.ar   56  TYR56      -0.0009
     55  CE1       -5.7500  -49.5600   16.5880 C.ar   56  TYR56       0.0417
     56  CE2       -5.6720  -47.8250   14.9250 C.ar   56  TYR56       0.0417
     57  CZ        -5.2690  -49.0700   15.3830 C.ar   56  TYR56       0.1957
     58  OH        -4.4000  -49.8430   14.6400 O.3    56  TYR56      -0.2866
     59  N         -4.0600  -49.5180    9.4820 N.3    96  CYS96      -0.1235
     60  CA        -3.7150  -48.1290    9.2740 C.3    96  CYS96       0.1677
     61  C         -4.5780  -47.5020    8.1840 C.2    96  CYS96       0.2270
     62  O         -5.1020  -46.4170    8.3670 O.2    96  CYS96      -0.2867
     63  CB        -2.2470  -48.0350    8.8950 C.3    96  CYS96       0.0956
     64  SG        -1.6510  -46.3950    8.5650 S.3    96  CYS96      -0.0801
     65  N         -8.3080  -47.2280    9.4740 N.3    99  PHE99      -0.1227
     66  CA        -8.5760  -46.1700   10.4510 C.3    99  PHE99       0.1736
     67  C         -8.2800  -44.7640    9.9400 C.2    99  PHE99       0.2595
     68  O         -9.0180  -43.8270   10.2670 O.2    99  PHE99      -0.2718
     69  CB        -7.7510  -46.3960   11.7130 C.3    99  PHE99       0.0547
     70  CG        -8.0870  -45.4430   12.8140 C.ar   99  PHE99      -0.0202
     71  CD1       -9.3130  -45.5420   13.4730 C.ar   99  PHE99      -0.0042
     72  CD2       -7.2120  -44.4170   13.1670 C.ar   99  PHE99      -0.0042
     73  CE1       -9.6630  -44.6440   14.4660 C.ar   99  PHE99      -0.0003
     74  CE2       -7.5580  -43.5150   14.1640 C.ar   99  PHE99      -0.0003
     75  CZ        -8.7830  -43.6280   14.8100 C.ar   99  PHE99      -0.0000
     76  N         -7.2030  -44.6230    9.1570 N.am  100  ASN100     -0.1974
     77  CA        -6.7170  -43.3190    8.7050 C.3   100  ASN100      0.1688
     78  C         -7.1270  -42.9490    7.2800 C.2   100  ASN100      0.2292
     79  O         -7.0270  -41.7820    6.9170 O.2   100  ASN100     -0.2864
     80  CB        -5.1960  -43.2390    8.8240 C.3   100  ASN100      0.1181
     81  CG        -4.7240  -43.2700   10.2640 C.2   100  ASN100      0.2629
     82  OD1       -4.8580  -42.2760   10.9770 O.2   100  ASN100     -0.2716
     83  ND2       -4.1460  -44.3930   10.6950 N.am  100  ASN100     -0.0877
     84  N         -0.3250  -41.0690    7.1420 N.3   106  LEU106     -0.1245
     85  CA        -0.0520  -42.3580    7.7600 C.3   106  LEU106      0.1561
     86  C         -0.1630  -43.5440    6.8090 C.2   106  LEU106      0.2260
     87  O          0.5810  -44.4960    6.9550 O.2   106  LEU106     -0.2867
     88  CB        -0.9360  -42.5750    8.9940 C.3   106  LEU106      0.0270
     89  CG        -0.1620  -42.3560   10.2920 C.3   106  LEU106      0.0019
     90  CD1        0.2970  -40.9130   10.4530 C.3   106  LEU106      0.0001
     91  CD2       -1.0260  -42.7800   11.4640 C.3   106  LEU106      0.0001
@<TRIPOS>BOND
     1    86    87    2
     2    86    85    1
     3    79    78    2
     4    84    85    1
     5    78    77    1
     6    85    88    1
     7    61    62    2
     8    61    60    1
     9    64    63    1
    10    77    80    1
    11    77    76    1
    12    80    81    1
    13    63    60    1
    14    88    89    1
    15    76    67   am
    16    60    59    1
    17    65    66    1
    18    67    68    2
    19    67    66    1
    20    81    83   am
    21    81    82    2
    22     9     7   ar
    23     9    10   ar
    24    89    90    1
    25    89    91    1
    26    66    69    1
    27     7     6   ar
    28    12    10   ar
    29    12    14   ar
    30    10     8   ar
    31    69    70    1
    32     6     8   ar
    33     6     5    1
    34     1     2    1
    35    14    13   ar
    36     8    11   ar
    37    70    72   ar
    38    70    71   ar
    39     5     2    1
    40    72    74   ar
    41     2     3    1
    42    71    73   ar
    43    13    11   ar
    44    74    75   ar
    45     3     4    2
    46    73    75   ar
    47    58    57    1
    48    56    57   ar
    49    56    54   ar
    50    57    55   ar
    51    37    36   ar
    52    54    52   ar
    53    55    53   ar
    54    36    38   ar
    55    36    35    1
    56    50    49    2
    57    52    53   ar
    58    52    51    1
    59    48    51    1
    60    48    49    1
    61    48    47    1
    62    35    34    1
    63    34    31    1
    64    33    32    2
    65    29    27    1
    66    31    32    1
    67    31    30    1
    68    32    39   am
    69    39    40    1
    70    27    28    1
    71    27    26    1
    72    40    41    1
    73    40    43    1
    74    42    41    2
    75    21    19    1
    76    23    26    1
    77    23    22    1
    78    23    24    1
    79    44    43    1
    80    44    46    1
    81    25    24    2
    82    15    16    1
    83    16    19    1
    84    16    17    1
    85    43    45    1
    86    19    20    1
    87    18    17    2
