@<TRIPOS>MOLECULE
tmp/5feeA00.pdb
 173 163 0 0 0
SMALL
GASTEIGER

@<TRIPOS>ATOM
      1  N        -45.7950    4.3340  -18.5030 N.3    22  LEU22      -0.1231
      2  CA       -46.5080    3.3000  -17.7710 C.3    22  LEU22       0.1693
      3  C        -45.8300    1.9280  -17.9090 C.2    22  LEU22       0.2593
      4  O        -45.8330    1.1250  -16.9720 O.2    22  LEU22      -0.2718
      5  CB       -47.9650    3.2430  -18.2180 C.3    22  LEU22       0.0284
      6  CG       -48.6760    4.5870  -18.1780 C.3    22  LEU22       0.0019
      7  CD1      -49.9880    4.5140  -19.0480 C.3    22  LEU22       0.0001
      8  CD2      -48.9390    5.0690  -16.7150 C.3    22  LEU22       0.0001
      9  N        -45.2460    1.6250  -19.0570 N.am   23  GLY23      -0.1942
     10  CA       -44.5360    0.3620  -19.1760 C.3    23  GLY23       0.2014
     11  C        -43.6740    0.3450  -20.4130 C.2    23  GLY23       0.2639
     12  O        -43.6650    1.2860  -21.2130 O.2    23  GLY23      -0.2714
     13  N        -42.9330   -0.7520  -20.5600 N.am   24  SER24      -0.1949
     14  CA       -42.1290   -0.9450  -21.7600 C.3    24  SER24       0.1924
     15  C        -42.2880   -2.3590  -22.3300 C.2    24  SER24       0.2314
     16  O        -41.3110   -3.0260  -22.6800 O.2    24  SER24      -0.2863
     17  CB       -40.6610   -0.6550  -21.4850 C.3    24  SER24       0.2116
     18  OG       -39.9600   -0.7120  -22.6970 O.3    24  SER24      -0.2180
     19  N        -45.3000    2.5180  -23.5550 N.3    26  VAL26      -0.1245
     20  CA       -46.5820    3.1990  -23.3530 C.3    26  VAL26       0.1561
     21  C        -46.4450    4.3140  -22.3100 C.2    26  VAL26       0.2260
     22  O        -45.7920    4.1340  -21.2740 O.2    26  VAL26      -0.2867
     23  CB       -47.6680    2.2000  -22.9090 C.3    26  VAL26       0.0252
     24  CG1      -49.0180    2.8790  -22.7810 C.3    26  VAL26       0.0019
     25  CG2      -47.7540    1.0270  -23.8600 C.3    26  VAL26       0.0019
     26  N        -53.4780    6.9530  -23.3670 N.3    43  ALA43      -0.1245
     27  CA       -52.2730    6.1500  -23.4040 C.3    43  ALA43       0.1562
     28  C        -51.6580    6.2750  -24.7950 C.2    43  ALA43       0.2260
     29  O        -52.3320    6.0580  -25.8120 O.2    43  ALA43      -0.2867
     30  CB       -52.5730    4.6960  -23.0420 C.3    43  ALA43       0.0290
     31  N        -48.6780    5.0000  -27.3100 N.3    45  LYS45      -0.1245
     32  CA       -47.7130    3.9420  -27.6190 C.3    45  LYS45       0.1561
     33  C        -46.7130    4.4710  -28.6520 C.2    45  LYS45       0.2260
     34  O        -47.0390    4.5870  -29.8390 O.2    45  LYS45      -0.2867
     35  CB       -48.4150    2.6790  -28.1030 C.3    45  LYS45       0.0271
     36  CG       -47.4710    1.5030  -28.1310 C.3    45  LYS45       0.0035
     37  CD       -48.2090    0.2240  -27.8930 C.3    45  LYS45       0.0206
     38  CE       -48.3580   -0.5660  -29.1800 C.3    45  LYS45       0.1093
     39  NZ       -49.6430   -1.3710  -29.1760 N.3    45  LYS45      -0.1314
     40  N        -51.9230   -1.8260  -37.2200 N.3    57  GLU57      -0.1245
     41  CA       -52.6870   -1.9100  -35.9830 C.3    57  GLU57       0.1567
     42  C        -53.6640   -0.7430  -35.8590 C.2    57  GLU57       0.2260
     43  O        -54.8150   -0.9250  -35.4370 O.2    57  GLU57      -0.2867
     44  CB       -51.7290   -1.9590  -34.7950 C.3    57  GLU57       0.0388
     45  CG       -52.3870   -2.4180  -33.5320 C.3    57  GLU57       0.1160
     46  CD       -51.3940   -2.6930  -32.4310 C.2    57  GLU57       0.3649
     47  OE1      -50.1830   -2.8510  -32.7590 O.co2  57  GLU57      -0.2457
     48  OE2      -51.8430   -2.7370  -31.2500 O.co2  57  GLU57      -0.2457
     49  N        -57.6560   -0.9060  -35.3340 N.3    61  MET61      -0.1245
     50  CA       -58.1640   -0.2710  -34.1220 C.3    61  MET61       0.1570
     51  C        -59.0850    0.8850  -34.4350 C.2    61  MET61       0.2261
     52  O        -59.9590    1.1990  -33.6180 O.2    61  MET61      -0.2867
     53  CB       -57.0310    0.2260  -33.2370 C.3    61  MET61       0.0387
     54  CG       -56.8340   -0.6030  -31.9990 C.3    61  MET61       0.0595
     55  SD       -55.6870    0.2710  -30.9210 S.3    61  MET61      -0.1393
     56  CE       -54.1010   -0.3380  -31.4970 C.3    61  MET61       0.0692
     57  N        -60.8480   -1.9030  -27.2290 N.3    70  CYS70      -0.1235
     58  CA       -60.0080   -0.7230  -27.0380 C.3    70  CYS70       0.1677
     59  C        -60.2460    0.2970  -28.1550 C.2    70  CYS70       0.2270
     60  O        -60.2930   -0.0610  -29.3370 O.2    70  CYS70      -0.2867
     61  CB       -58.5340   -1.1680  -26.9870 C.3    70  CYS70       0.0956
     62  SG       -57.3230    0.1120  -26.5760 S.3    70  CYS70      -0.0801
     63  N        -54.4730    6.1800  -27.5290 N.3    85  MET85      -0.1230
     64  CA       -55.6350    5.4100  -27.1350 C.3    85  MET85       0.1702
     65  C        -56.1970    5.9420  -25.8320 C.2    85  MET85       0.2592
     66  O        -55.5730    6.7490  -25.1430 O.2    85  MET85      -0.2718
     67  CB       -55.2690    3.9300  -27.0260 C.3    85  MET85       0.0401
     68  CG       -54.9610    3.3570  -28.4120 C.3    85  MET85       0.0596
     69  SD       -53.5570    2.2540  -28.3860 S.3    85  MET85      -0.1393
     70  CE       -52.3090    3.3270  -27.6420 C.3    85  MET85       0.0692
     71  N        -57.4030    5.4900  -25.5240 N.am   86  GLN86      -0.1966
     72  CA       -58.0020    5.7370  -24.2220 C.3    86  GLN86       0.1733
     73  C        -57.1250    5.1770  -23.1090 C.2    86  GLN86       0.2616
     74  O        -56.6120    4.0540  -23.1950 O.2    86  GLN86      -0.2715
     75  CB       -59.3820    5.0940  -24.1750 C.3    86  GLN86       0.0408
     76  CG       -60.1150    5.2030  -22.8730 C.3    86  GLN86       0.0908
     77  CD       -61.3790    4.3280  -22.8520 C.2    86  GLN86       0.2608
     78  OE1      -61.4260    3.2530  -23.4900 O.2    86  GLN86      -0.2717
     79  NE2      -62.4180    4.7960  -22.1270 N.am   86  GLN86      -0.0878
     80  N        -56.9620    5.9640  -22.0470 N.am   87  LEU87      -0.1963
     81  CA       -56.1950    5.4890  -20.9010 C.3    87  LEU87       0.1728
     82  C        -56.9960    4.4310  -20.1340 C.2    87  LEU87       0.2616
     83  O        -58.1860    4.6200  -19.8630 O.2    87  LEU87      -0.2715
     84  CB       -55.8200    6.6560  -19.9910 C.3    87  LEU87       0.0311
     85  CG       -55.0930    6.3110  -18.6880 C.3    87  LEU87       0.0022
     86  CD1      -53.6930    5.7580  -18.9290 C.3    87  LEU87       0.0001
     87  CD2      -54.9930    7.5010  -17.7160 C.3    87  LEU87       0.0001
     88  N        -56.3560    3.3010  -19.8020 N.am   88  MET88      -0.1964
     89  CA       -56.9850    2.2850  -18.9590 C.3    88  MET88       0.1722
     90  C        -56.3030    2.2990  -17.6020 C.2    88  MET88       0.2458
     91  O        -55.3100    1.5850  -17.3810 O.2    88  MET88      -0.2730
     92  CB       -56.9350    0.8800  -19.5890 C.3    88  MET88       0.0427
     93  CG       -57.4140    0.8070  -21.0540 C.3    88  MET88       0.0599
     94  SD       -59.1060    1.5190  -21.1170 S.3    88  MET88      -0.1393
     95  CE       -60.1880    0.2090  -20.8000 C.3    88  MET88       0.0692
     96  N        -56.8170    3.0480  -16.6280 N.am   89  PRO89      -0.2716
     97  CA       -56.0390    3.3270  -15.4060 C.3    89  PRO89       0.1536
     98  C        -55.6250    2.0990  -14.6040 C.2    89  PRO89       0.2599
     99  O        -54.6600    2.1850  -13.8410 O.2    89  PRO89      -0.2715
    100  CB       -56.9760    4.2200  -14.5780 C.3    89  PRO89       0.0310
    101  CG       -58.0240    4.7220  -15.5800 C.3    89  PRO89       0.0237
    102  CD       -58.1830    3.6190  -16.5850 C.3    89  PRO89       0.0939
    103  N        -56.3170    0.9700  -14.7260 N.am   90  PHE90      -0.1960
    104  CA       -56.0080   -0.1930  -13.9100 C.3    90  PHE90       0.1771
    105  C        -55.1360   -1.2200  -14.6260 C.2    90  PHE90       0.2620
    106  O        -54.8890   -2.3020  -14.0740 O.2    90  PHE90      -0.2715
    107  CB       -57.2980   -0.8150  -13.4120 C.3    90  PHE90       0.0574
    108  CG       -58.0510    0.0730  -12.4640 C.ar   90  PHE90      -0.0200
    109  CD1      -58.8830    1.0770  -12.9330 C.ar   90  PHE90      -0.0042
    110  CD2      -57.9190   -0.0930  -11.0930 C.ar   90  PHE90      -0.0042
    111  CE1      -59.5670    1.8870  -12.0370 C.ar   90  PHE90      -0.0003
    112  CE2      -58.6130    0.7080  -10.1950 C.ar   90  PHE90      -0.0003
    113  CZ       -59.4270    1.6960  -10.6600 C.ar   90  PHE90      -0.0000
    114  N        -54.6060   -0.8760  -15.8090 N.am   91  GLY91      -0.1940
    115  CA       -53.6830   -1.7260  -16.5430 C.3    91  GLY91       0.2014
    116  C        -54.3560   -2.9710  -17.1270 C.2    91  GLY91       0.2639
    117  O        -55.5900   -3.0410  -17.3160 O.2    91  GLY91      -0.2714
    118  N        -53.5220   -3.9840  -17.3810 N.am   92  CYS92      -0.1967
    119  CA       -54.0210   -5.2150  -17.9650 C.3    92  CYS92       0.1712
    120  C        -54.5890   -6.1400  -16.8830 C.2    92  CYS92       0.2296
    121  O        -54.2100   -6.0870  -15.7050 O.2    92  CYS92      -0.2864
    122  CB       -52.9360   -5.9170  -18.7770 C.3    92  CYS92       0.0983
    123  SG       -51.5800   -6.5700  -17.7970 S.3    92  CYS92      -0.0798
    124  N        -54.5410   -9.3750  -16.5140 N.3    94  LEU94      -0.1231
    125  CA       -53.6360  -10.3720  -15.9550 C.3    94  LEU94       0.1693
    126  C        -52.9140   -9.8360  -14.7170 C.2    94  LEU94       0.2592
    127  O        -52.9860  -10.4370  -13.6380 O.2    94  LEU94      -0.2718
    128  CB       -52.6440  -10.8310  -17.0150 C.3    94  LEU94       0.0284
    129  CG       -51.6280  -11.8600  -16.4910 C.3    94  LEU94       0.0019
    130  CD1      -52.3410  -13.1920  -16.0470 C.3    94  LEU94       0.0001
    131  CD2      -50.4950  -12.0890  -17.5160 C.3    94  LEU94       0.0001
    132  N        -52.2270   -8.6890  -14.8480 N.am   95  ASP95      -0.1974
    133  CA       -51.5680   -8.0900  -13.6860 C.3    95  ASP95       0.1709
    134  C        -52.5690   -7.7550  -12.5870 C.2    95  ASP95       0.2293
    135  O        -52.2720   -7.9040  -11.4020 O.2    95  ASP95      -0.2864
    136  CB       -50.8050   -6.8340  -14.0940 C.3    95  ASP95       0.1436
    137  CG       -49.5920   -7.1370  -14.9500 C.2    95  ASP95       0.3671
    138  OD1      -49.4440   -8.2850  -15.4240 O.co2  95  ASP95      -0.2456
    139  OD2      -48.7970   -6.2000  -15.1750 O.co2  95  ASP95      -0.2456
    140  N        -53.3590  -10.9340  -20.5760 N.3   136  ARG136     -0.1245
    141  CA       -52.4490   -9.7790  -20.6620 C.3   136  ARG136      0.1563
    142  C        -52.9300   -8.7680  -21.6870 C.2   136  ARG136      0.2260
    143  O        -52.5290   -7.6060  -21.6060 O.2   136  ARG136     -0.2867
    144  CB       -50.9990  -10.1680  -21.0150 C.3   136  ARG136      0.0307
    145  CG       -50.8170  -10.4310  -22.5130 C.3   136  ARG136      0.0489
    146  CD       -49.4490  -10.9520  -22.8920 C.3   136  ARG136      0.2205
    147  NE       -49.4660  -12.4070  -23.0450 N.pl3 136  ARG136     -0.0865
    148  CZ       -49.8290  -13.0460  -24.1550 C.cat 136  ARG136      0.5346
    149  NH1      -50.2040  -12.3390  -25.2230 N.pl3 136  ARG136      0.1354
    150  NH2      -49.8070  -14.3860  -24.1890 N.pl3 136  ARG136      0.1354
    151  N        -57.7040   -5.0310  -21.0840 N.3   139  LEU139     -0.1245
    152  CA       -57.3420   -3.9650  -20.1620 C.3   139  LEU139      0.1561
    153  C        -58.5380   -3.5630  -19.3250 C.2   139  LEU139      0.2260
    154  O        -59.6980   -3.8440  -19.6700 O.2   139  LEU139     -0.2867
    155  CB       -56.7570   -2.7600  -20.9020 C.3   139  LEU139      0.0270
    156  CG       -55.7320   -3.1920  -21.9380 C.3   139  LEU139      0.0019
    157  CD1      -55.2670   -1.9790  -22.6990 C.3   139  LEU139      0.0001
    158  CD2      -54.4990   -4.0010  -21.3710 C.3   139  LEU139      0.0001
    159  N        -57.7470   -5.6070  -26.3700 N.3   149  THR149     -0.1203
    160  CA       -56.7480   -4.7240  -26.9540 C.3   149  THR149      0.1994
    161  C        -55.6850   -5.5660  -27.6470 C.2   149  THR149      0.2617
    162  O        -55.8650   -6.7720  -27.8450 O.2   149  THR149     -0.2717
    163  CB       -56.1110   -3.8240  -25.8870 C.3   149  THR149      0.1784
    164  OG1      -55.3400   -2.8130  -26.5410 O.3   149  THR149     -0.2211
    165  CG2      -55.1600   -4.6320  -25.0040 C.3   149  THR149      0.0376
    166  N        -54.5670   -4.9030  -27.9990 N.am  150  ASP150     -0.1973
    167  CA       -53.3260   -5.4450  -28.5590 C.3   150  ASP150      0.1709
    168  C        -53.5910   -6.5200  -29.5930 C.2   150  ASP150      0.2293
    169  O        -53.2990   -7.6950  -29.3660 O.2   150  ASP150     -0.2864
    170  CB       -52.4110   -5.9910  -27.4490 C.3   150  ASP150      0.1436
    171  CG       -51.0420   -6.4750  -27.9680 C.2   150  ASP150      0.3671
    172  OD1      -50.8250   -6.4910  -29.2050 O.co2 150  ASP150     -0.2456
    173  OD2      -50.1920   -6.8440  -27.1130 O.co2 150  ASP150     -0.2456
@<TRIPOS>BOND
     1    40    41    1
     2    41    42    1
     3    41    44    1
     4    42    43    2
     5    49    50    1
     6    44    45    1
     7    51    50    1
     8    51    52    2
     9    50    53    1
    10    45    46    1
    11    53    54    1
    12    47    46   ar
    13    46    48   ar
    14    54    55    1
    15    56    55    1
    16    34    33    2
    17   168   169    2
    18   168   167    1
    19    60    59    2
    20   172   171   ar
    21    38    39    1
    22    38    37    1
    23    33    32    1
    24   167   166    1
    25   167   170    1
    26    68    69    1
    27    68    67    1
    28    69    70    1
    29    59    58    1
    30    36    35    1
    31    36    37    1
    32    35    32    1
    33   166   161   am
    34   171   170    1
    35   171   173   ar
    36   162   161    2
    37   161   160    1
    38    32    31    1
    39    63    64    1
    40    57    58    1
    41    64    67    1
    42    64    65    1
    43    58    61    1
    44    61    62    1
    45   160   159    1
    46   160   163    1
    47   164   163    1
    48   163   165    1
    49    65    71   am
    50    65    66    2
    51    29    28    2
    52    71    72    1
    53   149   148    1
    54    28    27    1
    55    72    75    1
    56    72    73    1
    57   150   148    1
    58    75    76    1
    59   148   147    2
    60    25    23    1
    61    19    20    1
    62    78    77    2
    63    27    26    1
    64    27    30    1
    65    20    23    1
    66    20    21    1
    67    74    73    2
    68    73    80   am
    69   147   146    1
    70    23    24    1
    71   146   145    1
    72    76    77    1
    73    77    79   am
    74   157   156    1
    75    18    17    1
    76    16    15    2
    77   145   144    1
    78    15    14    1
    79    21    22    2
    80    80    81    1
    81   156   158    1
    82   156   155    1
    83    14    17    1
    84    14    13    1
    85   142   143    2
    86   142   141    1
    87    12    11    2
    88    94    93    1
    89    94    95    1
    90   151   152    1
    91    93    92    1
    92   144   141    1
    93   155   152    1
    94    81    82    1
    95    81    84    1
    96   141   140    1
    97    13    11   am
    98    11    10    1
    99   152   153    1
   100    82    83    2
   101    82    88   am
   102    84    85    1
   103    88    89    1
   104   154   153    2
   105    92    89    1
   106    10     9    1
   107     9     3   am
   108     7     6    1
   109    89    90    1
   110    86    85    1
   111   122   119    1
   112   122   123    1
   113    85    87    1
   114     1     2    1
   115     5     6    1
   116     5     2    1
   117     6     8    1
   118   119   118    1
   119   119   120    1
   120     3     2    1
   121     3     4    2
   122    90    91    2
   123    90    96   am
   124   131   129    1
   125   118   116   am
   126   117   116    2
   127   116   115    1
   128   128   129    1
   129   128   125    1
   130   120   121    2
   131    96   102    1
   132    96    97    1
   133   102   101    1
   134   115   114    1
   135   124   125    1
   136   129   130    1
   137   125   126    1
   138   114   105   am
   139   101   100    1
   140   138   137   ar
   141    97    98    1
   142    97   100    1
   143   139   137   ar
   144   137   136    1
   145   132   126   am
   146   132   133    1
   147   103    98   am
   148   103   104    1
   149   126   127    2
   150   105   106    2
   151   105   104    1
   152    98    99    2
   153   136   133    1
   154   104   107    1
   155   133   134    1
   156   107   108    1
   157   109   108   ar
   158   109   111   ar
   159   134   135    2
   160   108   110   ar
   161   111   113   ar
   162   110   112   ar
   163   113   112   ar
