@<TRIPOS>MOLECULE
tmp/5femB01.pdb
 71 68 0 0 0
SMALL
GASTEIGER

@<TRIPOS>ATOM
      1  N        179.6230   73.6540  223.9900 N.3    31  TYR31      -0.1228
      2  CA       179.1770   73.6710  225.3730 C.3    31  TYR31       0.1721
      3  C        179.2580   75.1180  225.8450 C.2    31  TYR31       0.2437
      4  O        180.3010   75.7600  225.7080 O.2    31  TYR31      -0.2733
      5  CB       180.0830   72.7800  226.2280 C.3    31  TYR31       0.0547
      6  CG       179.4150   72.2340  227.4700 C.ar   31  TYR31      -0.0200
      7  CD1      179.2630   73.0200  228.6050 C.ar   31  TYR31      -0.0009
      8  CD2      178.9350   70.9310  227.5070 C.ar   31  TYR31      -0.0009
      9  CE1      178.6430   72.5250  229.7390 C.ar   31  TYR31       0.0417
     10  CE2      178.3240   70.4250  228.6390 C.ar   31  TYR31       0.0417
     11  CZ       178.1800   71.2290  229.7520 C.ar   31  TYR31       0.1957
     12  OH       177.5680   70.7310  230.8810 O.3    31  TYR31      -0.2866
     13  N        178.1510   75.6420  226.3880 N.am   32  PRO32      -0.2718
     14  CA       178.0800   77.0610  226.7590 C.3    32  PRO32       0.1535
     15  C        178.7960   77.4100  228.0660 C.2    32  PRO32       0.2599
     16  O        179.2330   76.5340  228.8220 O.2    32  PRO32      -0.2715
     17  CB       176.5730   77.3110  226.9010 C.3    32  PRO32       0.0310
     18  CG       175.9960   75.9680  227.2640 C.3    32  PRO32       0.0237
     19  CD       176.8610   74.9450  226.5570 C.3    32  PRO32       0.0939
     20  N        178.9040   78.7100  228.3160 N.am   33  GLY33      -0.1941
     21  CA       179.5490   79.2330  229.5080 C.3    33  GLY33       0.2014
     22  C        179.4590   80.7440  229.4660 C.2    33  GLY33       0.2639
     23  O        178.9700   81.3070  228.4800 O.2    33  GLY33      -0.2714
     24  N        179.9420   81.4020  230.5160 N.am   34  GLY34      -0.1954
     25  CA       179.7570   82.8360  230.6830 C.3    34  GLY34       0.1869
     26  C        180.2970   83.7060  229.5600 C.2    34  GLY34       0.2309
     27  O        179.5720   84.5280  229.0040 O.2    34  GLY34      -0.2863
     28  N        183.8370   69.2270  226.8430 N.3    57  GLU57      -0.1245
     29  CA       184.3100   69.8840  225.6160 C.3    57  GLU57       0.1567
     30  C        185.2690   69.0340  224.7880 C.2    57  GLU57       0.2260
     31  O        185.3340   69.1830  223.5660 O.2    57  GLU57      -0.2867
     32  CB       184.9630   71.2350  225.9090 C.3    57  GLU57       0.0388
     33  CG       183.9990   72.2940  226.3970 C.3    57  GLU57       0.1160
     34  CD       183.8370   72.2800  227.9000 C.2    57  GLU57       0.3649
     35  OE1      184.3600   71.3490  228.5630 O.co2  57  GLU57      -0.2457
     36  OE2      183.1920   73.2120  228.4150 O.co2  57  GLU57      -0.2457
     37  N        183.3560   77.8580  225.7900 N.3    80  THR80      -0.1218
     38  CA       183.5460   79.0880  226.5530 C.3    80  THR80       0.1862
     39  C        185.0200   79.3580  226.8590 C.2    80  THR80       0.2287
     40  O        185.8950   78.5960  226.4360 O.2    80  THR80      -0.2866
     41  CB       182.6990   79.0960  227.8460 C.3    80  THR80       0.1770
     42  OG1      182.5450   80.4420  228.3100 O.3    80  THR80      -0.2211
     43  CG2      183.3380   78.2330  228.9460 C.3    80  THR80       0.0375
     44  N        188.3950   77.0780  231.1680 N.3    83  PRO83      -0.2102
     45  CA       188.4230   75.6100  231.1610 C.3    83  PRO83       0.1504
     46  C        187.7050   75.0490  229.9400 C.2    83  PRO83       0.2576
     47  O        188.0220   73.9410  229.5040 O.2    83  PRO83      -0.2718
     48  CB       187.6720   75.2370  232.4470 C.3    83  PRO83       0.0282
     49  CG       186.7310   76.4010  232.6870 C.3    83  PRO83       0.0208
     50  CD       187.5010   77.6190  232.2120 C.3    83  PRO83       0.0893
     51  N        186.7550   75.8030  229.3950 N.am   84  GLY84      -0.1957
     52  CA       186.0970   75.3920  228.1640 C.3    84  GLY84       0.1869
     53  C        187.1150   75.2880  227.0430 C.2    84  GLY84       0.2309
     54  O        187.1190   74.3340  226.2620 O.2    84  GLY84      -0.2863
     55  N        189.9460   72.5710  227.7430 N.3    87  ASN87      -0.1240
     56  CA       189.4050   71.2320  227.5070 C.3    87  ASN87       0.1653
     57  C        189.3880   70.7990  226.0380 C.2    87  ASN87       0.2266
     58  O        189.1130   69.6370  225.7530 O.2    87  ASN87      -0.2867
     59  CB       187.9900   71.0920  228.0880 C.3    87  ASN87       0.1155
     60  CG       187.9960   70.7950  229.5790 C.2    87  ASN87       0.2627
     61  OD1      189.0450   70.5420  230.1640 O.2    87  ASN87      -0.2716
     62  ND2      186.8150   70.8120  230.1960 N.am   87  ASN87      -0.0877
     63  N        188.1450   82.9720  234.7600 N.3   120  GLN120     -0.1245
     64  CA       188.0640   82.1180  233.5690 C.3   120  GLN120      0.1566
     65  C        188.8180   82.6500  232.3470 C.2   120  GLN120      0.2260
     66  O        188.4220   82.3920  231.2000 O.2   120  GLN120     -0.2867
     67  CB       186.6030   81.7990  233.2100 C.3   120  GLN120      0.0367
     68  CG       185.8230   81.1490  234.3550 C.3   120  GLN120      0.0905
     69  CD       184.5830   80.4140  233.8880 C.2   120  GLN120      0.2608
     70  OE1      183.7890   80.9420  233.1070 O.2   120  GLN120     -0.2717
     71  NE2      184.4170   79.1770  234.3560 N.am  120  GLN120     -0.0878
@<TRIPOS>BOND
     1    31    30    2
     2     1     2    1
     3    30    29    1
     4     2     3    1
     5     2     5    1
     6    29    32    1
     7    29    28    1
     8     4     3    2
     9    58    57    2
    10    37    38    1
    11     3    13   am
    12    32    33    1
    13    57    56    1
    14     5     6    1
    15    54    53    2
    16    13    19    1
    17    13    14    1
    18    33    34    1
    19    40    39    2
    20    38    39    1
    21    38    41    1
    22    19    18    1
    23    14    17    1
    24    14    15    1
    25    17    18    1
    26    53    52    1
    27     6     8   ar
    28     6     7   ar
    29    56    55    1
    30    56    59    1
    31     8    10   ar
    32    41    42    1
    33    41    43    1
    34    34    36   ar
    35    34    35   ar
    36    15    20   am
    37    15    16    2
    38    59    60    1
    39    52    51    1
    40    20    21    1
    41    23    22    2
    42     7     9   ar
    43    10    11   ar
    44    27    26    2
    45    51    46   am
    46    22    21    1
    47    22    24   am
    48    47    46    2
    49    26    25    1
    50    60    61    2
    51    60    62   am
    52     9    11   ar
    53    11    12    1
    54    46    45    1
    55    24    25    1
    56    45    44    1
    57    45    48    1
    58    44    50    1
    59    66    65    2
    60    50    49    1
    61    65    64    1
    62    48    49    1
    63    70    69    2
    64    67    64    1
    65    67    68    1
    66    64    63    1
    67    69    68    1
    68    69    71   am
