@<TRIPOS>MOLECULE
tmp/5femB04.pdb
 162 156 0 0 0
SMALL
GASTEIGER

@<TRIPOS>ATOM
      1  N        193.4380   68.8500  223.6570 N.3    90  THR90      -0.1218
      2  CA       193.6800   67.4950  223.1570 C.3    90  THR90       0.1862
      3  C        193.0780   67.2480  221.7510 C.2    90  THR90       0.2287
      4  O        193.7930   66.8080  220.8520 O.2    90  THR90      -0.2866
      5  CB       193.2570   66.4070  224.1890 C.3    90  THR90       0.1770
      6  OG1      194.0720   66.5200  225.3670 O.3    90  THR90      -0.2211
      7  CG2      193.4120   65.0040  223.6000 C.3    90  THR90       0.0375
      8  N        192.4250   53.5670  220.9530 N.3   409  VAL409     -0.1231
      9  CA       193.8520   53.4270  220.6840 C.3   409  VAL409      0.1692
     10  C        194.4080   52.2340  221.4530 C.2   409  VAL409      0.2593
     11  O        194.1620   52.0900  222.6540 O.2   409  VAL409     -0.2718
     12  CB       194.6250   54.7160  221.0660 C.3   409  VAL409      0.0266
     13  CG1      196.1370   54.4840  221.0220 C.3   409  VAL409      0.0020
     14  CG2      194.2280   55.8640  220.1370 C.3   409  VAL409      0.0020
     15  N        195.1540   51.3790  220.7560 N.am  410  GLY410     -0.1942
     16  CA       195.7210   50.1860  221.3570 C.3   410  GLY410      0.2014
     17  C        195.6320   48.9900  220.4220 C.2   410  GLY410      0.2639
     18  O        195.5200   49.1470  219.2020 O.2   410  GLY410     -0.2714
     19  N        195.6700   47.7920  220.9960 N.am  411  GLN411     -0.1963
     20  CA       195.6450   46.5590  220.2150 C.3   411  GLN411      0.1733
     21  C        194.3800   46.4000  219.3740 C.2   411  GLN411      0.2616
     22  O        194.4540   46.0110  218.2070 O.2   411  GLN411     -0.2715
     23  CB       195.7920   45.3590  221.1470 C.3   411  GLN411      0.0408
     24  CG       197.0880   45.3470  221.9420 C.3   411  GLN411      0.0908
     25  CD       197.2210   44.0970  222.7860 C.2   411  GLN411      0.2608
     26  OE1      196.3170   43.7490  223.5440 O.2   411  GLN411     -0.2717
     27  NE2      198.3430   43.4070  222.6490 N.am  411  GLN411     -0.0878
     28  N        193.2250   46.6830  219.9760 N.am  412  HIS412     -0.1973
     29  CA       191.9430   46.5930  219.2760 C.3   412  HIS412      0.1656
     30  C        191.9490   47.4620  218.0170 C.2   412  HIS412      0.2291
     31  O        191.3310   47.1160  217.0060 O.2   412  HIS412     -0.2864
     32  CB       190.8040   47.0380  220.1940 C.3   412  HIS412      0.0771
     33  CG       190.8620   48.4910  220.5510 C.ar  412  HIS412      0.0820
     34  ND1      191.6330   48.9720  221.5900 N.ar  412  HIS412     -0.2267
     35  CD2      190.2720   49.5700  219.9870 C.ar  412  HIS412      0.1154
     36  CE1      191.5040   50.2870  221.6550 C.ar  412  HIS412      0.1986
     37  NE2      190.6860   50.6740  220.6910 N.ar  412  HIS412     -0.2212
     38  N        194.0780   45.5720  215.4330 N.3   415  TRP415     -0.1241
     39  CA       193.3230   44.4110  214.9730 C.3   415  TRP415      0.1605
     40  C        192.1800   44.8300  214.0550 C.2   415  TRP415      0.2264
     41  O        191.9090   44.1660  213.0520 O.2   415  TRP415     -0.2867
     42  CB       192.8180   43.5840  216.1570 C.3   415  TRP415      0.0550
     43  CG       193.9200   42.8080  216.8380 C.ar  415  TRP415      0.0003
     44  CD1      194.9880   42.1930  216.2370 C.ar  415  TRP415      0.0946
     45  CD2      194.0700   42.5800  218.2460 C.ar  415  TRP415      0.0152
     46  NE1      195.7850   41.5900  217.1870 N.ar  415  TRP415     -0.2442
     47  CE2      195.2430   41.8120  218.4270 C.ar  415  TRP415      0.0810
     48  CE3      193.3230   42.9460  219.3720 C.ar  415  TRP415      0.0012
     49  CZ2      195.6860   41.4080  219.6900 C.ar  415  TRP415      0.0191
     50  CZ3      193.7670   42.5450  220.6280 C.ar  415  TRP415      0.0001
     51  CH2      194.9360   41.7850  220.7750 C.ar  415  TRP415      0.0015
     52  N        198.5050   61.4840  216.9300 N.3   434  LEU434     -0.1231
     53  CA       198.5830   61.7180  218.3700 C.3   434  LEU434      0.1693
     54  C        198.2200   60.4560  219.1510 C.2   434  LEU434      0.2593
     55  O        198.7190   60.2420  220.2600 O.2   434  LEU434     -0.2718
     56  CB       197.6760   62.8810  218.7930 C.3   434  LEU434      0.0284
     57  CG       197.9000   63.4450  220.2050 C.3   434  LEU434      0.0019
     58  CD1      199.3000   64.0310  220.3400 C.3   434  LEU434      0.0001
     59  CD2      196.8520   64.4910  220.5760 C.3   434  LEU434      0.0001
     60  N        197.3520   59.6240  218.5760 N.am  435  GLY435     -0.1942
     61  CA       196.9230   58.3970  219.2380 C.3   435  GLY435      0.2014
     62  C        196.1910   58.6340  220.5510 C.2   435  GLY435      0.2640
     63  O        196.6100   58.1500  221.6120 O.2   435  GLY435     -0.2714
     64  N        195.0810   59.3620  220.4770 N.am  436  THR436     -0.1936
     65  CA       194.3170   59.7270  221.6660 C.3   436  THR436      0.2028
     66  C        193.3130   58.6520  222.0940 C.2   436  THR436      0.2642
     67  O        192.2770   58.4800  221.4490 O.2   436  THR436     -0.2714
     68  CB       193.5230   61.0250  221.4190 C.3   436  THR436      0.1808
     69  OG1      194.3980   62.0360  220.9050 O.3   436  THR436     -0.2208
     70  CG2      192.8570   61.5160  222.7130 C.3   436  THR436      0.0379
     71  N        193.5930   57.9510  223.1910 N.am  437  MET437     -0.1976
     72  CA       192.5790   57.0800  223.7880 C.3   437  MET437      0.1605
     73  C        191.3320   57.8980  224.1200 C.2   437  MET437      0.2287
     74  O        191.4380   59.0520  224.5490 O.2   437  MET437     -0.2864
     75  CB       193.0960   56.4420  225.0740 C.3   437  MET437      0.0413
     76  CG       194.1620   55.3860  224.8770 C.3   437  MET437      0.0598
     77  SD       194.9030   54.9680  226.4770 S.3   437  MET437     -0.1393
     78  CE       193.5420   54.1100  227.2800 C.3   437  MET437      0.0692
     79  N        188.6030   49.8260  222.9160 N.3   461  GLY461     -0.1210
     80  CA       189.2420   49.0570  223.9710 C.3   461  GLY461      0.1956
     81  C        188.6090   49.4060  225.3080 C.2   461  GLY461      0.2612
     82  O        187.9990   50.4730  225.4480 O.2   461  GLY461     -0.2717
     83  N        188.7340   48.5210  226.2900 N.am  462  ASP462     -0.1959
     84  CA       188.1430   48.8040  227.5890 C.3   462  ASP462      0.1840
     85  C        188.7650   50.0540  228.2250 C.2   462  ASP462      0.2622
     86  O        188.0440   50.9280  228.7130 O.2   462  ASP462     -0.2715
     87  CB       188.2150   47.5870  228.5220 C.3   462  ASP462      0.1450
     88  CG       189.6210   47.0280  228.6590 C.2   462  ASP462      0.3671
     89  OD1      190.2890   46.7930  227.6260 O.co2 462  ASP462     -0.2456
     90  OD2      190.0530   46.8100  229.8100 O.co2 462  ASP462     -0.2456
     91  N        190.0900   50.1700  228.1890 N.am  463  ALA463     -0.1963
     92  CA       190.7220   51.3430  228.7970 C.3   463  ALA463      0.1728
     93  C        190.4070   52.6300  228.0220 C.2   463  ALA463      0.2616
     94  O        190.0920   53.6630  228.6260 O.2   463  ALA463     -0.2715
     95  CB       192.2320   51.1440  228.9570 C.3   463  ALA463      0.0334
     96  N        190.4920   52.5680  226.6930 N.am  464  SER464     -0.1950
     97  CA       190.1420   53.7130  225.8480 C.3   464  SER464      0.1924
     98  C        188.7240   54.1920  226.1140 C.2   464  SER464      0.2314
     99  O        188.4780   55.3910  226.2620 O.2   464  SER464     -0.2863
    100  CB       190.2690   53.3610  224.3640 C.3   464  SER464      0.2116
    101  OG       191.6210   53.1830  223.9890 O.3   464  SER464     -0.2180
    102  N        187.9390   56.4240  229.1190 N.3   467  MET467     -0.1245
    103  CA       188.3640   57.8220  229.0260 C.3   467  MET467      0.1570
    104  C        187.2040   58.7920  228.7720 C.2   467  MET467      0.2261
    105  O        187.1300   59.8500  229.3920 O.2   467  MET467     -0.2867
    106  CB       189.4310   57.9880  227.9370 C.3   467  MET467      0.0387
    107  CG       190.7740   57.3300  228.2620 C.3   467  MET467      0.0595
    108  SD       192.0310   58.5450  228.7000 S.3   467  MET467     -0.1393
    109  CE       193.3770   57.4990  229.2710 C.3   467  MET467      0.0692
    110  N        186.1300   45.5150  223.0290 N.3   487  LEU487     -0.1245
    111  CA       186.9630   44.3220  223.1350 C.3   487  LEU487      0.1561
    112  C        187.6190   44.3620  224.5040 C.2   487  LEU487      0.2260
    113  O        188.6700   44.9840  224.6870 O.2   487  LEU487     -0.2867
    114  CB       188.0210   44.2810  222.0320 C.3   487  LEU487      0.0270
    115  CG       187.5060   44.1240  220.6010 C.3   487  LEU487      0.0019
    116  CD1      188.6520   43.8910  219.6240 C.3   487  LEU487      0.0001
    117  CD2      186.4980   42.9900  220.5240 C.3   487  LEU487      0.0001
    118  N        189.7010   43.1600  227.3060 N.3   489  ASN489     -0.1240
    119  CA       190.7640   42.2790  227.7700 C.3   489  ASN489      0.1653
    120  C        191.2210   42.6870  229.1710 C.2   489  ASN489      0.2266
    121  O        192.2630   42.2360  229.6510 O.2   489  ASN489     -0.2867
    122  CB       191.9380   42.2820  226.7830 C.3   489  ASN489      0.1155
    123  CG       192.3960   43.6890  226.4170 C.2   489  ASN489      0.2627
    124  OD1      192.1030   44.6620  227.1210 O.2   489  ASN489     -0.2716
    125  ND2      193.1340   43.7980  225.3200 N.am  489  ASN489     -0.0877
    126  N        192.6250   45.3010  230.3620 N.3   491  GLU491     -0.1231
    127  CA       193.9990   45.7750  230.4090 C.3   491  GLU491      0.1699
    128  C        194.2180   46.8590  229.3810 C.2   491  GLU491      0.2592
    129  O        193.4590   46.9840  228.4160 O.2   491  GLU491     -0.2718
    130  CB       194.9830   44.6270  230.1350 C.3   491  GLU491      0.0402
    131  CG       194.8400   44.0210  228.7340 C.3   491  GLU491      0.1161
    132  CD       195.7940   42.8590  228.4780 C.2   491  GLU491      0.3649
    133  OE1      196.9300   42.8860  229.0000 O.co2 491  GLU491     -0.2457
    134  OE2      195.4040   41.9180  227.7500 O.co2 491  GLU491     -0.2457
    135  N        195.2600   47.6490  229.6140 N.am  492  GLN492     -0.1966
    136  CA       195.8240   48.5060  228.5920 C.3   492  GLN492      0.1733
    137  C        196.7240   47.6000  227.7500 C.2   492  GLN492      0.2617
    138  O        197.9520   47.5790  227.9210 O.2   492  GLN492     -0.2715
    139  CB       196.6100   49.6380  229.2540 C.3   492  GLN492      0.0408
    140  CG       195.7630   50.4820  230.2160 C.3   492  GLN492      0.0908
    141  CD       196.6000   51.3760  231.1230 C.2   492  GLN492      0.2608
    142  OE1      197.5960   51.9570  230.6930 O.2   492  GLN492     -0.2717
    143  NE2      196.1990   51.4850  232.3880 N.am  492  GLN492     -0.0878
    144  N        196.0960   46.8340  226.8570 N.am  493  GLY493     -0.1940
    145  CA       196.7660   45.7710  226.1250 C.3   493  GLY493      0.2014
    146  C        198.0220   46.1730  225.3740 C.2   493  GLY493      0.2639
    147  O        199.0340   45.4590  225.4010 O.2   493  GLY493     -0.2714
    148  N        197.9620   47.3140  224.7010 N.am  494  MET494     -0.1963
    149  CA       199.0950   47.7790  223.9140 C.3   494  MET494      0.1736
    150  C        200.2920   48.0480  224.8220 C.2   494  MET494      0.2616
    151  O        201.4340   47.7410  224.4700 O.2   494  MET494     -0.2715
    152  CB       198.7160   49.0320  223.1260 C.3   494  MET494      0.0427
    153  CG       199.8190   49.5920  222.2260 C.3   494  MET494      0.0599
    154  SD       199.7790   48.9380  220.5520 S.3   494  MET494     -0.1393
    155  CE       200.6520   47.3900  220.7750 C.3   494  MET494      0.0692
    156  N        200.0320   48.6060  226.0010 N.am  495  VAL495     -0.1977
    157  CA       201.1120   48.8480  226.9500 C.3   495  VAL495      0.1596
    158  C        201.6540   47.5460  227.5640 C.2   495  VAL495      0.2287
    159  O        202.8680   47.4050  227.7480 O.2   495  VAL495     -0.2864
    160  CB       200.7100   49.8480  228.0580 C.3   495  VAL495      0.0276
    161  CG1      201.9360   50.2500  228.8630 C.3   495  VAL495      0.0022
    162  CG2      200.0810   51.0850  227.4460 C.3   495  VAL495      0.0022
@<TRIPOS>BOND
     1    41    40    2
     2    40    39    1
     3    39    38    1
     4    39    42    1
     5    42    43    1
     6    44    43   ar
     7    44    46   ar
     8    43    45   ar
     9    52    53    1
    10    31    30    2
    11    46    47   ar
    12    30    29    1
    13    22    21    2
    14    45    47   ar
    15    45    48   ar
    16    53    56    1
    17    53    54    1
    18    47    49   ar
    19    60    54   am
    20    60    61    1
    21    56    57    1
    22    54    55    2
    23    18    17    2
    24    61    62    1
    25    29    28    1
    26    29    32    1
    27    48    50   ar
    28    21    28   am
    29    21    20    1
    30   116   115    1
    31    49    51   ar
    32    35    33   ar
    33    35    37   ar
    34    14    12    1
    35    32    33    1
    36    57    58    1
    37    57    59    1
    38    20    19    1
    39    20    23    1
    40    17    19   am
    41    17    16    1
    42    64    62   am
    43    64    65    1
    44   117   115    1
    45    33    34   ar
    46    62    63    2
    47   154   155    1
    48   154   153    1
    49   115   114    1
    50    50    51   ar
    51     9     8    1
    52     9    12    1
    53     9    10    1
    54    37    36   ar
    55    15    16    1
    56    15    10   am
    57     4     3    2
    58    69    68    1
    59    13    12    1
    60    23    24    1
    61    68    65    1
    62    68    70    1
    63    67    66    2
    64    10    11    2
    65    34    36   ar
    66    65    66    1
    67     3     2    1
    68    24    25    1
    69   114   111    1
    70    66    71   am
    71   153   152    1
    72    27    25   am
    73    25    26    2
    74    79    80    1
    75   110   111    1
    76   152   149    1
    77   111   112    1
    78     2     1    1
    79     2     5    1
    80    71    72    1
    81     7     5    1
    82    72    73    1
    83    72    75    1
    84   149   148    1
    85   149   150    1
    86    80    81    1
    87   101   100    1
    88    73    74    2
    89     5     6    1
    90   100    97    1
    91   151   150    2
    92   112   113    2
    93   148   146   am
    94   150   156   am
    95    76    75    1
    96    76    77    1
    97    81    82    2
    98    81    83   am
    99   125   123   am
   100   146   147    2
   101   146   145    1
   102    97    98    1
   103    97    96    1
   104   156   157    1
   105    98    99    2
   106   145   144    1
   107    83    84    1
   108   123   122    1
   109   123   124    2
   110    77    78    1
   111    96    93   am
   112   122   119    1
   113   144   137   am
   114   157   158    1
   115   157   160    1
   116   118   119    1
   117   162   160    1
   118   158   159    2
   119    84    85    1
   120    84    87    1
   121    89    88   ar
   122   137   138    2
   123   137   136    1
   124   134   132   ar
   125   119   120    1
   126   106   107    1
   127   106   103    1
   128    93    94    2
   129    93    92    1
   130   160   161    1
   131    91    85   am
   132    91    92    1
   133    85    86    2
   134   107   108    1
   135   129   128    2
   136   132   131    1
   137   132   133   ar
   138    87    88    1
   139   136   139    1
   140   136   135    1
   141    88    90   ar
   142   108   109    1
   143   131   130    1
   144   104   103    1
   145   104   105    2
   146    92    95    1
   147   103   102    1
   148   120   121    2
   149   139   140    1
   150   128   135   am
   151   128   127    1
   152   130   127    1
   153   140   141    1
   154   126   127    1
   155   142   141    2
   156   141   143   am
