@<TRIPOS>MOLECULE
tmp/5femB00.pdb
 80 75 0 0 0
SMALL
GASTEIGER

@<TRIPOS>ATOM
      1  N        178.9040   78.7100  228.3160 N.3    33  GLY33      -0.1210
      2  CA       179.5490   79.2330  229.5080 C.3    33  GLY33       0.1956
      3  C        179.4590   80.7440  229.4660 C.2    33  GLY33       0.2612
      4  O        178.9700   81.3070  228.4800 O.2    33  GLY33      -0.2717
      5  N        179.9420   81.4020  230.5160 N.am   34  GLY34      -0.1942
      6  CA       179.7570   82.8360  230.6830 C.3    34  GLY34       0.2014
      7  C        180.2970   83.7060  229.5600 C.2    34  GLY34       0.2638
      8  O        179.5720   84.5280  229.0040 O.2    34  GLY34      -0.2714
      9  N        181.5670   83.5310  229.2180 N.am   35  ALA35      -0.1977
     10  CA       182.1970   84.3990  228.2240 C.3    35  ALA35       0.1597
     11  C        181.5660   84.2860  226.8340 C.2    35  ALA35       0.2287
     12  O        181.6640   85.2150  226.0260 O.2    35  ALA35      -0.2864
     13  CB       183.6970   84.1230  228.1490 C.3    35  ALA35       0.0319
     14  N        178.3100   83.5370  226.2620 N.3    37  LEU37      -0.1245
     15  CA       176.8680   83.8190  226.3280 C.3    37  LEU37       0.1561
     16  C        176.2590   84.6430  225.1750 C.2    37  LEU37       0.2260
     17  O        175.1690   84.3060  224.6910 O.2    37  LEU37      -0.2867
     18  CB       176.5010   84.4630  227.6700 C.3    37  LEU37       0.0270
     19  CG       176.3350   83.5220  228.8610 C.3    37  LEU37       0.0019
     20  CD1      176.0620   84.3200  230.1180 C.3    37  LEU37       0.0001
     21  CD2      175.2120   82.5410  228.6030 C.3    37  LEU37       0.0001
     22  N        185.2960   80.4510  227.5690 N.3    81  SER81      -0.1217
     23  CA       186.6730   80.8000  227.9230 C.3    81  SER81       0.1889
     24  C        187.2330   79.8440  228.9780 C.2    81  SER81       0.2288
     25  O        186.5310   78.9580  229.4650 O.2    81  SER81      -0.2866
     26  CB       186.7280   82.2250  228.4710 C.3    81  SER81       0.2089
     27  OG       186.0500   82.3080  229.7190 O.3    81  SER81      -0.2183
     28  N        187.2320   86.3490  227.8950 N.3   109  VAL109     -0.1231
     29  CA       186.8320   87.4680  228.7470 C.3   109  VAL109      0.1678
     30  C        186.8680   88.7610  227.9270 C.2   109  VAL109      0.2434
     31  O        187.5160   88.8020  226.8740 O.2   109  VAL109     -0.2733
     32  CB       187.7520   87.5820  229.9870 C.3   109  VAL109      0.0265
     33  CG1      187.7690   86.2650  230.7500 C.3   109  VAL109      0.0020
     34  CG2      189.1650   87.9950  229.5810 C.3   109  VAL109      0.0020
     35  N        186.1510   89.8080  228.3820 N.am  110  PRO110     -0.2729
     36  CA       186.1490   91.0810  227.6440 C.3   110  PRO110      0.1401
     37  C        187.5600   91.6110  227.4160 C.2   110  PRO110      0.2269
     38  O        188.4260   91.3880  228.2650 O.2   110  PRO110     -0.2865
     39  CB       185.4010   92.0290  228.5840 C.3   110  PRO110      0.0296
     40  CG       184.4990   91.1390  229.3840 C.3   110  PRO110      0.0237
     41  CD       185.2670   89.8500  229.5650 C.3   110  PRO110      0.0939
     42  N        189.4410   93.0790  230.2190 N.3   113  ALA113     -0.1245
     43  CA       189.9120   92.1900  231.2850 C.3   113  ALA113      0.1562
     44  C        191.0950   91.3110  230.8750 C.2   113  ALA113      0.2260
     45  O        191.7490   90.7050  231.7280 O.2   113  ALA113     -0.2867
     46  CB       188.7680   91.3290  231.8040 C.3   113  ALA113      0.0290
     47  N        192.1120   87.4670  234.8160 N.3   118  ALA118     -0.1231
     48  CA       190.6870   87.5560  235.0960 C.3   118  ALA118      0.1694
     49  C        190.0460   86.1820  235.3150 C.2   118  ALA118      0.2592
     50  O        190.6190   85.1400  234.9760 O.2   118  ALA118     -0.2718
     51  CB       189.9800   88.2950  233.9630 C.3   118  ALA118      0.0304
     52  N        188.8450   86.2040  235.8790 N.am  119  PHE119     -0.1962
     53  CA       188.0250   85.0170  236.0620 C.3   119  PHE119      0.1771
     54  C        187.8320   84.2670  234.7440 C.2   119  PHE119      0.2619
     55  O        187.4130   84.8530  233.7360 O.2   119  PHE119     -0.2715
     56  CB       186.6710   85.4390  236.6430 C.3   119  PHE119      0.0574
     57  CG       185.6800   84.3210  236.7560 C.ar  119  PHE119     -0.0200
     58  CD1      185.9030   83.2600  237.6320 C.ar  119  PHE119     -0.0042
     59  CD2      184.5130   84.3360  236.0000 C.ar  119  PHE119     -0.0042
     60  CE1      184.9810   82.2250  237.7400 C.ar  119  PHE119     -0.0003
     61  CE2      183.5800   83.3090  236.1040 C.ar  119  PHE119     -0.0003
     62  CZ       183.8150   82.2510  236.9770 C.ar  119  PHE119     -0.0000
     63  N        188.1450   82.9720  234.7600 N.am  120  GLN120     -0.1977
     64  CA       188.0640   82.1180  233.5690 C.3   120  GLN120      0.1601
     65  C        188.8180   82.6500  232.3470 C.2   120  GLN120      0.2287
     66  O        188.4220   82.3920  231.2000 O.2   120  GLN120     -0.2864
     67  CB       186.6030   81.7990  233.2100 C.3   120  GLN120      0.0394
     68  CG       185.8230   81.1490  234.3550 C.3   120  GLN120      0.0908
     69  CD       184.5830   80.4140  233.8880 C.2   120  GLN120      0.2608
     70  OE1      183.7890   80.9420  233.1070 O.2   120  GLN120     -0.2717
     71  NE2      184.4170   79.1770  234.3560 N.am  120  GLN120     -0.0878
     72  N        184.0680   88.6130  225.0260 N.3   169  LYS169     -0.1245
     73  CA       182.6460   88.7980  225.3000 C.3   169  LYS169      0.1561
     74  C        182.1300   90.1620  224.8440 C.2   169  LYS169      0.2260
     75  O        181.0040   90.2680  224.3590 O.2   169  LYS169     -0.2867
     76  CB       182.3590   88.5910  226.7920 C.3   169  LYS169      0.0271
     77  CG       180.8690   88.4490  227.1330 C.3   169  LYS169      0.0035
     78  CD       180.6150   88.6830  228.6250 C.3   169  LYS169      0.0206
     79  CE       179.1160   88.7410  228.9370 C.3   169  LYS169      0.1093
     80  NZ       178.8490   89.2390  230.3240 N.3   169  LYS169     -0.1314
@<TRIPOS>BOND
     1    75    74    2
     2    17    16    2
     3    74    73    1
     4    72    73    1
     5    16    15    1
     6    73    76    1
     7    12    11    2
     8    14    15    1
     9    15    18    1
    10    76    77    1
    11    11    10    1
    12    31    30    2
    13    77    78    1
    14    37    36    1
    15    37    38    2
    16    22    23    1
    17    36    35    1
    18    36    39    1
    19    18    19    1
    20    28    29    1
    21    23    26    1
    22    23    24    1
    23    30    35   am
    24    30    29    1
    25    13    10    1
    26    10     9    1
    27     1     2    1
    28    35    41    1
    29    26    27    1
    30     4     3    2
    31    39    40    1
    32    21    19    1
    33    78    79    1
    34    29    32    1
    35    19    20    1
    36    79    80    1
    37    24    25    2
    38     8     7    2
    39     9     7   am
    40    40    41    1
    41     3     2    1
    42     3     5   am
    43     7     6    1
    44    34    32    1
    45    32    33    1
    46    42    43    1
    47     5     6    1
    48    44    43    1
    49    44    45    2
    50    66    65    2
    51    43    46    1
    52    65    64    1
    53    70    69    2
    54    67    64    1
    55    67    68    1
    56    64    63    1
    57    55    54    2
    58    69    68    1
    59    69    71   am
    60    51    48    1
    61    54    63   am
    62    54    53    1
    63    47    48    1
    64    50    49    2
    65    48    49    1
    66    49    52   am
    67    52    53    1
    68    59    61   ar
    69    59    57   ar
    70    53    56    1
    71    61    62   ar
    72    56    57    1
    73    57    58   ar
    74    62    60   ar
    75    58    60   ar
