@<TRIPOS>MOLECULE
tmp/5feqA00.pdb
 189 178 0 0 0
SMALL
GASTEIGER

@<TRIPOS>ATOM
      1  N        -18.6650    4.2740   46.4240 N.3    22  LEU22      -0.1231
      2  CA       -18.1960    3.1480   47.2130 C.3    22  LEU22       0.1696
      3  C        -18.3610    1.8170   46.4790 C.2    22  LEU22       0.2631
      4  O        -17.4840    0.9590   46.5920 O.2    22  LEU22      -0.2714
      5  CB       -18.8800    3.1130   48.5690 C.3    22  LEU22       0.0284
      6  CG       -18.6880    4.3240   49.4360 C.3    22  LEU22       0.0019
      7  CD1      -19.6620    4.3090   50.5620 C.3    22  LEU22       0.0001
      8  CD2      -17.3110    4.3710   49.9910 C.3    22  LEU22       0.0001
      9  N        -19.4430    1.6670   45.7110 N.am   23  GLY23      -0.1732
     10  CA       -19.6720    0.4450   44.9540 C.2    23  GLY23       0.1340
     11  C        -20.9890    0.3490   44.2260 C.2    23  GLY23       0.2521
     12  O        -22.0230    0.7540   44.7530 O.2    23  GLY23      -0.2816
     13  N        -27.7070   -4.9910   43.5530 N.3    27  PHE27      -0.1241
     14  CA       -28.3930   -4.3420   44.6770 C.3    27  PHE27       0.1605
     15  C        -28.6230   -2.8350   44.4220 C.2    27  PHE27       0.2264
     16  O        -29.5960   -2.2660   44.9300 O.2    27  PHE27      -0.2867
     17  CB       -27.5670   -4.5500   45.9740 C.3    27  PHE27       0.0534
     18  CG       -26.1260   -4.0720   45.9200 C.ar   27  PHE27      -0.0203
     19  CD1      -25.1640   -4.7740   45.1940 C.ar   27  PHE27      -0.0042
     20  CD2      -25.7230   -2.9420   46.6230 C.ar   27  PHE27      -0.0042
     21  CE1      -23.8370   -4.3320   45.1450 C.ar   27  PHE27      -0.0003
     22  CE2      -24.3910   -2.5040   46.5750 C.ar   27  PHE27      -0.0003
     23  CZ       -23.4600   -3.1990   45.8340 C.ar   27  PHE27      -0.0000
     24  N        -23.8560    2.4330   45.7090 N.3    30  VAL30      -0.1245
     25  CA       -23.6180    3.0390   47.0190 C.3    30  VAL30       0.1561
     26  C        -22.5950    4.1650   46.8420 C.2    30  VAL30       0.2260
     27  O        -21.5910    3.9830   46.1470 O.2    30  VAL30      -0.2867
     28  CB       -23.2330    2.0180   48.1280 C.3    30  VAL30       0.0252
     29  CG1      -23.1640    2.6950   49.4910 C.3    30  VAL30       0.0019
     30  CG2      -24.2200    0.8590   48.1800 C.3    30  VAL30       0.0019
     31  N        -23.5390    6.9080   53.6440 N.3    47  ALA47      -0.1245
     32  CA       -23.4850    6.0380   52.4870 C.3    47  ALA47       0.1562
     33  C        -24.9010    6.1530   51.8870 C.2    47  ALA47       0.2260
     34  O        -25.8830    6.0090   52.6200 O.2    47  ALA47      -0.2867
     35  CB       -23.1910    4.6200   52.9120 C.3    47  ALA47       0.0290
     36  N        -27.5110    4.7830   49.1090 N.3    49  LYS49      -0.1245
     37  CA       -27.8750    3.6890   48.2120 C.3    49  LYS49       0.1561
     38  C        -28.9950    4.2050   47.3370 C.2    49  LYS49       0.2260
     39  O        -29.9710    4.7260   47.8910 O.2    49  LYS49      -0.2867
     40  CB       -28.3550    2.4600   48.9980 C.3    49  LYS49       0.0271
     41  CG       -28.5890    1.2190   48.1370 C.3    49  LYS49       0.0035
     42  CD       -29.2620    0.1060   48.9290 C.3    49  LYS49       0.0206
     43  CE       -29.4130   -1.1530   48.1130 C.3    49  LYS49       0.1093
     44  NZ       -30.2750   -2.1550   48.7920 N.3    49  LYS49      -0.1314
     45  N        -37.2580   -1.9440   52.2040 N.3    61  GLU61      -0.1245
     46  CA       -35.9190   -2.0020   52.8150 C.3    61  GLU61       0.1567
     47  C        -35.7930   -0.7940   53.7890 C.2    61  GLU61       0.2260
     48  O        -35.2330   -0.9330   54.8770 O.2    61  GLU61      -0.2867
     49  CB       -34.8230   -1.9720   51.7210 C.3    61  GLU61       0.0388
     50  CG       -33.3890   -2.0050   52.2270 C.3    61  GLU61       0.1160
     51  CD       -32.4010   -2.7970   51.3870 C.2    61  GLU61       0.3649
     52  OE1      -32.7630   -3.2370   50.2700 O.co2  61  GLU61      -0.2457
     53  OE2      -31.2580   -2.9920   51.8640 O.co2  61  GLU61      -0.2457
     54  N        -35.4110   -0.8790   57.9690 N.3    65  MET65      -0.1245
     55  CA       -34.2640   -0.0980   58.4560 C.3    65  MET65       0.1570
     56  C        -34.6340    1.0170   59.4430 C.2    65  MET65       0.2261
     57  O        -33.8860    1.2920   60.3850 O.2    65  MET65      -0.2867
     58  CB       -33.4920    0.4940   57.2740 C.3    65  MET65       0.0387
     59  CG       -32.1560   -0.1750   57.0210 C.3    65  MET65       0.0595
     60  SD       -30.9460    0.9310   56.2040 S.3    65  MET65      -0.1393
     61  CE       -29.4870   -0.2560   55.9940 C.3    65  MET65       0.0692
     62  N        -27.3710   -1.7010   61.0920 N.3    74  CYS74      -0.1235
     63  CA       -27.2560   -0.5010   60.2440 C.3    74  CYS74       0.1677
     64  C        -28.4890    0.3690   60.3270 C.2    74  CYS74       0.2270
     65  O        -29.6160   -0.1030   60.1240 O.2    74  CYS74      -0.2867
     66  CB       -26.9310   -0.8590   58.7990 C.3    74  CYS74       0.0956
     67  SG       -25.1620   -1.0510   58.4660 S.3    74  CYS74      -0.0801
     68  N        -27.8770    6.2500   54.7890 N.3    89  MET89      -0.1230
     69  CA       -27.5060    5.4400   55.9500 C.3    89  MET89       0.1702
     70  C        -26.0950    5.7660   56.4160 C.2    89  MET89       0.2592
     71  O        -25.2760    6.2280   55.6230 O.2    89  MET89      -0.2718
     72  CB       -27.6040    3.9290   55.6720 C.3    89  MET89       0.0401
     73  CG       -28.8520    3.4960   54.9870 C.3    89  MET89       0.0596
     74  SD       -28.4360    2.2530   53.7440 S.3    89  MET89      -0.1393
     75  CE       -27.5910    3.2270   52.5400 C.3    89  MET89       0.0692
     76  N        -25.8150    5.4830   57.7070 N.am   90  GLN90      -0.1966
     77  CA       -24.5220    5.7060   58.3410 C.3    90  GLN90       0.1733
     78  C        -23.4030    5.0550   57.5400 C.2    90  GLN90       0.2616
     79  O        -23.4710    3.8630   57.2310 O.2    90  GLN90      -0.2715
     80  CB       -24.5410    5.1900   59.7980 C.3    90  GLN90       0.0408
     81  CG       -23.2120    5.2990   60.5650 C.3    90  GLN90       0.0908
     82  CD       -23.1490    4.4180   61.7970 C.2    90  GLN90       0.2608
     83  OE1      -24.0400    3.6080   62.0910 O.2    90  GLN90      -0.2717
     84  NE2      -22.0680    4.5420   62.5430 N.am   90  GLN90      -0.0878
     85  N        -22.3940    5.8570   57.1800 N.am   91  LEU91      -0.1963
     86  CA       -21.2210    5.3690   56.4720 C.3    91  LEU91       0.1728
     87  C        -20.3770    4.4490   57.3830 C.2    91  LEU91       0.2616
     88  O        -19.9840    4.8360   58.5000 O.2    91  LEU91      -0.2715
     89  CB       -20.3770    6.5230   55.9310 C.3    91  LEU91       0.0311
     90  CG       -19.0020    6.1740   55.4260 C.3    91  LEU91       0.0022
     91  CD1      -19.0670    5.4080   54.1260 C.3    91  LEU91       0.0001
     92  CD2      -18.1870    7.4040   55.2870 C.3    91  LEU91       0.0001
     93  N        -20.1300    3.2240   56.8650 N.am   92  MET92      -0.1964
     94  CA       -19.3200    2.1560   57.4440 C.3    92  MET92       0.1722
     95  C        -17.9960    2.2330   56.6880 C.2    92  MET92       0.2458
     96  O        -17.9370    1.8270   55.5280 O.2    92  MET92      -0.2730
     97  CB       -20.0370    0.8240   57.2470 C.3    92  MET92       0.0427
     98  CG       -21.4200    0.8230   57.8720 C.3    92  MET92       0.0599
     99  SD       -21.3420    0.9730   59.6770 S.3    92  MET92      -0.1393
    100  CE       -21.0890   -0.7210   60.1160 C.3    92  MET92       0.0692
    101  N        -16.9680    2.9040   57.2720 N.am   93  PRO93      -0.2716
    102  CA       -15.7480    3.1960   56.5070 C.3    93  PRO93       0.1536
    103  C        -14.9230    2.0360   55.9950 C.2    93  PRO93       0.2599
    104  O        -14.1990    2.2140   55.0160 O.2    93  PRO93      -0.2715
    105  CB       -14.9530    4.1210   57.4340 C.3    93  PRO93       0.0310
    106  CG       -15.9260    4.6280   58.4330 C.3    93  PRO93       0.0237
    107  CD       -16.9110    3.5280   58.6100 C.3    93  PRO93       0.0939
    108  N        -15.0440    0.8610   56.6220 N.am   94  PHE94      -0.1960
    109  CA       -14.2650   -0.3160   56.2360 C.3    94  PHE94       0.1771
    110  C        -14.9830   -1.3580   55.3540 C.2    94  PHE94       0.2620
    111  O        -14.4230   -2.4290   55.1110 O.2    94  PHE94      -0.2715
    112  CB       -13.6310   -0.9630   57.4700 C.3    94  PHE94       0.0574
    113  CG       -12.8360   -0.0110   58.3300 C.ar   94  PHE94      -0.0200
    114  CD1      -13.4640    0.7790   59.2850 C.ar   94  PHE94      -0.0042
    115  CD2      -11.4590    0.0720   58.2100 C.ar   94  PHE94      -0.0042
    116  CE1      -12.7310    1.6640   60.0690 C.ar   94  PHE94      -0.0003
    117  CE2      -10.7300    0.9480   59.0020 C.ar   94  PHE94      -0.0003
    118  CZ       -11.3720    1.7400   59.9240 C.ar   94  PHE94      -0.0000
    119  N        -16.1800   -1.0230   54.8600 N.am   95  GLY95      -0.1940
    120  CA       -16.9840   -1.9010   54.0150 C.3    95  GLY95       0.2014
    121  C        -17.4050   -3.1770   54.7200 C.2    95  GLY95       0.2639
    122  O        -17.5320   -3.1950   55.9450 O.2    95  GLY95      -0.2714
    123  N        -17.5910   -4.2570   53.9510 N.am   96  CYS96      -0.1967
    124  CA       -18.0010   -5.5740   54.4300 C.3    96  CYS96       0.1712
    125  C        -16.8800   -6.3140   55.0290 C.2    96  CYS96       0.2296
    126  O        -15.8030   -6.3880   54.4400 O.2    96  CYS96      -0.2864
    127  CB       -18.6440   -6.3880   53.3200 C.3    96  CYS96       0.0983
    128  SG       -17.7950   -6.2590   51.7260 S.3    96  CYS96      -0.0798
    129  N        -16.3080   -9.4220   55.0910 N.3    98  LEU98      -0.1231
    130  CA       -15.7480  -10.4450   54.2010 C.3    98  LEU98       0.1693
    131  C        -14.4720   -9.9200   53.5450 C.2    98  LEU98       0.2592
    132  O        -13.4040  -10.4980   53.7610 O.2    98  LEU98      -0.2718
    133  CB       -16.7590  -10.8900   53.1370 C.3    98  LEU98       0.0284
    134  CG       -16.2400  -11.8530   52.0800 C.3    98  LEU98       0.0019
    135  CD1      -16.2270  -13.2780   52.5840 C.3    98  LEU98       0.0001
    136  CD2      -17.0700  -11.7630   50.8530 C.3    98  LEU98       0.0001
    137  N        -14.5730   -8.7970   52.7980 N.am   99  ASP99      -0.1974
    138  CA       -13.4180   -8.1670   52.1520 C.3    99  ASP99       0.1709
    139  C        -12.3440   -7.8270   53.1740 C.2    99  ASP99       0.2293
    140  O        -11.1700   -8.0070   52.8740 O.2    99  ASP99      -0.2864
    141  CB       -13.8360   -6.9010   51.3930 C.3    99  ASP99       0.1436
    142  CG       -14.6390   -7.1480   50.1310 C.2    99  ASP99       0.3671
    143  OD1      -14.6310   -8.3030   49.6330 O.co2  99  ASP99      -0.2456
    144  OD2      -15.2320   -6.1740   49.6060 O.co2  99  ASP99      -0.2456
    145  N        -10.5060  -10.9580   54.2940 N.3   102  ARG102     -0.1245
    146  CA        -9.7250  -11.3570   53.1380 C.3   102  ARG102      0.1563
    147  C         -8.4880  -10.4610   53.0390 C.2   102  ARG102      0.2260
    148  O         -7.3750  -10.9770   53.0100 O.2   102  ARG102     -0.2867
    149  CB       -10.5750  -11.2850   51.8620 C.3   102  ARG102      0.0307
    150  CG       -11.6760  -12.3220   51.8180 C.3   102  ARG102      0.0489
    151  CD       -12.5190  -12.2480   50.5530 C.3   102  ARG102      0.2205
    152  NE       -13.3250  -13.4650   50.4120 N.pl3 102  ARG102     -0.0865
    153  CZ       -14.2950  -13.6490   49.5220 C.cat 102  ARG102      0.5346
    154  NH1      -14.6110  -12.6880   48.6620 N.pl3 102  ARG102      0.1354
    155  NH2      -14.9670  -14.7920   49.4940 N.pl3 102  ARG102      0.1354
    156  N        -20.5340  -10.7610   53.8650 N.3   140  ARG140     -0.1245
    157  CA       -20.6340   -9.6510   52.9260 C.3   140  ARG140      0.1563
    158  C        -21.7230   -8.6740   53.3940 C.2   140  ARG140      0.2260
    159  O        -21.6770   -7.5030   53.0190 O.2   140  ARG140     -0.2867
    160  CB       -20.9460  -10.1750   51.5080 C.3   140  ARG140      0.0307
    161  CG       -22.2850  -10.9070   51.4020 C.3   140  ARG140      0.0489
    162  CD       -22.5090  -11.6010   50.0860 C.3   140  ARG140      0.2205
    163  NE       -23.0620  -12.9400   50.2920 N.pl3 140  ARG140     -0.0865
    164  CZ       -24.3580  -13.2030   50.4400 C.cat 140  ARG140      0.5346
    165  NH1      -25.2510  -12.2150   50.4270 N.pl3 140  ARG140      0.1354
    166  NH2      -24.7700  -14.4520   50.6320 N.pl3 140  ARG140      0.1354
    167  N        -21.2450   -5.1570   57.9690 N.3   143  LEU143     -0.1245
    168  CA       -20.3260   -4.0570   57.7110 C.3   143  LEU143      0.1561
    169  C        -19.4440   -3.6660   58.8760 C.2   143  LEU143      0.2260
    170  O        -19.8020   -3.9020   60.0290 O.2   143  LEU143     -0.2867
    171  CB       -21.0150   -2.8540   57.0760 C.3   143  LEU143      0.0270
    172  CG       -21.8850   -3.1250   55.8520 C.3   143  LEU143      0.0019
    173  CD1      -22.5160   -1.8670   55.3780 C.3   143  LEU143      0.0001
    174  CD2      -21.1180   -3.8180   54.7250 C.3   143  LEU143      0.0001
    175  N        -26.2320   -5.6140   58.0280 N.3   153  THR153     -0.1203
    176  CA       -26.9200   -4.8690   56.9750 C.3   153  THR153      0.1994
    177  C        -27.7330   -5.7820   56.0310 C.2   153  THR153      0.2617
    178  O        -27.9140   -6.9620   56.3230 O.2   153  THR153     -0.2717
    179  CB       -25.9490   -3.9180   56.2630 C.3   153  THR153      0.1784
    180  OG1      -26.7070   -2.8790   55.6250 O.3   153  THR153     -0.2211
    181  CG2      -25.0280   -4.6370   55.2660 C.3   153  THR153      0.0376
    182  N        -28.2120   -5.2210   54.9020 N.am  154  ASP154     -0.1973
    183  CA       -29.0070   -5.8660   53.8560 C.3   154  ASP154      0.1709
    184  C        -30.3310   -6.4540   54.3540 C.2   154  ASP154      0.2293
    185  O        -30.4490   -7.6440   54.6990 O.2   154  ASP154     -0.2864
    186  CB       -28.1820   -6.8500   53.0250 C.3   154  ASP154      0.1436
    187  CG       -28.6560   -7.0090   51.5980 C.2   154  ASP154      0.3671
    188  OD1      -29.8200   -7.4570   51.3970 O.co2 154  ASP154     -0.2456
    189  OD2      -27.8470   -6.7530   50.6770 O.co2 154  ASP154     -0.2456
@<TRIPOS>BOND
     1    13    14    1
     2    11    12    2
     3    11    10    1
     4    15    14    1
     5    15    16    2
     6    14    17    1
     7    10     9    2
     8    21    19   ar
     9    21    23   ar
    10    19    18   ar
    11    24    25    1
    12     9     3    1
    13    23    22   ar
    14    18    17    1
    15    18    20   ar
    16    27    26    2
    17     1     2    1
    18     3     4    2
    19     3     2    1
    20    22    20   ar
    21    26    25    1
    22    25    28    1
    23     2     5    1
    24    38    39    2
    25    38    37    1
    26    43    44    1
    27    43    42    1
    28    28    30    1
    29    28    29    1
    30    41    42    1
    31    41    40    1
    32    37    40    1
    33    37    36    1
    34     5     6    1
    35   154   153    1
    36     6     8    1
    37     6     7    1
    38   155   153    1
    39   153   152    2
    40   144   142   ar
    41   143   142   ar
    42   162   163    1
    43   162   161    1
    44   142   141    1
    45    52    51   ar
    46   163   164    2
    47   152   151    1
    48   165   164    1
    49   164   166    1
    50   151   150    1
    51   189   187   ar
    52   136   134    1
    53    51    53   ar
    54    51    50    1
    55   141   138    1
    56   188   187   ar
    57   161   160    1
    58   160   157    1
    59   187   186    1
    60    49    50    1
    61    49    46    1
    62   128   127    1
    63   150   149    1
    64   149   146    1
    65    33    32    1
    66    33    34    2
    67   134   135    1
    68   134   133    1
    69   138   137    1
    70   138   139    1
    71    45    46    1
    72    32    35    1
    73    32    31    1
    74    75    74    1
    75   137   131   am
    76    46    47    1
    77   140   139    2
    78   157   158    1
    79   157   156    1
    80   148   147    2
    81   159   158    2
    82   186   183    1
    83   147   146    1
    84   133   130    1
    85   146   145    1
    86   127   124    1
    87   131   132    2
    88   131   130    1
    89    74    73    1
    90    47    48    2
    91   183   184    1
    92   183   182    1
    93   123   124    1
    94   123   121   am
    95   120   121    1
    96   120   119    1
    97    91    90    1
    98   130   129    1
    99   184   185    2
   100   124   125    1
   101   126   125    2
   102   121   122    2
   103   174   172    1
   104    68    69    1
   105   119   110   am
   106   182   177   am
   107    73    72    1
   108   104   103    2
   109   111   110    2
   110   181   179    1
   111    92    90    1
   112   110   109    1
   113   173   172    1
   114    90    89    1
   115    96    95    2
   116    71    70    2
   117   180   179    1
   118    72    69    1
   119   172   171    1
   120    89    86    1
   121    69    70    1
   122    61    60    1
   123   103   102    1
   124   103   108   am
   125   177   178    2
   126   177   176    1
   127    60    59    1
   128   109   108    1
   129   109   112    1
   130   179   176    1
   131    70    76   am
   132    86    85    1
   133    86    87    1
   134   102   101    1
   135   102   105    1
   136    95   101   am
   137    95    94    1
   138    93    87   am
   139    93    94    1
   140   176   175    1
   141    59    58    1
   142   171   168    1
   143    85    78   am
   144    79    78    2
   145    97    94    1
   146    97    98    1
   147   101   107    1
   148    58    55    1
   149    87    88    2
   150   105   106    1
   151   112   113    1
   152    78    77    1
   153    76    77    1
   154   168   167    1
   155   168   169    1
   156    98    99    1
   157    54    55    1
   158   115   113   ar
   159   115   117   ar
   160   113   114   ar
   161    77    80    1
   162   106   107    1
   163    55    56    1
   164    67    66    1
   165    66    63    1
   166   169   170    2
   167   117   118   ar
   168   114   116   ar
   169    56    57    2
   170    99   100    1
   171    80    81    1
   172   118   116   ar
   173    65    64    2
   174    63    64    1
   175    63    62    1
   176    81    82    1
   177    82    83    2
   178    82    84   am
