@<TRIPOS>MOLECULE
tmp/5fetA00.pdb
 176 164 0 0 0
SMALL
GASTEIGER

@<TRIPOS>ATOM
      1  N        -22.9830   16.1320   36.4500 N.3   530  ILE530     -0.1231
      2  CA       -24.2680   15.4290   36.6120 C.3   530  ILE530      0.1692
      3  C        -24.0890   13.9350   36.9870 C.2   530  ILE530      0.2593
      4  O        -24.9460   13.4050   37.6950 O.2   530  ILE530     -0.2718
      5  CB       -25.1720   15.5770   35.3550 C.3   530  ILE530      0.0266
      6  CG1      -24.4110   15.2730   34.0430 C.3   530  ILE530      0.0019
      7  CG2      -25.7640   16.9880   35.3060 C.3   530  ILE530      0.0020
      8  CD1      -25.3010   14.9110   32.9130 C.3   530  ILE530      0.0001
      9  N        -23.0160   13.2850   36.5260 N.am  531  GLY531     -0.1942
     10  CA       -22.7290   11.8830   36.8240 C.3   531  GLY531      0.2014
     11  C        -21.3360   11.6850   37.3870 C.2   531  GLY531      0.2638
     12  O        -20.5100   12.6000   37.3340 O.2   531  GLY531     -0.2714
     13  N        -21.0620   10.4880   37.9350 N.am  532  ARG532     -0.1977
     14  CA       -19.7510   10.1670   38.5150 C.3   532  ARG532      0.1597
     15  C        -19.5310    8.6470   38.5880 C.2   532  ARG532      0.2287
     16  O        -20.4790    7.8990   38.8270 O.2   532  ARG532     -0.2864
     17  CB       -19.6210   10.7900   39.9220 C.3   532  ARG532      0.0334
     18  CG       -18.2060   11.0850   40.3930 C.3   532  ARG532      0.0492
     19  CD       -17.6180   12.3050   39.6990 C.3   532  ARG532      0.2205
     20  NE       -16.3630   12.7610   40.3120 N.pl3 532  ARG532     -0.0865
     21  CZ       -15.1720   12.1600   40.1830 C.cat 532  ARG532      0.5346
     22  NH1      -15.0270   11.0470   39.4520 N.pl3 532  ARG532      0.1354
     23  NH2      -14.1060   12.6680   40.7980 N.pl3 532  ARG532      0.1354
     24  N        -19.4100   12.2860   34.1410 N.3   536  VAL536     -0.1245
     25  CA       -20.2890   12.9110   33.1480 C.3   536  VAL536      0.1561
     26  C        -20.4760   14.3770   33.5240 C.2   536  VAL536      0.2260
     27  O        -20.7680   14.6740   34.6820 O.2   536  VAL536     -0.2867
     28  CB       -21.6510   12.1860   33.0350 C.3   536  VAL536      0.0252
     29  CG1      -22.4130   12.6530   31.7960 C.3   536  VAL536      0.0019
     30  CG2      -21.4660   10.6740   33.0010 C.3   536  VAL536      0.0019
     31  N        -24.5480   16.4050   26.8660 N.3   549  ALA549     -0.1245
     32  CA       -23.9700   15.6590   27.9870 C.3   549  ALA549      0.1562
     33  C        -22.6320   15.0840   27.5130 C.2   549  ALA549      0.2260
     34  O        -22.5760   14.5300   26.4150 O.2   549  ALA549     -0.2867
     35  CB       -24.9050   14.5340   28.4010 C.3   549  ALA549      0.0290
     36  N        -19.3100   12.5660   28.5730 N.3   551  LYS551     -0.1245
     37  CA       -18.6470   11.5730   29.4290 C.3   551  LYS551      0.1561
     38  C        -17.1420   11.8270   29.3800 C.2   551  LYS551      0.2260
     39  O        -16.6570   12.3980   28.4060 O.2   551  LYS551     -0.2867
     40  CB       -18.9390   10.1460   28.9370 C.3   551  LYS551      0.0271
     41  CG       -18.6920    9.0570   29.9750 C.3   551  LYS551      0.0035
     42  CD       -19.2390    7.7090   29.5080 C.3   551  LYS551      0.0206
     43  CE       -19.1960    6.6550   30.5860 C.3   551  LYS551      0.1093
     44  NZ       -19.8370    5.3870   30.1460 N.3   551  LYS551     -0.1314
     45  N        -22.0340    2.2100   20.6540 N.3   574  THR574     -0.1218
     46  CA       -22.6940    3.4770   21.0030 C.3   574  THR574      0.1862
     47  C        -22.8800    4.4110   19.7910 C.2   574  THR574      0.2287
     48  O        -23.9020    5.0930   19.7150 O.2   574  THR574     -0.2866
     49  CB       -21.9040    4.2000   22.1110 C.3   574  THR574      0.1770
     50  OG1      -21.5180    3.2540   23.1090 O.3   574  THR574     -0.2211
     51  CG2      -22.7040    5.3170   22.7680 C.3   574  THR574      0.0375
     52  N        -29.6150    6.2500   23.8140 N.3   583  ILE583     -0.1245
     53  CA       -28.8800    7.5190   23.7550 C.3   583  ILE583      0.1561
     54  C        -28.1730    7.6620   22.3950 C.2   583  ILE583      0.2260
     55  O        -27.5760    6.7000   21.9060 O.2   583  ILE583     -0.2867
     56  CB       -27.8990    7.6470   24.9550 C.3   583  ILE583      0.0252
     57  CG1      -27.4810    9.1120   25.1760 C.3   583  ILE583      0.0019
     58  CG2      -26.6590    6.7520   24.8110 C.3   583  ILE583      0.0019
     59  CD1      -28.4180    9.8930   26.0160 C.3   583  ILE583      0.0001
     60  N        -25.2830    9.2820   20.0870 N.3   585  LEU585     -0.1245
     61  CA       -23.9290    9.8380   20.1400 C.3   585  LEU585      0.1561
     62  C        -23.7470   10.9230   19.0780 C.2   585  LEU585      0.2260
     63  O        -24.3060   10.8190   17.9860 O.2   585  LEU585     -0.2867
     64  CB       -22.9130    8.7070   19.9150 C.3   585  LEU585      0.0270
     65  CG       -21.4290    9.0220   20.1230 C.3   585  LEU585      0.0019
     66  CD1      -21.0960    9.1610   21.5980 C.3   585  LEU585      0.0001
     67  CD2      -20.5740    7.9360   19.5020 C.3   585  LEU585      0.0001
     68  N        -17.1140   11.1320   25.2630 N.3   595  PHE595     -0.1241
     69  CA       -18.3130   10.7350   24.5090 C.3   595  PHE595      0.1605
     70  C        -19.3900   11.8300   24.6210 C.2   595  PHE595      0.2264
     71  O        -20.0150   11.9540   25.6740 O.2   595  PHE595     -0.2867
     72  CB       -18.8810    9.3960   25.0260 C.3   595  PHE595      0.0534
     73  CG       -17.9590    8.2040   24.9220 C.ar  595  PHE595     -0.0203
     74  CD1      -17.0200    7.9440   25.9100 C.ar  595  PHE595     -0.0042
     75  CD2      -18.0930    7.2910   23.8870 C.ar  595  PHE595     -0.0042
     76  CE1      -16.1820    6.8320   25.8230 C.ar  595  PHE595     -0.0003
     77  CE2      -17.2540    6.1800   23.8020 C.ar  595  PHE595     -0.0003
     78  CZ       -16.3080    5.9550   24.7730 C.ar  595  PHE595     -0.0000
     79  N        -22.9870   13.1750   23.9210 N.3   597  THR597     -0.1203
     80  CA       -24.3310   12.6620   23.6270 C.3   597  THR597      0.1994
     81  C        -25.3960   13.7330   23.8820 C.2   597  THR597      0.2618
     82  O        -25.0840   14.8060   24.3940 O.2   597  THR597     -0.2717
     83  CB       -24.6250   11.4370   24.5080 C.3   597  THR597      0.1784
     84  OG1      -24.6190   11.8300   25.8800 O.3   597  THR597     -0.2211
     85  CG2      -23.6380   10.3060   24.2960 C.3   597  THR597      0.0376
     86  N        -26.6590   13.4250   23.5440 N.am  598  GLU598     -0.1965
     87  CA       -27.7910   14.3290   23.7800 C.3   598  GLU598      0.1733
     88  C        -28.0500   14.4770   25.2870 C.2   598  GLU598      0.2616
     89  O        -27.8090   13.5330   26.0400 O.2   598  GLU598     -0.2715
     90  CB       -29.0600   13.8150   23.0610 C.3   598  GLU598      0.0429
     91  CG       -29.7030   12.5810   23.6810 C.3   598  GLU598      0.1163
     92  CD       -30.6650   11.8470   22.7680 C.2   598  GLU598      0.3649
     93  OE1      -31.5040   12.5160   22.1230 O.co2 598  GLU598     -0.2457
     94  OE2      -30.6000   10.5970   22.7210 O.co2 598  GLU598     -0.2457
     95  N        -28.5360   15.6510   25.7230 N.am  599  LEU599     -0.1963
     96  CA       -28.8190   15.8890   27.1400 C.3   599  LEU599      0.1728
     97  C        -30.2070   15.3510   27.4930 C.2   599  LEU599      0.2616
     98  O        -31.2080   15.8550   26.9860 O.2   599  LEU599     -0.2715
     99  CB       -28.7220   17.3860   27.4810 C.3   599  LEU599      0.0311
    100  CG       -28.8580   17.7510   28.9690 C.3   599  LEU599      0.0022
    101  CD1      -27.6950   17.2070   29.7840 C.3   599  LEU599      0.0001
    102  CD2      -28.9520   19.2480   29.1550 C.3   599  LEU599      0.0001
    103  N        -30.2550   14.3370   28.3720 N.am  600  VAL600     -0.1977
    104  CA       -31.4890   13.7110   28.8510 C.3   600  VAL600      0.1596
    105  C        -31.7800   14.3920   30.1980 C.2   600  VAL600      0.2287
    106  O        -30.9950   14.2360   31.1330 O.2   600  VAL600     -0.2864
    107  CB       -31.2930   12.1740   28.9690 C.3   600  VAL600      0.0276
    108  CG1      -32.5480   11.4960   29.4950 C.3   600  VAL600      0.0022
    109  CG2      -30.8850   11.5700   27.6250 C.3   600  VAL600      0.0022
    110  N        -33.8210    9.9340   36.3430 N.3   604  GLU604     -0.1245
    111  CA       -33.5000    8.5050   36.3120 C.3   604  GLU604      0.1567
    112  C        -34.7540    7.6380   36.4500 C.2   604  GLU604      0.2260
    113  O        -35.6750    8.0110   37.1770 O.2   604  GLU604     -0.2867
    114  CB       -32.5110    8.1810   37.4490 C.3   604  GLU604      0.0388
    115  CG       -31.5380    7.0560   37.1290 C.3   604  GLU604      0.1160
    116  CD       -30.2710    7.4840   36.4110 C.2   604  GLU604      0.3649
    117  OE1      -29.8880    6.8030   35.4330 O.co2 604  GLU604     -0.2457
    118  OE2      -29.6660    8.5030   36.8170 O.co2 604  GLU604     -0.2457
    119  N        -31.0260    1.4120   36.9170 N.3   647  GLU647     -0.1231
    120  CA       -29.9260    2.3590   37.1650 C.3   647  GLU647      0.1699
    121  C        -29.2920    2.8740   35.8610 C.2   647  GLU647      0.2592
    122  O        -28.8440    4.0180   35.8290 O.2   647  GLU647     -0.2718
    123  CB       -28.8210    1.7240   38.0350 C.3   647  GLU647      0.0402
    124  CG       -29.2000    1.4560   39.4810 C.3   647  GLU647      0.1161
    125  CD       -29.6510    0.0390   39.7850 C.2   647  GLU647      0.3649
    126  OE1      -30.7950   -0.3140   39.4190 O.co2 647  GLU647     -0.2457
    127  OE2      -28.8600   -0.7180   40.3930 O.co2 647  GLU647     -0.2457
    128  N        -29.2610    2.0430   34.7940 N.am  648  ASN648     -0.1974
    129  CA       -28.6860    2.4140   33.4930 C.3   648  ASN648      0.1688
    130  C        -29.7470    2.9360   32.4930 C.2   648  ASN648      0.2292
    131  O        -29.5090    2.8900   31.2850 O.2   648  ASN648     -0.2864
    132  CB       -27.9400    1.2090   32.8900 C.3   648  ASN648      0.1181
    133  CG       -26.7860    0.7170   33.7270 C.2   648  ASN648      0.2629
    134  OD1      -26.2720    1.4170   34.6070 O.2   648  ASN648     -0.2716
    135  ND2      -26.3190   -0.4880   33.4400 N.am  648  ASN648     -0.0877
    136  N        -32.3940    6.3660   31.7980 N.3   650  LEU650     -0.1245
    137  CA       -32.8080    7.7340   32.1390 C.3   650  LEU650      0.1561
    138  C        -34.1200    8.0540   31.4370 C.2   650  LEU650      0.2260
    139  O        -34.4640    7.3830   30.4720 O.2   650  LEU650     -0.2867
    140  CB       -31.7560    8.7490   31.6740 C.3   650  LEU650      0.0270
    141  CG       -30.4460    8.7980   32.4590 C.3   650  LEU650      0.0019
    142  CD1      -29.3310    9.3250   31.5980 C.3   650  LEU650      0.0001
    143  CD2      -30.5710    9.6760   33.6940 C.3   650  LEU650      0.0001
    144  N        -28.4260    3.9670   28.3620 N.3   660  ILE660     -0.1231
    145  CA       -27.1530    4.7190   28.2670 C.3   660  ILE660      0.1692
    146  C        -25.8360    3.9140   28.4470 C.2   660  ILE660      0.2592
    147  O        -24.8890    4.2210   27.7230 O.2   660  ILE660     -0.2718
    148  CB       -27.1100    5.8920   29.2900 C.3   660  ILE660      0.0266
    149  CG1      -27.6350    5.4770   30.6850 C.3   660  ILE660      0.0019
    150  CG2      -27.8860    7.0930   28.7730 C.3   660  ILE660      0.0020
    151  CD1      -27.0290    6.2620   31.8070 C.3   660  ILE660      0.0001
    152  N        -25.7130    3.0040   29.4280 N.am  661  ASP661     -0.1974
    153  CA       -24.4360    2.3220   29.6880 C.3   661  ASP661      0.1709
    154  C        -24.1760    1.1590   28.7260 C.2   661  ASP661      0.2293
    155  O        -24.8220    0.1230   28.8550 O.2   661  ASP661     -0.2864
    156  CB       -24.3890    1.8180   31.1420 C.3   661  ASP661      0.1436
    157  CG       -23.0690    1.1750   31.5190 C.2   661  ASP661      0.3671
    158  OD1      -22.0620    1.9080   31.6240 O.co2 661  ASP661     -0.2456
    159  OD2      -23.0410   -0.0630   31.6920 O.co2 661  ASP661     -0.2456
    160  N        -31.6780   15.6020   38.0050 N.3   801  TYR801     -0.1227
    161  CA       -30.3590   14.9720   37.8630 C.3   801  TYR801      0.1736
    162  C        -29.9780   14.2180   39.1420 C.2   801  TYR801      0.2595
    163  O        -30.4340   14.5790   40.2290 O.2   801  TYR801     -0.2718
    164  CB       -29.2880   16.0300   37.5540 C.3   801  TYR801      0.0548
    165  CG       -29.5130   16.7620   36.2500 C.ar  801  TYR801     -0.0200
    166  CD1      -29.1270   16.2020   35.0380 C.ar  801  TYR801     -0.0009
    167  CD2      -30.1190   18.0120   36.2260 C.ar  801  TYR801     -0.0009
    168  CE1      -29.3300   16.8720   33.8340 C.ar  801  TYR801      0.0417
    169  CE2      -30.3300   18.6920   35.0280 C.ar  801  TYR801      0.0417
    170  CZ       -29.9410   18.1140   33.8310 C.ar  801  TYR801      0.1957
    171  OH       -30.1300   18.7710   32.6370 O.3   801  TYR801     -0.2866
    172  N        -29.1270   13.1860   39.0110 N.am  802  ALA802     -0.1980
    173  CA       -28.6770   12.3770   40.1490 C.3   802  ALA802      0.1597
    174  C        -27.6460   13.1360   40.9810 C.2   802  ALA802      0.2287
    175  O        -28.0090   13.8360   41.9230 O.2   802  ALA802     -0.2864
    176  CB       -28.0800   11.0670   39.6570 C.3   802  ALA802      0.0319
@<TRIPOS>BOND
     1    63    62    2
     2    62    61    1
     3    67    65    1
     4    48    47    2
     5    47    46    1
     6    64    65    1
     7    64    61    1
     8    60    61    1
     9    65    66    1
    10    45    46    1
    11    46    49    1
    12    55    54    2
    13    49    51    1
    14    49    50    1
    15    93    92   ar
    16    54    53    1
    17    94    92   ar
    18    92    91    1
    19    90    91    1
    20    90    87    1
    21    86    87    1
    22    86    81   am
    23    80    81    1
    24    80    79    1
    25    80    83    1
    26    53    52    1
    27    53    56    1
    28    87    88    1
    29    77    75   ar
    30    77    78   ar
    31    81    82    2
    32    75    73   ar
    33    85    83    1
    34    83    84    1
    35    69    70    1
    36    69    72    1
    37    69    68    1
    38    70    71    2
    39    78    76   ar
    40    58    56    1
    41    73    72    1
    42    73    74   ar
    43    56    57    1
    44    57    59    1
    45    88    95   am
    46    88    89    2
    47    95    96    1
    48    76    74   ar
    49    34    33    2
    50    31    32    1
    51    98    97    2
    52    96    99    1
    53    96    97    1
    54    99   100    1
    55    97   103   am
    56    33    32    1
    57   109   107    1
    58   147   146    2
    59    32    35    1
    60   145   144    1
    61   145   146    1
    62   145   148    1
    63   103   104    1
    64    39    38    2
    65   146   152   am
    66    36    37    1
    67   154   155    2
    68   154   153    1
    69   150   148    1
    70   104   107    1
    71   104   105    1
    72    40    37    1
    73    40    41    1
    74   107   108    1
    75   100   102    1
    76   100   101    1
    77   148   149    1
    78    38    37    1
    79   152   153    1
    80    42    41    1
    81    42    43    1
    82   153   156    1
    83    44    43    1
    84   105   106    2
    85   139   138    2
    86   149   151    1
    87   156   157    1
    88   131   130    2
    89   138   137    1
    90   157   158   ar
    91   157   159   ar
    92   142   141    1
    93   140   137    1
    94   140   141    1
    95    29    28    1
    96   136   137    1
    97   141   143    1
    98   130   129    1
    99   171   170    1
   100   132   129    1
   101   132   133    1
   102     8     6    1
   103    30    28    1
   104    28    25    1
   105    25    26    1
   106    25    24    1
   107   135   133   am
   108   129   128    1
   109    26    27    2
   110   133   134    2
   111   170   168   ar
   112   170   169   ar
   113   168   166   ar
   114     6     5    1
   115   128   121   am
   116   169   167   ar
   117   166   165   ar
   118     7     5    1
   119     5     2    1
   120   117   116   ar
   121   122   121    2
   122   121   120    1
   123   167   165   ar
   124   165   164    1
   125   111   110    1
   126   111   112    1
   127   111   114    1
   128   116   118   ar
   129   116   115    1
   130   112   113    2
   131     1     2    1
   132     9    10    1
   133     9     3   am
   134     2     3    1
   135    10    11    1
   136   119   120    1
   137     3     4    2
   138   115   114    1
   139   120   123    1
   140    12    11    2
   141    11    13   am
   142   164   161    1
   143   161   160    1
   144   161   162    1
   145    13    14    1
   146   123   124    1
   147    14    15    1
   148    14    17    1
   149    15    16    2
   150   172   162   am
   151   172   173    1
   152   162   163    2
   153   126   125   ar
   154    22    21    1
   155   124   125    1
   156   176   173    1
   157    19    20    1
   158    19    18    1
   159   125   127   ar
   160    17    18    1
   161   173   174    1
   162    21    20    2
   163    21    23    1
   164   174   175    2
