@<TRIPOS>MOLECULE
tmp/5fewA03.pdb
 154 143 0 0 0
SMALL
GASTEIGER

@<TRIPOS>ATOM
      1  N         40.7960    6.8270   28.3510 N.3    62  CYS62      -0.1235
      2  CA        40.7100    5.4230   28.0210 C.3    62  CYS62       0.1677
      3  C         40.7020    4.5570   29.2740 C.2    62  CYS62       0.2270
      4  O         41.4190    4.7770   30.2210 O.2    62  CYS62      -0.2867
      5  CB        41.8900    4.9600   27.1260 C.3    62  CYS62       0.0956
      6  SG        41.4940    3.3380   26.3650 S.3    62  CYS62      -0.0801
      7  N         46.6830   -0.7120   27.1590 N.3    66  CYS66      -0.1235
      8  CA        47.5440   -1.2800   26.1410 C.3    66  CYS66       0.1677
      9  C         48.9740   -0.8440   26.3430 C.2    66  CYS66       0.2270
     10  O         49.2390    0.3440   26.5710 O.2    66  CYS66      -0.2867
     11  CB        47.0520   -0.9290   24.7020 C.3    66  CYS66       0.0956
     12  SG        45.3240   -1.3570   24.4220 S.3    66  CYS66      -0.0801
     13  N         51.5820   -0.3720   24.5470 N.3    68  TYR68      -0.1227
     14  CA        52.2380    0.4780   23.5350 C.3    68  TYR68       0.1736
     15  C         51.7420    1.9140   23.5410 C.2    68  TYR68       0.2595
     16  O         52.3770    2.8080   22.9340 O.2    68  TYR68      -0.2718
     17  CB        52.0880   -0.0740   22.1570 C.3    68  TYR68       0.0548
     18  CG        50.7270   -0.6070   21.8170 C.ar   68  TYR68      -0.0200
     19  CD1       49.6790    0.2450   21.4060 C.ar   68  TYR68      -0.0009
     20  CD2       50.3880   -1.9500   21.9060 C.ar   68  TYR68      -0.0009
     21  CE1       48.4420   -0.2410   21.1340 C.ar   68  TYR68       0.0417
     22  CE2       49.1240   -2.4240   21.6570 C.ar   68  TYR68       0.0417
     23  CZ        48.1420   -1.5590   21.2640 C.ar   68  TYR68       0.1957
     24  OH        46.8790   -2.0570   20.9980 O.3    68  TYR68      -0.2866
     25  N         50.5500    2.1760   24.1380 N.am   69  CYS69      -0.1970
     26  CA        49.7700    3.3600   23.8210 C.3    69  CYS69       0.1712
     27  C         49.9470    4.4750   24.8740 C.2    69  CYS69       0.2296
     28  O         49.7200    4.2450   26.0870 O.2    69  CYS69      -0.2864
     29  CB        48.3100    3.0010   23.7320 C.3    69  CYS69       0.0983
     30  SG        47.2730    4.3990   23.2510 S.3    69  CYS69      -0.0798
     31  N         47.8880    6.7290   25.5930 N.3    71  LEU71      -0.1245
     32  CA        46.6340    7.0280   26.2290 C.3    71  LEU71       0.1561
     33  C         46.2470    5.9780   27.2940 C.2    71  LEU71       0.2260
     34  O         45.2360    6.0980   27.9280 O.2    71  LEU71      -0.2867
     35  CB        45.4520    7.1460   25.2350 C.3    71  LEU71       0.0270
     36  CG        45.6650    8.1830   24.1540 C.3    71  LEU71       0.0019
     37  CD1       44.3340    8.3050   23.3670 C.3    71  LEU71       0.0001
     38  CD2       46.2830    9.4410   24.4370 C.3    71  LEU71       0.0001
     39  N         37.2890    9.3780   16.4680 N.3   106  GLN106     -0.1231
     40  CA        38.1810    8.4690   17.1580 C.3   106  GLN106      0.1698
     41  C         38.3410    8.9250   18.5580 C.2   106  GLN106      0.2593
     42  O         38.4270   10.1200   18.8650 O.2   106  GLN106     -0.2718
     43  CB        39.5220    8.3190   16.4590 C.3   106  GLN106      0.0381
     44  CG        40.3960    7.1790   17.0340 C.3   106  GLN106      0.0905
     45  CD        41.6710    7.0110   16.3670 C.2   106  GLN106      0.2608
     46  OE1       42.6200    7.7740   16.6980 O.2   106  GLN106     -0.2717
     47  NE2       41.8060    6.0990   15.4760 N.am  106  GLN106     -0.0878
     48  N         38.5070    7.9490   19.4800 N.am  107  SER107     -0.1938
     49  CA        38.7710    8.2770   20.8740 C.3   107  SER107      0.2055
     50  C         39.4760    7.1220   21.5290 C.2   107  SER107      0.2644
     51  O         39.5030    5.9940   21.0270 O.2   107  SER107     -0.2714
     52  CB        37.4460    8.5660   21.5920 C.3   107  SER107      0.2130
     53  OG        36.5590    7.4820   21.5920 O.3   107  SER107     -0.2179
     54  N         39.9840    7.3980   22.7490 N.am  108  GLY108     -0.1939
     55  CA        40.1960    6.3130   23.6990 C.3   108  GLY108      0.2014
     56  C         38.8920    5.5890   23.9730 C.2   108  GLY108      0.2638
     57  O         37.7860    6.0950   23.6420 O.2   108  GLY108     -0.2714
     58  N         38.9430    4.4350   24.6290 N.am  109  GLU109     -0.1977
     59  CA        37.7300    3.7840   25.0750 C.3   109  GLU109      0.1602
     60  C         37.1900    4.5180   26.2960 C.2   109  GLU109      0.2287
     61  O         37.4340    4.1360   27.4650 O.2   109  GLU109     -0.2864
     62  CB        37.9340    2.3040   25.3890 C.3   109  GLU109      0.0415
     63  CG        38.2190    1.4690   24.1540 C.3   109  GLU109      0.1163
     64  CD        38.0990   -0.0100   24.3770 C.2   109  GLU109      0.3649
     65  OE1       37.6740   -0.4210   25.4870 O.co2 109  GLU109     -0.2457
     66  OE2       38.4260   -0.7970   23.4590 O.co2 109  GLU109     -0.2457
     67  N         35.8300    4.9900   15.3080 N.3   135  SER135     -0.1217
     68  CA        37.0220    4.2430   15.7260 C.3   135  SER135      0.1889
     69  C         37.1210    4.4210   17.2550 C.2   135  SER135      0.2288
     70  O         37.8500    5.2330   17.7640 O.2   135  SER135     -0.2866
     71  CB        38.2440    4.7710   15.0500 C.3   135  SER135      0.2089
     72  OG        39.4140    4.0730   15.3430 O.3   135  SER135     -0.2183
     73  N         37.0410    1.5950   19.5940 N.3   137  GLY137     -0.1225
     74  CA        37.4850    0.4210   20.3470 C.3   137  GLY137      0.1811
     75  C         36.4150   -0.6640   20.4120 C.2   137  GLY137      0.2280
     76  O         35.5110   -0.7670   19.5810 O.2   137  GLY137     -0.2866
     77  N         36.6030    1.4470   12.1780 N.3   156  LEU156     -0.1231
     78  CA        38.0070    1.0790   12.1700 C.3   156  LEU156      0.1693
     79  C         38.3590    0.4210   13.4780 C.2   156  LEU156      0.2592
     80  O         38.2180    1.0580   14.5120 O.2   156  LEU156     -0.2718
     81  CB        38.8900    2.3110   11.9780 C.3   156  LEU156      0.0284
     82  CG        38.5920    3.1940   10.8470 C.3   156  LEU156      0.0019
     83  CD1       39.4970    4.4170   10.8630 C.3   156  LEU156      0.0001
     84  CD2       38.6000    2.4710    9.5550 C.3   156  LEU156      0.0001
     85  N         38.8550   -0.8050   13.4330 N.am  157  LEU157     -0.1966
     86  CA        39.2540   -1.5230   14.6450 C.3   157  LEU157      0.1728
     87  C         40.4790   -2.3610   14.2520 C.2   157  LEU157      0.2616
     88  O         40.3560   -3.5210   13.8560 O.2   157  LEU157     -0.2715
     89  CB        38.0990   -2.3670   15.1460 C.3   157  LEU157      0.0311
     90  CG        38.3280   -2.9640   16.5200 C.3   157  LEU157      0.0022
     91  CD1       38.2670   -1.9270   17.6060 C.3   157  LEU157      0.0001
     92  CD2       37.2390   -4.0320   16.8170 C.3   157  LEU157      0.0001
     93  N         41.6330   -1.7090   14.3020 N.am  158  ARG158     -0.1977
     94  CA        42.8370   -2.4380   13.9190 C.3   158  ARG158      0.1597
     95  C         42.9500   -3.7240   14.7050 C.2   158  ARG158      0.2287
     96  O         42.7140   -3.7050   15.9240 O.2   158  ARG158     -0.2864
     97  CB        44.0700   -1.6300   14.1320 C.3   158  ARG158      0.0334
     98  CG        44.1420   -0.5040   13.1780 C.3   158  ARG158      0.0492
     99  CD        45.5390   -0.0100   13.3210 C.3   158  ARG158      0.2205
    100  NE        45.7430    1.1480   12.5840 N.pl3 158  ARG158     -0.0865
    101  CZ        46.9560    1.7510   12.4590 C.cat 158  ARG158      0.5346
    102  NH1       48.0170    1.2730   13.1830 N.pl3 158  ARG158      0.1354
    103  NH2       47.0630    2.7330   11.6540 N.pl3 158  ARG158      0.1354
    104  N         45.7400   -5.1830   15.3610 N.3   160  GLU160     -0.1245
    105  CA        46.9570   -4.8780   16.0730 C.3   160  GLU160      0.1567
    106  C         48.1020   -5.9280   15.8430 C.2   160  GLU160      0.2260
    107  O         49.1880   -5.5770   15.3760 O.2   160  GLU160     -0.2867
    108  CB        46.7050   -4.6730   17.5940 C.3   160  GLU160      0.0388
    109  CG        45.5840   -3.6670   17.9280 C.3   160  GLU160      0.1160
    110  CD        45.7680   -2.2810   17.4120 C.2   160  GLU160      0.3649
    111  OE1       46.7660   -1.9830   16.6900 O.co2 160  GLU160     -0.2457
    112  OE2       44.8830   -1.4420   17.7430 O.co2 160  GLU160     -0.2457
    113  N         47.9130   -6.2270   25.2360 N.3   171  ARG171     -0.1245
    114  CA        46.5870   -5.6650   25.4080 C.3   171  ARG171      0.1563
    115  C         45.9160   -6.4850   26.5590 C.2   171  ARG171      0.2260
    116  O         45.0090   -7.3000   26.3240 O.2   171  ARG171     -0.2867
    117  CB        45.8050   -5.7060   24.1210 C.3   171  ARG171      0.0307
    118  CG        46.5520   -5.0690   22.9760 C.3   171  ARG171      0.0489
    119  CD        45.7620   -4.9080   21.7090 C.3   171  ARG171      0.2205
    120  NE        44.7320   -3.8890   21.9300 N.pl3 171  ARG171     -0.0865
    121  CZ        43.4310   -4.1000   22.0540 C.cat 171  ARG171      0.5346
    122  NH1       42.8630   -5.2330   21.7380 N.pl3 171  ARG171      0.1354
    123  NH2       42.6370   -3.0890   22.4820 N.pl3 171  ARG171      0.1354
    124  N         38.8620   -9.2350   19.9650 N.3   179  ARG179     -0.1245
    125  CA        39.0520   -8.2660   18.8700 C.3   179  ARG179      0.1563
    126  C         38.4530   -8.7600   17.5680 C.2   179  ARG179      0.2260
    127  O         37.7520   -8.0430   16.8620 O.2   179  ARG179     -0.2867
    128  CB        40.5710   -7.9930   18.7340 C.3   179  ARG179      0.0307
    129  CG        40.9390   -6.7630   17.9310 C.3   179  ARG179      0.0489
    130  CD        40.7590   -5.5740   18.7500 C.3   179  ARG179      0.2205
    131  NE        41.3700   -4.3250   18.2080 N.pl3 179  ARG179     -0.0865
    132  CZ        41.2560   -3.0970   18.7530 C.cat 179  ARG179      0.5346
    133  NH1       40.6400   -2.9800   19.9040 N.pl3 179  ARG179      0.1354
    134  NH2       41.7550   -2.0650   18.1170 N.pl3 179  ARG179      0.1354
    135  N         46.4980   14.3200   22.3000 N.3   302  TYR302     -0.1241
    136  CA        46.1180   13.0320   21.7800 C.3   302  TYR302      0.1605
    137  C         47.3680   12.4120   21.2040 C.2   302  TYR302      0.2264
    138  O         47.5570   12.4190   19.9910 O.2   302  TYR302     -0.2867
    139  CB        45.0070   13.1350   20.7730 C.3   302  TYR302      0.0534
    140  CG        44.3200   11.8060   20.4910 C.ar  302  TYR302     -0.0201
    141  CD1       43.1900   11.4080   21.2280 C.ar  302  TYR302     -0.0009
    142  CD2       44.7330   10.9800   19.5130 C.ar  302  TYR302     -0.0009
    143  CE1       42.4830   10.2640   20.9610 C.ar  302  TYR302      0.0417
    144  CE2       44.0400    9.8380   19.1820 C.ar  302  TYR302      0.0417
    145  CZ        42.9340    9.4850   19.9000 C.ar  302  TYR302      0.1957
    146  OH        42.1750    8.4240   19.5130 O.3   302  TYR302     -0.2866
    147  N         49.2370    9.1970   21.0130 N.3   304  LEU304     -0.1245
    148  CA        49.4200    7.7550   21.1130 C.3   304  LEU304      0.1561
    149  C         50.8620    7.3820   21.1400 C.2   304  LEU304      0.2260
    150  O         51.2360    6.4350   21.7990 O.2   304  LEU304     -0.2867
    151  CB        48.7150    7.0320   19.8870 C.3   304  LEU304      0.0270
    152  CG        47.2700    7.4120   19.5660 C.3   304  LEU304      0.0019
    153  CD1       46.8730    6.7510   18.2870 C.3   304  LEU304      0.0001
    154  CD2       46.4410    7.1930   20.6210 C.3   304  LEU304      0.0001
@<TRIPOS>BOND
     1    84    82    1
     2    82    83    1
     3    82    81    1
     4   103   101    1
     5    81    78    1
     6    78    77    1
     7    78    79    1
     8   101   100    2
     9   101   102    1
    10   100    99    1
    11    98    99    1
    12    98    97    1
    13    85    79   am
    14    85    86    1
    15    79    80    2
    16    88    87    2
    17    94    97    1
    18    94    93    1
    19    94    95    1
    20    87    93   am
    21    87    86    1
    22    86    89    1
    23    95    96    2
    24    71    72    1
    25    71    68    1
    26    89    90    1
    27    67    68    1
    28   104   105    1
    29   107   106    2
    30    47    45   am
    31    68    69    1
    32   106   105    1
    33   105   108    1
    34    45    46    2
    35    45    44    1
    36    43    44    1
    37    43    40    1
    38    39    40    1
    39    90    92    1
    40    90    91    1
    41   111   110   ar
    42   127   126    2
    43    40    41    1
    44    69    70    2
    45   110   112   ar
    46   110   109    1
    47   126   125    1
    48   108   109    1
    49   129   128    1
    50   129   130    1
    51   134   132    1
    52   131   130    1
    53   131   132    2
    54   153   152    1
    55    41    42    2
    56    41    48   am
    57   128   125    1
    58   132   133    1
    59   125   124    1
    60   144   142   ar
    61   144   145   ar
    62    48    49    1
    63   142   140   ar
    64   146   145    1
    65   152   151    1
    66   152   154    1
    67    76    75    2
    68    73    74    1
    69   151   148    1
    70   145   143   ar
    71   138   137    2
    72    74    75    1
    73   140   139    1
    74   140   141   ar
    75   139   136    1
    76    49    50    1
    77    49    52    1
    78   143   141   ar
    79    24    23    1
    80   147   148    1
    81    51    50    2
    82   148   149    1
    83    21    23   ar
    84    21    19   ar
    85   149   150    2
    86   137   136    1
    87    23    22   ar
    88    19    18   ar
    89    50    54   am
    90    53    52    1
    91    22    20   ar
    92   119   120    1
    93   119   118    1
    94   122   121    1
    95   136   135    1
    96    18    20   ar
    97    18    17    1
    98   120   121    2
    99   121   123    1
   100    17    14    1
   101    54    55    1
   102    16    15    2
   103   118   117    1
   104    30    29    1
   105    37    36    1
   106    66    64   ar
   107    14    15    1
   108    14    13    1
   109    15    25   am
   110    57    56    2
   111    55    56    1
   112    29    26    1
   113    26    25    1
   114    26    27    1
   115    56    58   am
   116   117   114    1
   117    63    64    1
   118    63    62    1
   119    36    38    1
   120    36    35    1
   121    64    65   ar
   122    12    11    1
   123    58    59    1
   124    11     8    1
   125    27    28    2
   126    59    62    1
   127    59    60    1
   128    35    32    1
   129   113   114    1
   130   114   115    1
   131    31    32    1
   132     8     9    1
   133     8     7    1
   134    32    33    1
   135    60    61    2
   136   116   115    2
   137     9    10    2
   138     6     5    1
   139     5     2    1
   140    33    34    2
   141     2     1    1
   142     2     3    1
   143     3     4    2
