@<TRIPOS>MOLECULE
tmp/5fewA04.pdb
 191 181 0 0 0
SMALL
GASTEIGER

@<TRIPOS>ATOM
      1  N         39.7940   13.3760   10.5590 N.3    55  ILE55      -0.1245
      2  CA        39.6920   12.7060   11.8460 C.3    55  ILE55       0.1561
      3  C         39.5760   13.7040   12.9860 C.2    55  ILE55       0.2260
      4  O         40.4050   14.6160   13.0730 O.2    55  ILE55      -0.2867
      5  CB        40.8110   11.6590   12.0240 C.3    55  ILE55       0.0252
      6  CG1       40.5630   10.8270   13.2870 C.3    55  ILE55       0.0019
      7  CG2       42.1260   12.2310   11.9710 C.3    55  ILE55       0.0019
      8  CD1       41.4250    9.5650   13.3670 C.3    55  ILE55       0.0001
      9  N         51.5820   -0.3720   24.5470 N.3    68  TYR68      -0.1227
     10  CA        52.2380    0.4780   23.5350 C.3    68  TYR68       0.1736
     11  C         51.7420    1.9140   23.5410 C.2    68  TYR68       0.2595
     12  O         52.3770    2.8080   22.9340 O.2    68  TYR68      -0.2718
     13  CB        52.0880   -0.0740   22.1570 C.3    68  TYR68       0.0548
     14  CG        50.7270   -0.6070   21.8170 C.ar   68  TYR68      -0.0200
     15  CD1       49.6790    0.2450   21.4060 C.ar   68  TYR68      -0.0009
     16  CD2       50.3880   -1.9500   21.9060 C.ar   68  TYR68      -0.0009
     17  CE1       48.4420   -0.2410   21.1340 C.ar   68  TYR68       0.0417
     18  CE2       49.1240   -2.4240   21.6570 C.ar   68  TYR68       0.0417
     19  CZ        48.1420   -1.5590   21.2640 C.ar   68  TYR68       0.1957
     20  OH        46.8790   -2.0570   20.9980 O.3    68  TYR68      -0.2866
     21  N         50.5500    2.1760   24.1380 N.am   69  CYS69      -0.1970
     22  CA        49.7700    3.3600   23.8210 C.3    69  CYS69       0.1712
     23  C         49.9470    4.4750   24.8740 C.2    69  CYS69       0.2296
     24  O         49.7200    4.2450   26.0870 O.2    69  CYS69      -0.2864
     25  CB        48.3100    3.0010   23.7320 C.3    69  CYS69       0.0983
     26  SG        47.2730    4.3990   23.2510 S.3    69  CYS69      -0.0798
     27  N         37.2890    9.3780   16.4680 N.3   106  GLN106     -0.1245
     28  CA        38.1810    8.4690   17.1580 C.3   106  GLN106      0.1566
     29  C         38.3410    8.9250   18.5580 C.2   106  GLN106      0.2260
     30  O         38.4270   10.1200   18.8650 O.2   106  GLN106     -0.2867
     31  CB        39.5220    8.3190   16.4590 C.3   106  GLN106      0.0367
     32  CG        40.3960    7.1790   17.0340 C.3   106  GLN106      0.0905
     33  CD        41.6710    7.0110   16.3670 C.2   106  GLN106      0.2608
     34  OE1       42.6200    7.7740   16.6980 O.2   106  GLN106     -0.2717
     35  NE2       41.8060    6.0990   15.4760 N.am  106  GLN106     -0.0878
     36  N         35.8300    4.9900   15.3080 N.3   135  SER135     -0.1217
     37  CA        37.0220    4.2430   15.7260 C.3   135  SER135      0.1889
     38  C         37.1210    4.4210   17.2550 C.2   135  SER135      0.2288
     39  O         37.8500    5.2330   17.7640 O.2   135  SER135     -0.2866
     40  CB        38.2440    4.7710   15.0500 C.3   135  SER135      0.2089
     41  OG        39.4140    4.0730   15.3430 O.3   135  SER135     -0.2183
     42  N         36.6030    1.4470   12.1780 N.3   156  LEU156     -0.1245
     43  CA        38.0070    1.0790   12.1700 C.3   156  LEU156      0.1561
     44  C         38.3590    0.4210   13.4780 C.2   156  LEU156      0.2260
     45  O         38.2180    1.0580   14.5120 O.2   156  LEU156     -0.2867
     46  CB        38.8900    2.3110   11.9780 C.3   156  LEU156      0.0270
     47  CG        38.5920    3.1940   10.8470 C.3   156  LEU156      0.0019
     48  CD1       39.4970    4.4170   10.8630 C.3   156  LEU156      0.0001
     49  CD2       38.6000    2.4710    9.5550 C.3   156  LEU156      0.0001
     50  N         41.6330   -1.7090   14.3020 N.3   158  ARG158     -0.1245
     51  CA        42.8370   -2.4380   13.9190 C.3   158  ARG158      0.1563
     52  C         42.9500   -3.7240   14.7050 C.2   158  ARG158      0.2260
     53  O         42.7140   -3.7050   15.9240 O.2   158  ARG158     -0.2867
     54  CB        44.0700   -1.6300   14.1320 C.3   158  ARG158      0.0307
     55  CG        44.1420   -0.5040   13.1780 C.3   158  ARG158      0.0489
     56  CD        45.5390   -0.0100   13.3210 C.3   158  ARG158      0.2205
     57  NE        45.7430    1.1480   12.5840 N.pl3 158  ARG158     -0.0865
     58  CZ        46.9560    1.7510   12.4590 C.cat 158  ARG158      0.5346
     59  NH1       48.0170    1.2730   13.1830 N.pl3 158  ARG158      0.1354
     60  NH2       47.0630    2.7330   11.6540 N.pl3 158  ARG158      0.1354
     61  N         45.7400   -5.1830   15.3610 N.3   160  GLU160     -0.1245
     62  CA        46.9570   -4.8780   16.0730 C.3   160  GLU160      0.1567
     63  C         48.1020   -5.9280   15.8430 C.2   160  GLU160      0.2260
     64  O         49.1880   -5.5770   15.3760 O.2   160  GLU160     -0.2867
     65  CB        46.7050   -4.6730   17.5940 C.3   160  GLU160      0.0388
     66  CG        45.5840   -3.6670   17.9280 C.3   160  GLU160      0.1160
     67  CD        45.7680   -2.2810   17.4120 C.2   160  GLU160      0.3649
     68  OE1       46.7660   -1.9830   16.6900 O.co2 160  GLU160     -0.2457
     69  OE2       44.8830   -1.4420   17.7430 O.co2 160  GLU160     -0.2457
     70  N         38.8620   -9.2350   19.9650 N.3   179  ARG179     -0.1245
     71  CA        39.0520   -8.2660   18.8700 C.3   179  ARG179      0.1563
     72  C         38.4530   -8.7600   17.5680 C.2   179  ARG179      0.2260
     73  O         37.7520   -8.0430   16.8620 O.2   179  ARG179     -0.2867
     74  CB        40.5710   -7.9930   18.7340 C.3   179  ARG179      0.0307
     75  CG        40.9390   -6.7630   17.9310 C.3   179  ARG179      0.0489
     76  CD        40.7590   -5.5740   18.7500 C.3   179  ARG179      0.2205
     77  NE        41.3700   -4.3250   18.2080 N.pl3 179  ARG179     -0.0865
     78  CZ        41.2560   -3.0970   18.7530 C.cat 179  ARG179      0.5346
     79  NH1       40.6400   -2.9800   19.9040 N.pl3 179  ARG179      0.1354
     80  NH2       41.7550   -2.0650   18.1170 N.pl3 179  ARG179      0.1354
     81  N         50.2030   -3.0940   13.6490 N.3   198  MET198     -0.1245
     82  CA        51.4700   -2.3440   13.8420 C.3   198  MET198      0.1570
     83  C         52.6290   -3.2570   13.4280 C.2   198  MET198      0.2261
     84  O         52.5530   -4.4970   13.5130 O.2   198  MET198     -0.2867
     85  CB        51.6890   -1.8980   15.2590 C.3   198  MET198      0.0387
     86  CG        50.8410   -0.6890   15.6610 C.3   198  MET198      0.0595
     87  SD        50.9410   -0.2430   17.4380 S.3   198  MET198     -0.1393
     88  CE        49.9350   -1.5160   18.0500 C.3   198  MET198      0.0692
     89  N         50.8480    0.8170   10.3300 N.3   227  GLY227     -0.1210
     90  CA        51.9140    1.7560   10.5840 C.3   227  GLY227      0.1940
     91  C         52.9570    1.0870   11.4860 C.2   227  GLY227      0.2454
     92  O         52.7490   -0.0220   11.9990 O.2   227  GLY227     -0.2732
     93  N         54.0470    1.7690   11.6680 N.am  228  PRO228     -0.2717
     94  CA        55.1140    1.2810   12.5440 C.3   228  PRO228      0.1535
     95  C         54.7450    1.5110   14.0140 C.2   228  PRO228      0.2599
     96  O         54.0410    2.4500   14.3410 O.2   228  PRO228     -0.2715
     97  CB        56.2980    2.1550   12.2100 C.3   228  PRO228      0.0310
     98  CG        55.6340    3.5040   11.8920 C.3   228  PRO228      0.0237
     99  CD        54.4050    3.0930   11.1380 C.3   228  PRO228      0.0939
    100  N         55.2840    0.6270   14.8520 N.am  229  PHE229     -0.1960
    101  CA        55.2740    0.8740   16.3020 C.3   229  PHE229      0.1771
    102  C         56.2490    1.9880   16.6190 C.2   229  PHE229      0.2619
    103  O         57.3950    1.9660   16.1500 O.2   229  PHE229     -0.2715
    104  CB        55.6810   -0.3880   17.0520 C.3   229  PHE229      0.0574
    105  CG        56.0700   -0.1410   18.4800 C.ar  229  PHE229     -0.0200
    106  CD1       55.1330    0.3030   19.4140 C.ar  229  PHE229     -0.0042
    107  CD2       57.3610   -0.4010   18.8630 C.ar  229  PHE229     -0.0042
    108  CE1       55.5460    0.5740   20.7240 C.ar  229  PHE229     -0.0003
    109  CE2       57.7270   -0.1580   20.1950 C.ar  229  PHE229     -0.0003
    110  CZ        56.8380    0.3360   21.0770 C.ar  229  PHE229     -0.0000
    111  N         55.7830    2.9860   17.3780 N.am  230  ILE230     -0.1977
    112  CA        56.6330    4.0920   17.7960 C.3   230  ILE230      0.1596
    113  C         56.5790    4.1540   19.3550 C.2   230  ILE230      0.2287
    114  O         55.5670    4.4550   19.9300 O.2   230  ILE230     -0.2864
    115  CB        56.1690    5.4160   17.1980 C.3   230  ILE230      0.0276
    116  CG1       56.1860    5.3610   15.6610 C.3   230  ILE230      0.0022
    117  CG2       57.0260    6.6120   17.7040 C.3   230  ILE230      0.0022
    118  CD1       55.5120    6.5580   14.9920 C.3   230  ILE230      0.0001
    119  N         56.5260    5.0700   23.1630 N.3   232  HIS232     -0.1241
    120  CA        56.1060    6.2410   23.8770 C.3   232  HIS232      0.1621
    121  C         56.7620    6.2500   25.2770 C.2   232  HIS232      0.2264
    122  O         56.7330    5.2290   25.9620 O.2   232  HIS232     -0.2867
    123  CB        54.5590    6.2680   24.0020 C.3   232  HIS232      0.0745
    124  CG        54.0010    7.5140   24.5580 C.ar  232  HIS232      0.0817
    125  ND1       54.2300    7.9330   25.8550 N.ar  232  HIS232     -0.2268
    126  CD2       53.1630    8.4160   24.0110 C.ar  232  HIS232      0.1154
    127  CE1       53.5810    9.0730   26.0490 C.ar  232  HIS232      0.1986
    128  NE2       52.9630    9.4130   24.9270 N.ar  232  HIS232     -0.2212
    129  N         45.0310    3.5300    4.0440 N.3   265  PRO265     -0.2116
    130  CA        45.6010    4.8220    4.3300 C.3   265  PRO265      0.1372
    131  C         47.0920    4.8560    4.3530 C.2   265  PRO265      0.2244
    132  O         47.7660    3.8660    4.6740 O.2   265  PRO265     -0.2868
    133  CB        45.0420    5.1390    5.7160 C.3   265  PRO265      0.0268
    134  CG        44.8330    3.8830    6.3290 C.3   265  PRO265      0.0207
    135  CD        44.2550    3.0120    5.1970 C.3   265  PRO265      0.0892
    136  N         49.3070    6.3000    6.7850 N.3   267  THR267     -0.1203
    137  CA        49.0010    6.7130    8.1410 C.3   267  THR267      0.1994
    138  C         49.9140    7.7740    8.6540 C.2   267  THR267      0.2619
    139  O         51.0560    7.9720    8.2390 O.2   267  THR267     -0.2717
    140  CB        49.0350    5.5120    9.0750 C.3   267  THR267      0.1784
    141  OG1       50.3310    4.9440    9.0800 O.3   267  THR267     -0.2211
    142  CG2       48.0080    4.4630    8.7020 C.3   267  THR267      0.0376
    143  N         49.3840    8.5480    9.6230 N.am  268  THR268     -0.1938
    144  CA        50.1970    9.5790   10.2650 C.3   268  THR268      0.2028
    145  C         51.4450    9.0050   10.9010 C.2   268  THR268      0.2642
    146  O         52.4770    9.7000   10.8670 O.2   268  THR268     -0.2714
    147  CB        49.3480   10.3610   11.3200 C.3   268  THR268      0.1808
    148  OG1       48.3700   11.0930   10.6160 O.3   268  THR268     -0.2208
    149  CG2       50.1510   11.4180   12.0340 C.3   268  THR268      0.0379
    150  N         51.4000    7.8080   11.4410 N.am  269  ALA269     -0.1977
    151  CA        52.6160    7.2300   12.0020 C.3   269  ALA269      0.1597
    152  C         53.6980    7.0860   10.9570 C.2   269  ALA269      0.2287
    153  O         54.9020    7.2660   11.2370 O.2   269  ALA269     -0.2864
    154  CB        52.3080    5.9290   12.6710 C.3   269  ALA269      0.0319
    155  N         44.3080   10.7410    6.0550 N.3   290  MET290     -0.1245
    156  CA        43.4680   11.1130    7.1610 C.3   290  MET290      0.1570
    157  C         44.0230   12.4050    7.8410 C.2   290  MET290      0.2261
    158  O         44.6570   12.2830    8.8960 O.2   290  MET290     -0.2867
    159  CB        43.3320    9.9610    8.1410 C.3   290  MET290      0.0387
    160  CG        42.6700    8.7110    7.5470 C.3   290  MET290      0.0595
    161  SD        41.7190    7.7900    8.8650 S.3   290  MET290     -0.1393
    162  CE        41.7340    8.6300   10.2160 C.3   290  MET290      0.0692
    163  N         49.2370    9.1970   21.0130 N.3   304  LEU304     -0.1231
    164  CA        49.4200    7.7550   21.1130 C.3   304  LEU304      0.1693
    165  C         50.8620    7.3820   21.1400 C.2   304  LEU304      0.2592
    166  O         51.2360    6.4350   21.7990 O.2   304  LEU304     -0.2718
    167  CB        48.7150    7.0320   19.8870 C.3   304  LEU304      0.0284
    168  CG        47.2700    7.4120   19.5660 C.3   304  LEU304      0.0019
    169  CD1       46.8730    6.7510   18.2870 C.3   304  LEU304      0.0001
    170  CD2       46.4410    7.1930   20.6210 C.3   304  LEU304      0.0001
    171  N         51.6380    8.1580   20.3920 N.am  305  TYR305     -0.1976
    172  CA        53.0750    8.0580   20.2370 C.3   305  TYR305      0.1639
    173  C         53.6140    9.4360   20.1380 C.2   305  TYR305      0.2290
    174  O         52.9190   10.3930   19.7060 O.2   305  TYR305     -0.2864
    175  CB        53.4710    7.1970   19.0360 C.3   305  TYR305      0.0560
    176  CG        52.7640    7.5750   17.7530 C.ar  305  TYR305     -0.0198
    177  CD1       53.2370    8.6520   16.9700 C.ar  305  TYR305     -0.0009
    178  CD2       51.6450    6.9560   17.3040 C.ar  305  TYR305     -0.0009
    179  CE1       52.6610    9.0810   15.8360 C.ar  305  TYR305      0.0417
    180  CE2       50.9900    7.3730   16.1760 C.ar  305  TYR305      0.0417
    181  CZ        51.5180    8.4280   15.4450 C.ar  305  TYR305      0.1957
    182  OH        50.8520    8.8610   14.3140 O.3   305  TYR305     -0.2866
    183  N         54.1880   13.2870   16.9710 N.3   308  LYS308     -0.1245
    184  CA        53.1750   13.2690   15.9390 C.3   308  LYS308      0.1561
    185  C         53.1360   14.5620   15.1580 C.2   308  LYS308      0.2260
    186  O         53.1640   15.6700   15.6620 O.2   308  LYS308     -0.2867
    187  CB        51.8570   12.9730   16.5690 C.3   308  LYS308      0.0271
    188  CG        50.7230   12.6690   15.6140 C.3   308  LYS308      0.0035
    189  CD        49.4160   12.5400   16.3890 C.3   308  LYS308      0.0206
    190  CE        48.3640   11.7910   15.5930 C.3   308  LYS308      0.1093
    191  NZ        48.8180   10.3960   15.3060 N.3   308  LYS308     -0.1314
@<TRIPOS>BOND
     1   129   130    1
     2   129   135    1
     3   130   131    1
     4   130   133    1
     5   131   132    2
     6   135   134    1
     7   133   134    1
     8   155   156    1
     9   136   137    1
    10   156   157    1
    11   156   159    1
    12   160   159    1
    13   160   161    1
    14   157   158    2
    15   137   138    1
    16   137   140    1
    17   139   138    2
    18   138   143   am
    19   142   140    1
    20   161   162    1
    21   140   141    1
    22    49    47    1
    23   143   144    1
    24   144   145    1
    25   144   147    1
    26    89    90    1
    27     1     2    1
    28    90    91    1
    29   148   147    1
    30    47    48    1
    31    47    46    1
    32   146   145    2
    33   145   150   am
    34   152   153    2
    35   152   151    1
    36    99    93    1
    37    99    98    1
    38   147   149    1
    39   150   151    1
    40    91    93   am
    41    91    92    2
    42    60    58    1
    43    93    94    1
    44     2     5    1
    45     2     3    1
    46    98    97    1
    47     7     5    1
    48    46    43    1
    49   151   154    1
    50     5     6    1
    51    43    42    1
    52    43    44    1
    53    97    94    1
    54    58    57    2
    55    58    59    1
    56    94    95    1
    57    57    56    1
    58     3     4    2
    59    55    56    1
    60    55    54    1
    61     6     8    1
    62    83    84    2
    63    83    82    1
    64    44    45    2
    65    81    82    1
    66    82    85    1
    67    51    54    1
    68    51    50    1
    69    51    52    1
    70    95    96    2
    71    95   100   am
    72   182   181    1
    73    52    53    2
    74   100   101    1
    75   118   116    1
    76    40    41    1
    77    40    37    1
    78   185   186    2
    79   185   184    1
    80    85    86    1
    81   191   190    1
    82    36    37    1
    83    61    62    1
    84    64    63    2
    85   181   179   ar
    86   181   180   ar
    87    35    33   am
    88   190   189    1
    89   188   189    1
    90   188   187    1
    91    86    87    1
    92   116   115    1
    93    37    38    1
    94   179   177   ar
    95    63    62    1
    96   184   187    1
    97   184   183    1
    98    62    65    1
    99   103   102    2
   100   180   178   ar
   101   101   102    1
   102   101   104    1
   103    33    34    2
   104    33    32    1
   105    31    32    1
   106    31    28    1
   107    27    28    1
   108   102   111   am
   109    68    67   ar
   110    73    72    2
   111   177   176   ar
   112   104   105    1
   113    28    29    1
   114   115   117    1
   115   115   112    1
   116    38    39    2
   117   178   176   ar
   118   111   112    1
   119    67    69   ar
   120    67    66    1
   121    87    88    1
   122    72    71    1
   123    65    66    1
   124   176   175    1
   125   112   113    1
   126    75    74    1
   127    75    76    1
   128    80    78    1
   129    77    76    1
   130    77    78    2
   131   169   168    1
   132   105   107   ar
   133   105   106   ar
   134    29    30    2
   135    74    71    1
   136    78    79    1
   137   107   109   ar
   138    71    70    1
   139   175   172    1
   140   113   114    2
   141   106   108   ar
   142   168   167    1
   143   168   170    1
   144   174   173    2
   145   167   164    1
   146   173   172    1
   147   109   110   ar
   148   172   171    1
   149   171   165   am
   150   108   110   ar
   151    20    19    1
   152   163   164    1
   153   164   165    1
   154    17    19   ar
   155    17    15   ar
   156   165   166    2
   157    19    18   ar
   158    15    14   ar
   159    18    16   ar
   160    14    16   ar
   161    14    13    1
   162    13    10    1
   163    12    11    2
   164   119   120    1
   165    26    25    1
   166    10    11    1
   167    10     9    1
   168    11    21   am
   169    25    22    1
   170    22    21    1
   171    22    23    1
   172   120   123    1
   173   120   121    1
   174   123   124    1
   175   126   124   ar
   176   126   128   ar
   177   124   125   ar
   178    23    24    2
   179   128   127   ar
   180   121   122    2
   181   125   127   ar
