@<TRIPOS>MOLECULE
tmp/5fexA06.pdb
 99 92 0 0 0
SMALL
GASTEIGER

@<TRIPOS>ATOM
      1  N         39.8880   13.4520   10.6210 N.3    55  ILE55      -0.1245
      2  CA        39.8110   12.8140   11.9310 C.3    55  ILE55       0.1561
      3  C         39.7150   13.8240   13.0620 C.2    55  ILE55       0.2260
      4  O         40.4920   14.7510   13.1900 O.2    55  ILE55      -0.2867
      5  CB        40.9770   11.7410   12.1500 C.3    55  ILE55       0.0252
      6  CG1       40.7630   10.9830   13.4850 C.3    55  ILE55       0.0019
      7  CG2       42.2770   12.3570   12.0940 C.3    55  ILE55       0.0019
      8  CD1       41.5700    9.6790   13.5420 C.3    55  ILE55       0.0001
      9  N         37.3660    9.4810   16.5480 N.3   106  GLN106     -0.1245
     10  CA        38.2560    8.5690   17.2280 C.3   106  GLN106      0.1566
     11  C         38.4240    8.9910   18.6880 C.2   106  GLN106      0.2260
     12  O         38.4600   10.2030   18.9820 O.2   106  GLN106     -0.2867
     13  CB        39.6340    8.4540   16.5640 C.3   106  GLN106      0.0367
     14  CG        40.4750    7.2990   17.1490 C.3   106  GLN106      0.0905
     15  CD        41.7840    7.1210   16.4840 C.2   106  GLN106      0.2608
     16  OE1       42.7590    7.8440   16.8690 O.2   106  GLN106     -0.2717
     17  NE2       41.9160    6.2180   15.5780 N.am  106  GLN106     -0.0878
     18  N         36.7440    1.5410   12.1900 N.3   155  LEU155     -0.1245
     19  CA        38.1460    1.1770   12.1820 C.3   155  LEU155      0.1561
     20  C         38.4890    0.4850   13.5130 C.2   155  LEU155      0.2260
     21  O         38.3370    1.1270   14.5700 O.2   155  LEU155     -0.2867
     22  CB        39.0370    2.3990   12.0540 C.3   155  LEU155      0.0270
     23  CG        38.7110    3.3290   10.9280 C.3   155  LEU155      0.0019
     24  CD1       39.6550    4.5460   10.9780 C.3   155  LEU155      0.0001
     25  CD2       38.7310    2.5860    9.5740 C.3   155  LEU155      0.0001
     26  N         41.7690   -1.7060   14.3500 N.3   157  ARG157     -0.1245
     27  CA        42.9910   -2.4360   13.9570 C.3   157  ARG157      0.1563
     28  C         43.0610   -3.7410   14.7630 C.2   157  ARG157      0.2260
     29  O         42.8260   -3.7210   15.9940 O.2   157  ARG157     -0.2867
     30  CB        44.2220   -1.6040   14.1810 C.3   157  ARG157      0.0307
     31  CG        44.3370   -0.4730   13.1980 C.3   157  ARG157      0.0489
     32  CD        45.7600    0.0550   13.3990 C.3   157  ARG157      0.2205
     33  NE        45.9460    1.2290   12.6300 N.pl3 157  ARG157     -0.0865
     34  CZ        47.1550    1.7950   12.4800 C.cat 157  ARG157      0.5346
     35  NH1       48.1950    1.3560   13.1740 N.pl3 157  ARG157      0.1354
     36  NH2       47.2670    2.7810   11.6250 N.pl3 157  ARG157      0.1354
     37  N         45.1710    3.6050    4.0500 N.3   264  PRO264     -0.2116
     38  CA        45.7190    4.9150    4.3230 C.3   264  PRO264      0.1372
     39  C         47.2510    4.9380    4.3440 C.2   264  PRO264      0.2244
     40  O         47.9240    3.9180    4.6510 O.2   264  PRO264     -0.2868
     41  CB        45.1690    5.2370    5.7000 C.3   264  PRO264      0.0268
     42  CG        44.9590    3.9710    6.3160 C.3   264  PRO264      0.0207
     43  CD        44.4420    3.0720    5.2460 C.3   264  PRO264      0.0892
     44  N         49.4690    6.3460    6.7830 N.3   266  THR266     -0.1203
     45  CA        49.1580    6.7560    8.1620 C.3   266  THR266      0.1994
     46  C         50.0900    7.8480    8.6630 C.2   266  THR266      0.2619
     47  O         51.2390    8.0230    8.2040 O.2   266  THR266     -0.2717
     48  CB        49.1890    5.5480    9.0810 C.3   266  THR266      0.1784
     49  OG1       50.5150    4.9860    9.0660 O.3   266  THR266     -0.2211
     50  CG2       48.1390    4.5320    8.7230 C.3   266  THR266      0.0376
     51  N         49.6060    8.6460    9.6120 N.am  267  THR267     -0.1938
     52  CA        50.3930    9.6400   10.1910 C.3   267  THR267      0.2028
     53  C         51.6590    9.0510   10.8640 C.2   267  THR267      0.2642
     54  O         52.7080    9.7370   10.8070 O.2   267  THR267     -0.2714
     55  CB        49.6030   10.4860   11.2140 C.3   267  THR267      0.1808
     56  OG1       48.6240   11.2230   10.5160 O.3   267  THR267     -0.2208
     57  CG2       50.4810   11.4980   11.9700 C.3   267  THR267      0.0379
     58  N         51.6030    7.8550   11.4320 N.am  268  ALA268     -0.1977
     59  CA        52.8200    7.2810   12.0010 C.3   268  ALA268      0.1597
     60  C         53.8930    7.1470   10.9370 C.2   268  ALA268      0.2287
     61  O         55.1180    7.3300   11.2290 O.2   268  ALA268     -0.2864
     62  CB        52.5250    5.9740   12.6730 C.3   268  ALA268      0.0319
     63  N         44.4710   10.8050    6.0710 N.3   289  MET289     -0.1245
     64  CA        43.6470   11.1590    7.1970 C.3   289  MET289      0.1570
     65  C         44.1970   12.4380    7.9050 C.2   289  MET289      0.2261
     66  O         44.7750   12.3130    8.9920 O.2   289  MET289     -0.2867
     67  CB        43.5050    9.9280    8.1260 C.3   289  MET289      0.0387
     68  CG        42.9100    8.7070    7.4650 C.3   289  MET289      0.0595
     69  SD        41.8650    7.7070    8.6650 S.3   289  MET289     -0.1393
     70  CE        41.8260    8.6060   10.2470 C.3   289  MET289      0.0692
     71  N         49.3550    9.2030   20.9340 N.3   303  LEU303     -0.1231
     72  CA        49.4880    7.7750   21.0830 C.3   303  LEU303      0.1693
     73  C         50.9310    7.4440   21.0980 C.2   303  LEU303      0.2592
     74  O         51.3180    6.5120   21.7910 O.2   303  LEU303     -0.2718
     75  CB        48.7970    7.0740   19.8930 C.3   303  LEU303      0.0284
     76  CG        47.3390    7.4410   19.5320 C.3   303  LEU303      0.0019
     77  CD1       46.8620    6.5380   18.4850 C.3   303  LEU303      0.0001
     78  CD2       46.5120    7.4520   20.6820 C.3   303  LEU303      0.0001
     79  N         51.6930    8.2150   20.3540 N.am  304  TYR304     -0.1976
     80  CA        53.1040    8.1340   20.2470 C.3   304  TYR304      0.1639
     81  C         53.6680    9.5370   20.1190 C.2   304  TYR304      0.2290
     82  O         52.9540   10.4500   19.6730 O.2   304  TYR304     -0.2864
     83  CB        53.5670    7.2740   19.0470 C.3   304  TYR304      0.0560
     84  CG        52.8720    7.6710   17.7260 C.ar  304  TYR304     -0.0198
     85  CD1       53.3820    8.7300   16.9510 C.ar  304  TYR304     -0.0009
     86  CD2       51.7630    7.0390   17.2660 C.ar  304  TYR304     -0.0009
     87  CE1       52.7920    9.1790   15.7930 C.ar  304  TYR304      0.0417
     88  CE2       51.1010    7.4750   16.1110 C.ar  304  TYR304      0.0417
     89  CZ        51.5900    8.5460   15.3880 C.ar  304  TYR304      0.1957
     90  OH        51.0030    9.0050   14.2410 O.3   304  TYR304     -0.2866
     91  N         54.2970   13.3390   16.9430 N.3   307  LYS307     -0.1245
     92  CA        53.2320   13.3700   15.9120 C.3   307  LYS307      0.1561
     93  C         53.2510   14.7240   15.1590 C.2   307  LYS307      0.2260
     94  O         53.2840   15.8230   15.7230 O.2   307  LYS307     -0.2867
     95  CB        51.9120   13.1760   16.5630 C.3   307  LYS307      0.0271
     96  CG        50.7460   12.9330   15.6300 C.3   307  LYS307      0.0035
     97  CD        49.4450   12.9060   16.4250 C.3   307  LYS307      0.0206
     98  CE        48.3330   12.2170   15.6580 C.3   307  LYS307      0.1093
     99  NZ        48.6870   10.7890   15.3900 N.3   307  LYS307     -0.1314
@<TRIPOS>BOND
     1    37    38    1
     2    37    43    1
     3    38    39    1
     4    38    41    1
     5    39    40    2
     6    43    42    1
     7    41    42    1
     8    63    64    1
     9    44    45    1
    10    64    65    1
    11    64    67    1
    12    68    67    1
    13    68    69    1
    14    65    66    2
    15    45    46    1
    16    45    48    1
    17    47    46    2
    18    46    51   am
    19    69    70    1
    20    50    48    1
    21    49    48    1
    22    25    23    1
    23    51    52    1
    24    52    53    1
    25    52    55    1
    26    56    55    1
    27     1     2    1
    28    54    53    2
    29    53    58   am
    30    23    24    1
    31    23    22    1
    32    60    61    2
    33    60    59    1
    34    55    57    1
    35    58    59    1
    36    36    34    1
    37     2     5    1
    38     2     3    1
    39    59    62    1
    40    22    19    1
    41     7     5    1
    42     5     6    1
    43    19    18    1
    44    19    20    1
    45    34    33    2
    46    34    35    1
    47    33    32    1
    48     3     4    2
    49    31    32    1
    50    31    30    1
    51     6     8    1
    52    20    21    2
    53    27    30    1
    54    27    26    1
    55    27    28    1
    56    90    89    1
    57    28    29    2
    58    93    94    2
    59    93    92    1
    60    89    87   ar
    61    89    88   ar
    62    99    98    1
    63    17    15   am
    64    96    97    1
    65    96    95    1
    66    98    97    1
    67    87    85   ar
    68    92    95    1
    69    92    91    1
    70    88    86   ar
    71    15    16    2
    72    15    14    1
    73     9    10    1
    74    13    14    1
    75    13    10    1
    76    85    84   ar
    77    10    11    1
    78    86    84   ar
    79    84    83    1
    80    77    76    1
    81    11    12    2
    82    83    80    1
    83    76    75    1
    84    76    78    1
    85    82    81    2
    86    75    72    1
    87    81    80    1
    88    80    79    1
    89    79    73   am
    90    71    72    1
    91    72    73    1
    92    73    74    2
