@<TRIPOS>MOLECULE
tmp/5ff0A05.pdb
 95 91 0 0 0
SMALL
GASTEIGER

@<TRIPOS>ATOM
      1  N         67.5510   -3.7920   -2.6160 N.3    28  ARG28      -0.1245
      2  CA        66.9320   -2.5590   -3.0500 C.3    28  ARG28       0.1563
      3  C         66.1410   -2.7360   -4.3360 C.2    28  ARG28       0.2260
      4  O         65.0060   -2.2360   -4.5200 O.2    28  ARG28      -0.2867
      5  CB        68.0030   -1.4950   -3.2190 C.3    28  ARG28       0.0307
      6  CG        67.4210   -0.1330   -3.6220 C.3    28  ARG28       0.0489
      7  CD        68.4190    0.9900   -3.4410 C.3    28  ARG28       0.2205
      8  NE        68.9990    1.1270   -2.0770 N.pl3  28  ARG28      -0.0865
      9  CZ        68.5210    1.7410   -0.9820 C.cat  28  ARG28       0.5346
     10  NH1       67.2710    2.3390   -0.9010 N.pl3  28  ARG28       0.1354
     11  NH2       69.2960    1.6950    0.1090 N.pl3  28  ARG28       0.1354
     12  N         62.8970   -4.5080   -3.5620 N.3    31  ASN31      -0.1225
     13  CA        61.9510   -3.6320   -2.8680 C.3    31  ASN31       0.1785
     14  C         61.3530   -2.6280   -3.7920 C.2    31  ASN31       0.2597
     15  O         60.1130   -2.3950   -3.7590 O.2    31  ASN31      -0.2718
     16  CB        62.6190   -2.9420   -1.6910 C.3    31  ASN31       0.1169
     17  CG        62.9470   -3.8590   -0.5410 C.2    31  ASN31       0.2627
     18  OD1       62.4040   -4.9400   -0.4330 O.2    31  ASN31      -0.2716
     19  ND2       63.7520   -3.3160    0.4000 N.am   31  ASN31      -0.0877
     20  N         62.1190   -2.0050   -4.6400 N.am   32  GLU32      -0.1979
     21  CA        61.5850   -1.0200   -5.5510 C.3    32  GLU32       0.1602
     22  C         60.6100   -1.6110   -6.5330 C.2    32  GLU32       0.2287
     23  O         59.6100   -0.9820   -6.8840 O.2    32  GLU32      -0.2864
     24  CB        62.7420   -0.2860   -6.2380 C.3    32  GLU32       0.0415
     25  CG        63.5590    0.5890   -5.2840 C.3    32  GLU32       0.1163
     26  CD        64.7050    1.3780   -5.9100 C.2    32  GLU32       0.3649
     27  OE1       64.8060    1.3620   -7.1630 O.co2  32  GLU32      -0.2457
     28  OE2       65.4240    2.0730   -5.1510 O.co2  32  GLU32      -0.2457
     29  N         57.3590   -2.1670   -4.6680 N.3    35  PHE35      -0.1241
     30  CA        56.6330   -0.9000   -4.5340 C.3    35  PHE35       0.1605
     31  C         55.9720   -0.4980   -5.8400 C.2    35  PHE35       0.2264
     32  O         54.8430   -0.0210   -5.8350 O.2    35  PHE35      -0.2867
     33  CB        57.5610    0.1750   -4.0010 C.3    35  PHE35       0.0534
     34  CG        58.1370   -0.1020   -2.6330 C.ar   35  PHE35      -0.0203
     35  CD1       57.4780   -0.7830   -1.6490 C.ar   35  PHE35      -0.0042
     36  CD2       59.4220    0.3650   -2.3380 C.ar   35  PHE35      -0.0042
     37  CE1       58.0660   -1.0390   -0.4050 C.ar   35  PHE35      -0.0003
     38  CE2       60.0210    0.0950   -1.1250 C.ar   35  PHE35      -0.0003
     39  CZ        59.3550   -0.5940   -0.1800 C.ar   35  PHE35      -0.0000
     40  N         60.6670    1.7870    8.9160 N.3   245  PHE245     -0.1227
     41  CA        59.7760    2.3400    7.8610 C.3   245  PHE245      0.1736
     42  C         59.6980    1.4690    6.6400 C.2   245  PHE245      0.2596
     43  O         58.6080    1.2310    6.0930 O.2   245  PHE245     -0.2718
     44  CB        60.3070    3.7140    7.4960 C.3   245  PHE245      0.0547
     45  CG        59.5170    4.3940    6.3860 C.ar  245  PHE245     -0.0202
     46  CD1       58.3190    5.0190    6.6200 C.ar  245  PHE245     -0.0042
     47  CD2       59.9820    4.3780    5.1000 C.ar  245  PHE245     -0.0042
     48  CE1       57.5900    5.6240    5.5950 C.ar  245  PHE245     -0.0003
     49  CE2       59.2390    4.9630    4.0680 C.ar  245  PHE245     -0.0003
     50  CZ        58.0200    5.5910    4.3190 C.ar  245  PHE245     -0.0000
     51  N         60.8230    1.0100    6.1140 N.am  246  THR246     -0.1953
     52  CA        60.8080    0.2490    4.8760 C.3   246  THR246      0.1897
     53  C         60.0420   -1.0240    5.0190 C.2   246  THR246      0.2313
     54  O         59.2730   -1.3980    4.1480 O.2   246  THR246     -0.2863
     55  CB        62.2680   -0.0110    4.3600 C.3   246  THR246      0.1794
     56  OG1       62.9260    1.2540    4.2350 O.3   246  THR246     -0.2208
     57  CG2       62.2350   -0.7020    3.0290 C.3   246  THR246      0.0378
     58  N         56.4300   -0.1600    5.0160 N.3   249  LEU249     -0.1245
     59  CA        56.0270    0.1560    3.6430 C.3   249  LEU249      0.1561
     60  C         55.8000   -1.0880    2.8150 C.2   249  LEU249      0.2260
     61  O         54.8840   -1.1480    2.0080 O.2   249  LEU249     -0.2867
     62  CB        57.1210    1.0490    3.0200 C.3   249  LEU249      0.0270
     63  CG        56.7940    1.7070    1.7090 C.3   249  LEU249      0.0019
     64  CD1       55.6310    2.6710    1.8140 C.3   249  LEU249      0.0001
     65  CD2       58.0110    2.4430    1.2240 C.3   249  LEU249      0.0001
     66  N         57.6690    8.8920   11.4710 N.3   273  ILE273     -0.1231
     67  CA        58.9680    8.3290   11.5550 C.3   273  ILE273      0.1692
     68  C         59.9170    8.7680   10.4420 C.2   273  ILE273      0.2592
     69  O         61.0770    8.7520   10.6450 O.2   273  ILE273     -0.2718
     70  CB        58.9800    6.8070   11.6680 C.3   273  ILE273      0.0266
     71  CG1       58.3720    6.1180   10.4590 C.3   273  ILE273      0.0019
     72  CG2       58.4640    6.3550   13.0590 C.3   273  ILE273      0.0020
     73  CD1       58.8840    4.6740   10.4830 C.3   273  ILE273      0.0001
     74  N         59.4000    9.1250    9.2600 N.am  274  VAL274     -0.1966
     75  CA        60.2200    9.5610    8.1580 C.3   274  VAL274      0.1712
     76  C         59.5980   10.8180    7.6050 C.2   274  VAL274      0.2458
     77  O         58.3920   10.8220    7.2300 O.2   274  VAL274     -0.2730
     78  CB        60.3130    8.4860    7.0560 C.3   274  VAL274      0.0289
     79  CG1       60.7840    9.0420    5.6800 C.3   274  VAL274      0.0023
     80  CG2       61.1950    7.3420    7.5470 C.3   274  VAL274      0.0023
     81  N         60.3300   11.9230    7.4390 N.am  275  PRO275     -0.2727
     82  CA        59.7530   13.0960    6.8110 C.3   275  PRO275      0.1402
     83  C         59.3130   12.7550    5.3740 C.2   275  PRO275      0.2269
     84  O         60.1050   12.1950    4.6150 O.2   275  PRO275     -0.2865
     85  CB        60.9310   14.1160    6.8250 C.3   275  PRO275      0.0296
     86  CG        61.7290   13.6990    8.0190 C.3   275  PRO275      0.0237
     87  CD        61.6870   12.1920    7.9780 C.3   275  PRO275      0.0939
     88  N         55.3670    9.0230    0.3780 N.3   280  ILE280     -0.1245
     89  CA        55.9500    7.7660   -0.1110 C.3   280  ILE280      0.1561
     90  C         54.8700    6.6600   -0.1000 C.2   280  ILE280      0.2260
     91  O         54.7250    5.9290   -1.0560 O.2   280  ILE280     -0.2867
     92  CB        57.1640    7.3930    0.7270 C.3   280  ILE280      0.0252
     93  CG1       58.3130    8.3610    0.4610 C.3   280  ILE280      0.0019
     94  CG2       57.5950    5.9560    0.4690 C.3   280  ILE280      0.0019
     95  CD1       59.3520    8.3770    1.6070 C.3   280  ILE280      0.0001
@<TRIPOS>BOND
     1    27    26   ar
     2    23    22    2
     3    22    21    1
     4    24    21    1
     5    24    25    1
     6    26    25    1
     7    26    28   ar
     8    31    32    2
     9    31    30    1
    10    21    20    1
    11    29    30    1
    12    20    14   am
    13    30    33    1
    14     4     3    2
    15     3     2    1
    16    33    34    1
    17    14    15    2
    18    14    13    1
    19     6     7    1
    20     6     5    1
    21    12    13    1
    22     7     8    1
    23     5     2    1
    24     2     1    1
    25    13    16    1
    26    34    36   ar
    27    34    35   ar
    28    36    38   ar
    29     8     9    2
    30    16    17    1
    31    35    37   ar
    32    38    39   ar
    33    91    90    2
    34     9    10    1
    35     9    11    1
    36    17    18    2
    37    17    19   am
    38    37    39   ar
    39    89    90    1
    40    89    88    1
    41    89    92    1
    42    93    92    1
    43    93    95    1
    44    94    92    1
    45    65    63    1
    46    63    64    1
    47    63    62    1
    48    61    60    2
    49    60    59    1
    50    62    59    1
    51    57    55    1
    52    59    58    1
    53    49    50   ar
    54    49    47   ar
    55    54    53    2
    56    56    55    1
    57    50    48   ar
    58    55    52    1
    59    84    83    2
    60    52    53    1
    61    52    51    1
    62    47    45   ar
    63    83    82    1
    64    48    46   ar
    65    79    78    1
    66    43    42    2
    67    51    42   am
    68    45    46   ar
    69    45    44    1
    70    42    41    1
    71    82    85    1
    72    82    81    1
    73    85    86    1
    74    78    80    1
    75    78    75    1
    76    77    76    2
    77    81    76   am
    78    81    87    1
    79    44    41    1
    80    76    75    1
    81    41    40    1
    82    87    86    1
    83    75    74    1
    84    74    68   am
    85    68    69    2
    86    68    67    1
    87    71    73    1
    88    71    70    1
    89    66    67    1
    90    67    70    1
    91    70    72    1
