@<TRIPOS>MOLECULE
tmp/5ff2A04.pdb
 103 95 0 0 0
SMALL
GASTEIGER

@<TRIPOS>ATOM
      1  N         40.0260   13.3760   10.5110 N.3    56  ILE56      -0.1245
      2  CA        39.9500   12.7110   11.7800 C.3    56  ILE56       0.1561
      3  C         39.8720   13.7170   12.9350 C.2    56  ILE56       0.2260
      4  O         40.6930   14.6080   13.0220 O.2    56  ILE56      -0.2867
      5  CB        41.1020   11.6660   11.9810 C.3    56  ILE56       0.0252
      6  CG1       40.9070   10.8590   13.2600 C.3    56  ILE56       0.0019
      7  CG2       42.4820   12.2710   11.9120 C.3    56  ILE56       0.0019
      8  CD1       41.7300    9.6140   13.3260 C.3    56  ILE56       0.0001
      9  N         37.5970    9.3970   16.4020 N.3   107  GLN107     -0.1245
     10  CA        38.5170    8.5240   17.1200 C.3   107  GLN107      0.1566
     11  C         38.6950    8.9740   18.5440 C.2   107  GLN107      0.2260
     12  O         38.7560   10.1690   18.8180 O.2   107  GLN107     -0.2867
     13  CB        39.8530    8.4090   16.4050 C.3   107  GLN107      0.0367
     14  CG        40.7340    7.2730   16.9880 C.3   107  GLN107      0.0905
     15  CD        42.0080    7.1120   16.2420 C.2   107  GLN107      0.2608
     16  OE1       42.9550    7.8570   16.5120 O.2   107  GLN107     -0.2717
     17  NE2       42.0890    6.1780   15.3300 N.am  107  GLN107     -0.0878
     18  N         36.9740    1.4430   12.1730 N.3   157  LEU157     -0.1245
     19  CA        38.3680    1.0620   12.1770 C.3   157  LEU157      0.1561
     20  C         38.7400    0.3980   13.4850 C.2   157  LEU157      0.2260
     21  O         38.5540    1.0130   14.5480 O.2   157  LEU157     -0.2867
     22  CB        39.2730    2.3180   11.9760 C.3   157  LEU157      0.0270
     23  CG        38.9160    3.2350   10.8050 C.3   157  LEU157      0.0019
     24  CD1       39.8090    4.4430   10.8430 C.3   157  LEU157      0.0001
     25  CD2       38.9770    2.4900    9.4940 C.3   157  LEU157      0.0001
     26  N         42.0360   -1.7940   14.3030 N.3   159  ARG159     -0.1245
     27  CA        43.2550   -2.4850   13.8780 C.3   159  ARG159      0.1563
     28  C         43.3870   -3.7470   14.7190 C.2   159  ARG159      0.2260
     29  O         43.1380   -3.7490   15.9040 O.2   159  ARG159     -0.2867
     30  CB        44.4990   -1.6690   14.1200 C.3   159  ARG159      0.0307
     31  CG        44.6190   -0.5560   13.0600 C.3   159  ARG159      0.0489
     32  CD        45.9170    0.1710   13.4270 C.3   159  ARG159      0.2205
     33  NE        46.1780    1.2390   12.5250 N.pl3 159  ARG159     -0.0865
     34  CZ        47.3660    1.7930   12.4100 C.cat 159  ARG159      0.5346
     35  NH1       48.3610    1.3740   13.1970 N.pl3 159  ARG159      0.1354
     36  NH2       47.5260    2.7620   11.5210 N.pl3 159  ARG159      0.1354
     37  N         44.9120   -0.3260    7.9830 N.3   226  GLY226     -0.1225
     38  CA        45.7710    0.6820    8.5620 C.3   226  GLY226      0.1811
     39  C         47.0380    0.0790    9.1290 C.2   226  GLY226      0.2280
     40  O         46.9830   -0.7180   10.0420 O.2   226  GLY226     -0.2866
     41  N         45.3380    3.5890    4.0230 N.3   266  PRO266     -0.2116
     42  CA        45.9330    4.9010    4.2750 C.3   266  PRO266      0.1372
     43  C         47.4180    4.9480    4.3080 C.2   266  PRO266      0.2244
     44  O         48.0740    3.9320    4.6560 O.2   266  PRO266     -0.2868
     45  CB        45.3880    5.2520    5.6470 C.3   266  PRO266      0.0268
     46  CG        45.1500    3.9070    6.2780 C.3   266  PRO266      0.0207
     47  CD        44.5790    3.1030    5.1840 C.3   266  PRO266      0.0892
     48  N         49.6020    6.4080    6.7010 N.3   268  THR268     -0.1203
     49  CA        49.2960    6.8230    8.0690 C.3   268  THR268      0.1994
     50  C         50.2010    7.9140    8.5730 C.2   268  THR268      0.2619
     51  O         51.3610    8.0680    8.1260 O.2   268  THR268     -0.2717
     52  CB        49.3010    5.5730    8.9970 C.3   268  THR268      0.1784
     53  OG1       50.6210    5.0140    9.0090 O.3   268  THR268     -0.2211
     54  CG2       48.3010    4.5160    8.6320 C.3   268  THR268      0.0376
     55  N         49.7010    8.6680    9.5310 N.am  269  THR269     -0.1938
     56  CA        50.4890    9.6600   10.2290 C.3   269  THR269      0.2028
     57  C         51.7460    9.0830   10.8590 C.2   269  THR269      0.2642
     58  O         52.7930    9.7660   10.7930 O.2   269  THR269     -0.2714
     59  CB        49.6440   10.4600   11.2130 C.3   269  THR269      0.1808
     60  OG1       48.6050   11.1130   10.4910 O.3   269  THR269     -0.2208
     61  CG2       50.4950   11.5300   11.9200 C.3   269  THR269      0.0379
     62  N         51.7120    7.8720   11.3670 N.am  270  ALA270     -0.1977
     63  CA        52.8900    7.2670   11.9360 C.3   270  ALA270      0.1597
     64  C         54.0090    7.1360   10.8700 C.2   270  ALA270      0.2287
     65  O         55.2010    7.3380   11.1480 O.2   270  ALA270     -0.2864
     66  CB        52.5740    5.9470   12.6140 C.3   270  ALA270      0.0319
     67  N         44.5290   10.7260    6.0220 N.3   291  MET291     -0.1245
     68  CA        43.6660   11.1410    7.1310 C.3   291  MET291      0.1570
     69  C         44.2040   12.4390    7.8850 C.2   291  MET291      0.2261
     70  O         44.9120   12.3690    8.9320 O.2   291  MET291     -0.2867
     71  CB        43.5320    9.9360    8.0920 C.3   291  MET291      0.0387
     72  CG        43.0510    8.6560    7.3620 C.3   291  MET291      0.0595
     73  SD        43.2340    7.0800    8.3000 S.3   291  MET291     -0.1393
     74  CE        41.7750    7.6780    9.0940 C.3   291  MET291      0.0692
     75  N         49.3590    9.1230   21.0330 N.3   305  LEU305     -0.1231
     76  CA        49.4880    7.6820   21.0210 C.3   305  LEU305      0.1693
     77  C         50.9680    7.3960   21.0390 C.2   305  LEU305      0.2592
     78  O         51.4010    6.5320   21.7260 O.2   305  LEU305     -0.2718
     79  CB        48.8290    7.1530   19.7300 C.3   305  LEU305      0.0284
     80  CG        47.3690    7.4760   19.5060 C.3   305  LEU305      0.0019
     81  CD1       46.9970    6.9790   18.0870 C.3   305  LEU305      0.0001
     82  CD2       46.5300    6.8230   20.5530 C.3   305  LEU305      0.0001
     83  N         51.7250    8.1410   20.2560 N.am  306  TYR306     -0.1976
     84  CA        53.1430    8.1220   20.1570 C.3   306  TYR306      0.1639
     85  C         53.6350    9.5500   20.0890 C.2   306  TYR306      0.2290
     86  O         52.8310   10.4720   19.7160 O.2   306  TYR306     -0.2864
     87  CB        53.6220    7.3220   18.9660 C.3   306  TYR306      0.0560
     88  CG        52.9750    7.7150   17.6500 C.ar  306  TYR306     -0.0198
     89  CD1       53.5000    8.7470   16.9120 C.ar  306  TYR306     -0.0009
     90  CD2       51.8740    7.0800   17.1950 C.ar  306  TYR306     -0.0009
     91  CE1       52.9370    9.1390   15.7490 C.ar  306  TYR306      0.0417
     92  CE2       51.2610    7.4490   16.0170 C.ar  306  TYR306      0.0417
     93  CZ        51.8070    8.4780   15.2840 C.ar  306  TYR306      0.1957
     94  OH        51.2210    8.9150   14.1550 O.3   306  TYR306     -0.2866
     95  N         54.4500   13.5770   16.9230 N.3   309  LYS309     -0.1245
     96  CA        53.6340   13.4410   15.7440 C.3   309  LYS309      0.1561
     97  C         53.7470   14.7330   14.9200 C.2   309  LYS309      0.2260
     98  O         53.8100   15.8480   15.4380 O.2   309  LYS309     -0.2867
     99  CB        52.1870   13.2920   16.2330 C.3   309  LYS309      0.0271
    100  CG        51.9200   11.9810   16.9370 C.3   309  LYS309      0.0035
    101  CD        50.5600   11.9320   17.5980 C.3   309  LYS309      0.0206
    102  CE        49.4480   11.7300   16.5780 C.3   309  LYS309      0.1093
    103  NZ        48.2670   11.0760   17.2300 N.3   309  LYS309     -0.1314
@<TRIPOS>BOND
     1    41    42    1
     2    41    47    1
     3    42    43    1
     4    42    45    1
     5    43    44    2
     6    47    46    1
     7    45    46    1
     8    67    68    1
     9    48    49    1
    10    68    69    1
    11    68    71    1
    12    72    71    1
    13    72    73    1
    14    69    70    2
    15    37    38    1
    16    49    50    1
    17    49    52    1
    18    51    50    2
    19    73    74    1
    20    38    39    1
    21    50    55   am
    22    54    52    1
    23    52    53    1
    24    39    40    2
    25    25    23    1
    26    55    56    1
    27    56    57    1
    28    56    59    1
    29    60    59    1
    30     1     2    1
    31    58    57    2
    32    23    24    1
    33    23    22    1
    34    57    62   am
    35    64    65    2
    36    64    63    1
    37    59    61    1
    38    62    63    1
    39    36    34    1
    40     2     5    1
    41     2     3    1
    42     7     5    1
    43    63    66    1
    44    22    19    1
    45     5     6    1
    46    18    19    1
    47    19    20    1
    48    34    33    2
    49    34    35    1
    50    33    32    1
    51     3     4    2
    52    31    32    1
    53    31    30    1
    54     6     8    1
    55    20    21    2
    56    27    30    1
    57    27    26    1
    58    27    28    1
    59    94    93    1
    60    28    29    2
    61    97    98    2
    62    97    96    1
    63    93    91   ar
    64    93    92   ar
    65    17    15   am
    66    96    99    1
    67    96    95    1
    68    91    89   ar
    69    92    90   ar
    70    99   100    1
    71    15    16    2
    72    15    14    1
    73     9    10    1
    74    13    14    1
    75    13    10    1
    76   102   103    1
    77   102   101    1
    78    89    88   ar
    79   100   101    1
    80    10    11    1
    81    90    88   ar
    82    88    87    1
    83    81    80    1
    84    11    12    2
    85    87    84    1
    86    80    79    1
    87    80    82    1
    88    86    85    2
    89    79    76    1
    90    85    84    1
    91    84    83    1
    92    83    77   am
    93    76    75    1
    94    76    77    1
    95    77    78    2
