@<TRIPOS>MOLECULE
tmp/5ff2A02.pdb
 95 91 0 0 0
SMALL
GASTEIGER

@<TRIPOS>ATOM
      1  N         67.9680   -3.7490   -2.7260 N.3    29  ARG29      -0.1245
      2  CA        67.3330   -2.4890   -3.1220 C.3    29  ARG29       0.1563
      3  C         66.4990   -2.6870   -4.3920 C.2    29  ARG29       0.2260
      4  O         65.3890   -2.2440   -4.5270 O.2    29  ARG29      -0.2867
      5  CB        68.3690   -1.3940   -3.3220 C.3    29  ARG29       0.0307
      6  CG        67.7370   -0.1100   -3.8160 C.3    29  ARG29       0.0489
      7  CD        68.6450    1.1020   -3.6670 C.3    29  ARG29       0.2205
      8  NE        69.3140    1.1990   -2.3900 N.pl3  29  ARG29      -0.0865
      9  CZ        68.8480    1.7900   -1.2910 C.cat  29  ARG29       0.5346
     10  NH1       69.6570    1.8040   -0.2500 N.pl3  29  ARG29       0.1354
     11  NH2       67.5830    2.3210   -1.1530 N.pl3  29  ARG29       0.1354
     12  N         63.2750   -4.4620   -3.5960 N.3    32  ASN32      -0.1225
     13  CA        62.3110   -3.6260   -2.9010 C.3    32  ASN32       0.1785
     14  C         61.6940   -2.6410   -3.8440 C.2    32  ASN32       0.2597
     15  O         60.4790   -2.3910   -3.8240 O.2    32  ASN32      -0.2718
     16  CB        62.9480   -2.9080   -1.7430 C.3    32  ASN32       0.1169
     17  CG        63.3020   -3.7900   -0.5690 C.2    32  ASN32       0.2627
     18  OD1       62.7930   -4.8700   -0.4740 O.2    32  ASN32      -0.2716
     19  ND2       64.0690   -3.2030    0.4060 N.am   32  ASN32      -0.0877
     20  N         62.4930   -2.0040   -4.6870 N.am   33  GLU33      -0.1979
     21  CA        61.9660   -1.0280   -5.6160 C.3    33  GLU33       0.1602
     22  C         60.9620   -1.6350   -6.5820 C.2    33  GLU33       0.2287
     23  O         59.9730   -0.9840   -6.9350 O.2    33  GLU33      -0.2864
     24  CB        63.0750   -0.2410   -6.3080 C.3    33  GLU33       0.0415
     25  CG        63.8770    0.6520   -5.3800 C.3    33  GLU33       0.1163
     26  CD        65.0450    1.4310   -6.0340 C.2    33  GLU33       0.3649
     27  OE1       65.1090    1.3870   -7.2800 O.co2  33  GLU33      -0.2457
     28  OE2       65.7480    2.1330   -5.3330 O.co2  33  GLU33      -0.2457
     29  N         57.6960   -2.2190   -4.7250 N.3    36  PHE36      -0.1241
     30  CA        57.0000   -0.9530   -4.5880 C.3    36  PHE36       0.1605
     31  C         56.3260   -0.5060   -5.8970 C.2    36  PHE36       0.2264
     32  O         55.1850   -0.0620   -5.9030 O.2    36  PHE36      -0.2867
     33  CB        57.8770    0.1580   -4.0500 C.3    36  PHE36       0.0534
     34  CG        58.4730   -0.1040   -2.6920 C.ar   36  PHE36      -0.0203
     35  CD1       57.8060   -0.7950   -1.6810 C.ar   36  PHE36      -0.0042
     36  CD2       59.8010    0.3750   -2.3880 C.ar   36  PHE36      -0.0042
     37  CE1       58.3950   -1.0450   -0.4670 C.ar   36  PHE36      -0.0003
     38  CE2       60.3750    0.1150   -1.1750 C.ar   36  PHE36      -0.0003
     39  CZ        59.6580   -0.5800   -0.2220 C.ar   36  PHE36      -0.0000
     40  N         60.9780    1.8030    8.8830 N.3   246  PHE246     -0.1227
     41  CA        60.1400    2.4060    7.8330 C.3   246  PHE246      0.1736
     42  C         60.0570    1.5250    6.5780 C.2   246  PHE246      0.2596
     43  O         58.9510    1.2680    6.0470 O.2   246  PHE246     -0.2718
     44  CB        60.6430    3.7740    7.4310 C.3   246  PHE246      0.0547
     45  CG        59.8260    4.4290    6.3080 C.ar  246  PHE246     -0.0202
     46  CD1       58.6350    5.0340    6.5740 C.ar  246  PHE246     -0.0042
     47  CD2       60.2500    4.4000    5.0030 C.ar  246  PHE246     -0.0042
     48  CE1       57.8980    5.6290    5.5520 C.ar  246  PHE246     -0.0003
     49  CE2       59.5070    4.9790    3.9880 C.ar  246  PHE246     -0.0003
     50  CZ        58.3200    5.5880    4.2750 C.ar  246  PHE246     -0.0000
     51  N         61.1860    1.0390    6.0540 N.am  247  THR247     -0.1953
     52  CA        61.1650    0.2580    4.8380 C.3   247  THR247      0.1897
     53  C         60.3970   -1.0410    4.9920 C.2   247  THR247      0.2313
     54  O         59.6180   -1.3850    4.1310 O.2   247  THR247     -0.2863
     55  CB        62.6240    0.0400    4.3050 C.3   247  THR247      0.1794
     56  OG1       63.2390    1.3250    4.1740 O.3   247  THR247     -0.2208
     57  CG2       62.6470   -0.7030    3.0030 C.3   247  THR247      0.0378
     58  N         56.7760   -0.1610    4.9730 N.3   250  LEU250     -0.1245
     59  CA        56.3880    0.1640    3.6000 C.3   250  LEU250      0.1561
     60  C         56.1730   -1.1040    2.7850 C.2   250  LEU250      0.2260
     61  O         55.2330   -1.1800    1.9870 O.2   250  LEU250     -0.2867
     62  CB        57.4920    1.0370    2.9850 C.3   250  LEU250      0.0270
     63  CG        57.1530    1.7340    1.6640 C.3   250  LEU250      0.0019
     64  CD1       55.9720    2.6670    1.7890 C.3   250  LEU250      0.0001
     65  CD2       58.3570    2.4770    1.1590 C.3   250  LEU250      0.0001
     66  N         57.8980    8.8930   11.3910 N.3   274  ILE274     -0.1231
     67  CA        59.2060    8.2810   11.5030 C.3   274  ILE274      0.1692
     68  C         60.1510    8.6780   10.3970 C.2   274  ILE274      0.2592
     69  O         61.3750    8.6410   10.6120 O.2   274  ILE274     -0.2718
     70  CB        59.1880    6.7730   11.6560 C.3   274  ILE274      0.0266
     71  CG1       58.5920    6.1010   10.4180 C.3   274  ILE274      0.0019
     72  CG2       58.5210    6.4410   13.0310 C.3   274  ILE274      0.0020
     73  CD1       58.9320    4.6760   10.4520 C.3   274  ILE274      0.0001
     74  N         59.6360    9.1040    9.2450 N.am  275  VAL275     -0.1966
     75  CA        60.4720    9.6020    8.1620 C.3   275  VAL275      0.1712
     76  C         59.8450   10.8450    7.5990 C.2   275  VAL275      0.2458
     77  O         58.6730   10.8210    7.2160 O.2   275  VAL275     -0.2730
     78  CB        60.6050    8.5300    7.0520 C.3   275  VAL275      0.0289
     79  CG1       61.1310    9.1370    5.7290 C.3   275  VAL275      0.0023
     80  CG2       61.4960    7.4010    7.5040 C.3   275  VAL275      0.0023
     81  N         60.6010   11.9590    7.4350 N.am  276  PRO276     -0.2727
     82  CA        60.0430   13.1020    6.7630 C.3   276  PRO276      0.1402
     83  C         59.6350   12.7530    5.3350 C.2   276  PRO276      0.2269
     84  O         60.4190   12.2220    4.5550 O.2   276  PRO276     -0.2865
     85  CB        61.2380   14.0830    6.7620 C.3   276  PRO276      0.0296
     86  CG        61.9730   13.6800    8.0130 C.3   276  PRO276      0.0237
     87  CD        61.9550   12.2440    7.9540 C.3   276  PRO276      0.0939
     88  N         55.6760    8.9620    0.3190 N.3   281  ILE281     -0.1245
     89  CA        56.2720    7.7400   -0.1940 C.3   281  ILE281      0.1561
     90  C         55.2010    6.6260   -0.1540 C.2   281  ILE281      0.2260
     91  O         55.0550    5.8950   -1.1080 O.2   281  ILE281     -0.2867
     92  CB        57.4920    7.3510    0.6460 C.3   281  ILE281      0.0252
     93  CG1       58.6350    8.3380    0.4350 C.3   281  ILE281      0.0019
     94  CG2       57.9130    5.9420    0.3910 C.3   281  ILE281      0.0019
     95  CD1       59.6620    8.3650    1.5810 C.3   281  ILE281      0.0001
@<TRIPOS>BOND
     1    27    26   ar
     2    23    22    2
     3    22    21    1
     4    24    21    1
     5    24    25    1
     6    26    25    1
     7    26    28   ar
     8    32    31    2
     9    31    30    1
    10    21    20    1
    11    29    30    1
    12    20    14   am
    13    30    33    1
    14     4     3    2
    15     3     2    1
    16    33    34    1
    17    14    15    2
    18    14    13    1
    19     6     7    1
    20     6     5    1
    21     7     8    1
    22    12    13    1
    23     5     2    1
    24     2     1    1
    25    13    16    1
    26    34    36   ar
    27    34    35   ar
    28     8     9    2
    29    36    38   ar
    30    16    17    1
    31    35    37   ar
    32     9    11    1
    33     9    10    1
    34    38    39   ar
    35    91    90    2
    36    17    18    2
    37    17    19   am
    38    37    39   ar
    39    89    90    1
    40    89    88    1
    41    89    92    1
    42    94    92    1
    43    93    92    1
    44    93    95    1
    45    65    63    1
    46    63    64    1
    47    63    62    1
    48    61    60    2
    49    60    59    1
    50    62    59    1
    51    57    55    1
    52    59    58    1
    53    49    50   ar
    54    49    47   ar
    55    54    53    2
    56    56    55    1
    57    50    48   ar
    58    55    52    1
    59    84    83    2
    60    52    53    1
    61    52    51    1
    62    47    45   ar
    63    83    82    1
    64    48    46   ar
    65    79    78    1
    66    43    42    2
    67    51    42   am
    68    45    46   ar
    69    45    44    1
    70    42    41    1
    71    85    82    1
    72    85    86    1
    73    82    81    1
    74    78    80    1
    75    78    75    1
    76    77    76    2
    77    44    41    1
    78    81    76   am
    79    81    87    1
    80    76    75    1
    81    41    40    1
    82    87    86    1
    83    75    74    1
    84    74    68   am
    85    68    69    2
    86    68    67    1
    87    71    73    1
    88    71    70    1
    89    66    67    1
    90    67    70    1
    91    70    72    1
