@<TRIPOS>MOLECULE
tmp/5ff2A03.pdb
 215 204 0 0 0
SMALL
GASTEIGER

@<TRIPOS>ATOM
      1  N         41.1520    6.9320   28.3220 N.3    63  CYS63      -0.1235
      2  CA        41.0530    5.5260   28.0240 C.3    63  CYS63       0.1677
      3  C         41.0350    4.6720   29.3050 C.2    63  CYS63       0.2270
      4  O         41.8080    4.8900   30.2290 O.2    63  CYS63      -0.2867
      5  CB        42.1790    5.0390   27.1000 C.3    63  CYS63       0.0956
      6  SG        41.8570    3.4260   26.3610 S.3    63  CYS63      -0.0801
      7  N         47.0500   -0.5810   27.1740 N.3    67  CYS67      -0.1235
      8  CA        47.9360   -1.1810   26.1590 C.3    67  CYS67       0.1677
      9  C         49.3920   -0.6730   26.3460 C.2    67  CYS67       0.2270
     10  O         49.6250    0.4860   26.5810 O.2    67  CYS67      -0.2867
     11  CB        47.4300   -0.8310   24.7370 C.3    67  CYS67       0.0956
     12  SG        45.7010   -1.2670   24.4470 S.3    67  CYS67      -0.0801
     13  N         51.9980   -0.2090   24.5830 N.3    69  TYR69      -0.1227
     14  CA        52.6080    0.6670   23.5480 C.3    69  TYR69       0.1736
     15  C         52.0670    2.0840   23.5090 C.2    69  TYR69       0.2595
     16  O         52.7340    2.9650   22.9640 O.2    69  TYR69      -0.2718
     17  CB        52.4760    0.0300   22.1500 C.3    69  TYR69       0.0548
     18  CG        51.1150   -0.4920   21.8420 C.ar   69  TYR69      -0.0200
     19  CD1       50.1040    0.3660   21.4330 C.ar   69  TYR69      -0.0009
     20  CD2       50.7710   -1.8740   21.9500 C.ar   69  TYR69      -0.0009
     21  CE1       48.8210   -0.1160   21.1930 C.ar   69  TYR69       0.0417
     22  CE2       49.5120   -2.3340   21.6690 C.ar   69  TYR69       0.0417
     23  CZ        48.5200   -1.4750   21.2820 C.ar   69  TYR69       0.1957
     24  OH        47.3010   -1.9830   21.0520 O.3    69  TYR69      -0.2866
     25  N         50.8920    2.3250   24.1250 N.am   70  CYS70      -0.1970
     26  CA        50.1460    3.5050   23.8320 C.3    70  CYS70       0.1712
     27  C         50.2670    4.6050   24.8580 C.2    70  CYS70       0.2296
     28  O         50.0510    4.3490   26.0690 O.2    70  CYS70      -0.2864
     29  CB        48.6840    3.1530   23.7240 C.3    70  CYS70       0.0983
     30  SG        47.5770    4.5150   23.2210 S.3    70  CYS70      -0.0798
     31  N         48.1910    6.8840   25.5530 N.3    72  LEU72      -0.1245
     32  CA        46.9100    7.1420   26.2260 C.3    72  LEU72       0.1561
     33  C         46.5310    6.0670   27.2730 C.2    72  LEU72       0.2260
     34  O         45.5000    6.2090   27.9160 O.2    72  LEU72      -0.2867
     35  CB        45.7590    7.2100   25.1980 C.3    72  LEU72       0.0270
     36  CG        45.8850    8.2870   24.1270 C.3    72  LEU72       0.0019
     37  CD1       44.5080    8.3630   23.4470 C.3    72  LEU72       0.0001
     38  CD2       46.5580    9.5750   24.4250 C.3    72  LEU72       0.0001
     39  N         37.5970    9.3970   16.4020 N.3   107  GLN107     -0.1231
     40  CA        38.5170    8.5240   17.1200 C.3   107  GLN107      0.1698
     41  C         38.6950    8.9740   18.5440 C.2   107  GLN107      0.2593
     42  O         38.7560   10.1690   18.8180 O.2   107  GLN107     -0.2718
     43  CB        39.8530    8.4090   16.4050 C.3   107  GLN107      0.0381
     44  CG        40.7340    7.2730   16.9880 C.3   107  GLN107      0.0905
     45  CD        42.0080    7.1120   16.2420 C.2   107  GLN107      0.2608
     46  OE1       42.9550    7.8570   16.5120 O.2   107  GLN107     -0.2717
     47  NE2       42.0890    6.1780   15.3300 N.am  107  GLN107     -0.0878
     48  N         38.8360    8.0030   19.4520 N.am  108  SER108     -0.1938
     49  CA        39.0940    8.3000   20.8510 C.3   108  SER108      0.2055
     50  C         39.7920    7.1290   21.5190 C.2   108  SER108      0.2644
     51  O         39.8040    6.0100   20.9920 O.2   108  SER108     -0.2714
     52  CB        37.7850    8.5990   21.6120 C.3   108  SER108      0.2130
     53  OG        36.9060    7.5060   21.5650 O.3   108  SER108     -0.2179
     54  N         40.2940    7.4100   22.7320 N.am  109  GLY109     -0.1939
     55  CA        40.5650    6.3400   23.6470 C.3   109  GLY109      0.2014
     56  C         39.2180    5.6530   23.9630 C.2   109  GLY109      0.2638
     57  O         38.1220    6.1410   23.6080 O.2   109  GLY109     -0.2714
     58  N         39.2910    4.5030   24.6210 N.am  110  GLU110     -0.1977
     59  CA        38.0760    3.8320   25.0850 C.3   110  GLU110      0.1602
     60  C         37.5320    4.5610   26.3000 C.2   110  GLU110      0.2287
     61  O         37.7970    4.2180   27.4680 O.2   110  GLU110     -0.2864
     62  CB        38.3080    2.3350   25.3880 C.3   110  GLU110      0.0415
     63  CG        38.5890    1.5090   24.1560 C.3   110  GLU110      0.1163
     64  CD        38.4890    0.0270   24.4060 C.2   110  GLU110      0.3649
     65  OE1       38.0740   -0.3900   25.5050 O.co2 110  GLU110     -0.2457
     66  OE2       38.8190   -0.7720   23.5000 O.co2 110  GLU110     -0.2457
     67  N         36.1800    5.0260   15.2580 N.3   136  SER136     -0.1217
     68  CA        37.3760    4.2940   15.7100 C.3   136  SER136      0.1889
     69  C         37.4540    4.4640   17.2180 C.2   136  SER136      0.2288
     70  O         38.2050    5.2610   17.7430 O.2   136  SER136     -0.2866
     71  CB        38.5900    4.8250   14.9890 C.3   136  SER136      0.2089
     72  OG        39.7850    4.1300   15.3220 O.3   136  SER136     -0.2183
     73  N         37.4220    1.6580   19.5630 N.3   138  GLY138     -0.1225
     74  CA        37.8740    0.4680   20.3410 C.3   138  GLY138      0.1811
     75  C         36.8320   -0.6150   20.4140 C.2   138  GLY138      0.2280
     76  O         35.9210   -0.7170   19.5670 O.2   138  GLY138     -0.2866
     77  N         36.9740    1.4430   12.1730 N.3   157  LEU157     -0.1231
     78  CA        38.3680    1.0620   12.1770 C.3   157  LEU157      0.1693
     79  C         38.7400    0.3980   13.4850 C.2   157  LEU157      0.2592
     80  O         38.5540    1.0130   14.5480 O.2   157  LEU157     -0.2718
     81  CB        39.2730    2.3180   11.9760 C.3   157  LEU157      0.0284
     82  CG        38.9160    3.2350   10.8050 C.3   157  LEU157      0.0019
     83  CD1       39.8090    4.4430   10.8430 C.3   157  LEU157      0.0001
     84  CD2       38.9770    2.4900    9.4940 C.3   157  LEU157      0.0001
     85  N         39.2420   -0.8020   13.3890 N.am  158  LEU158     -0.1966
     86  CA        39.6790   -1.5550   14.6020 C.3   158  LEU158      0.1728
     87  C         40.8680   -2.3650   14.2110 C.2   158  LEU158      0.2616
     88  O         40.7760   -3.5320   13.8440 O.2   158  LEU158     -0.2715
     89  CB        38.5400   -2.3440   15.2090 C.3   158  LEU158      0.0311
     90  CG        38.7790   -2.9390   16.5850 C.3   158  LEU158      0.0022
     91  CD1       38.6970   -1.8450   17.6020 C.3   158  LEU158      0.0001
     92  CD2       37.7660   -4.0490   16.8380 C.3   158  LEU158      0.0001
     93  N         42.0360   -1.7940   14.3030 N.am  159  ARG159     -0.1977
     94  CA        43.2550   -2.4850   13.8780 C.3   159  ARG159      0.1597
     95  C         43.3870   -3.7470   14.7190 C.2   159  ARG159      0.2287
     96  O         43.1380   -3.7490   15.9040 O.2   159  ARG159     -0.2864
     97  CB        44.4990   -1.6690   14.1200 C.3   159  ARG159      0.0334
     98  CG        44.6190   -0.5560   13.0600 C.3   159  ARG159      0.0492
     99  CD        45.9170    0.1710   13.4270 C.3   159  ARG159      0.2205
    100  NE        46.1780    1.2390   12.5250 N.pl3 159  ARG159     -0.0865
    101  CZ        47.3660    1.7930   12.4100 C.cat 159  ARG159      0.5346
    102  NH1       48.3610    1.3740   13.1970 N.pl3 159  ARG159      0.1354
    103  NH2       47.5260    2.7620   11.5210 N.pl3 159  ARG159      0.1354
    104  N         46.1470   -5.1650   15.3120 N.3   161  GLU161     -0.1245
    105  CA        47.3920   -4.8260   16.0640 C.3   161  GLU161      0.1567
    106  C         48.5290   -5.8490   15.8020 C.2   161  GLU161      0.2260
    107  O         49.5940   -5.4520   15.3420 O.2   161  GLU161     -0.2867
    108  CB        47.1310   -4.6380   17.5550 C.3   161  GLU161      0.0388
    109  CG        45.9400   -3.7550   17.8840 C.3   161  GLU161      0.1160
    110  CD        46.1080   -2.2850   17.3900 C.2   161  GLU161      0.3649
    111  OE1       47.1240   -1.9280   16.6920 O.co2 161  GLU161     -0.2457
    112  OE2       45.2240   -1.5010   17.7710 O.co2 161  GLU161     -0.2457
    113  N         48.3700   -6.1110   25.2320 N.3   172  ARG172     -0.1245
    114  CA        47.0210   -5.5880   25.4680 C.3   172  ARG172      0.1563
    115  C         46.3510   -6.3890   26.6010 C.2   172  ARG172      0.2260
    116  O         45.4710   -7.2250   26.3520 O.2   172  ARG172     -0.2867
    117  CB        46.2470   -5.6230   24.1610 C.3   172  ARG172      0.0307
    118  CG        47.0110   -4.9420   23.0330 C.3   172  ARG172      0.0489
    119  CD        46.1980   -4.8220   21.7510 C.3   172  ARG172      0.2205
    120  NE        45.1260   -3.8220   21.9750 N.pl3 172  ARG172     -0.0865
    121  CZ        43.8290   -4.0480   22.0500 C.cat 172  ARG172      0.5346
    122  NH1       43.3320   -5.1600   21.7430 N.pl3 172  ARG172      0.1354
    123  NH2       43.0650   -3.0460   22.4560 N.pl3 172  ARG172      0.1354
    124  N         39.3520   -9.1810   19.9610 N.3   180  ARG180     -0.1245
    125  CA        39.5440   -8.2100   18.8670 C.3   180  ARG180      0.1563
    126  C         38.9430   -8.7220   17.5630 C.2   180  ARG180      0.2260
    127  O         38.2370   -8.0030   16.8570 O.2   180  ARG180     -0.2867
    128  CB        41.0320   -7.9320   18.7010 C.3   180  ARG180      0.0307
    129  CG        41.3840   -6.6630   17.9040 C.3   180  ARG180      0.0489
    130  CD        41.2410   -5.4740   18.7770 C.3   180  ARG180      0.2205
    131  NE        41.7790   -4.2670   18.1890 N.pl3 180  ARG180     -0.0865
    132  CZ        41.6460   -3.0480   18.7480 C.cat 180  ARG180      0.5346
    133  NH1       41.0210   -2.8940   19.9100 N.pl3 180  ARG180      0.1354
    134  NH2       42.1650   -1.9750   18.1090 N.pl3 180  ARG180      0.1354
    135  N         50.5620   -2.8700   13.6960 N.3   199  MET199     -0.1245
    136  CA        51.8330   -2.1780   13.8460 C.3   199  MET199      0.1570
    137  C         52.9610   -3.1120   13.4340 C.2   199  MET199      0.2261
    138  O         52.8640   -4.3310   13.5230 O.2   199  MET199     -0.2867
    139  CB        52.0600   -1.7070   15.2610 C.3   199  MET199      0.0387
    140  CG        51.1190   -0.5320   15.6720 C.3   199  MET199      0.0595
    141  SD        51.2950   -0.0800   17.4300 S.3   199  MET199     -0.1393
    142  CE        50.3020   -1.3790   18.1650 C.3   199  MET199      0.0692
    143  N         54.3460    1.9730   11.6310 N.3   229  PRO229     -0.2102
    144  CA        55.3880    1.4540   12.5310 C.3   229  PRO229      0.1504
    145  C         54.9720    1.6600   13.9970 C.2   229  PRO229      0.2576
    146  O         54.3240    2.5780   14.3210 O.2   229  PRO229     -0.2718
    147  CB        56.6190    2.3180   12.1540 C.3   229  PRO229      0.0282
    148  CG        56.0100    3.6510   11.8740 C.3   229  PRO229      0.0208
    149  CD        54.7600    3.2860   11.0530 C.3   229  PRO229      0.0893
    150  N         55.4420    0.7680   14.8630 N.am  230  PHE230     -0.1963
    151  CA        55.4760    1.0400   16.2880 C.3   230  PHE230      0.1771
    152  C         56.4580    2.1720   16.5590 C.2   230  PHE230      0.2619
    153  O         57.6100    2.1730   16.1410 O.2   230  PHE230     -0.2715
    154  CB        55.9380   -0.2240   17.0540 C.3   230  PHE230      0.0574
    155  CG        56.3460    0.0370   18.4770 C.ar  230  PHE230     -0.0200
    156  CD1       55.4250    0.4840   19.4380 C.ar  230  PHE230     -0.0042
    157  CD2       57.6810   -0.1280   18.8750 C.ar  230  PHE230     -0.0042
    158  CE1       55.8320    0.7770   20.7270 C.ar  230  PHE230     -0.0003
    159  CE2       58.0670    0.1510   20.1970 C.ar  230  PHE230     -0.0003
    160  CZ        57.1500    0.5850   21.0950 C.ar  230  PHE230     -0.0000
    161  N         55.9800    3.1630   17.3080 N.am  231  ILE231     -0.1977
    162  CA        56.8000    4.2730   17.7680 C.3   231  ILE231      0.1596
    163  C         56.7860    4.3490   19.3010 C.2   231  ILE231      0.2287
    164  O         55.7440    4.5760   19.9200 O.2   231  ILE231     -0.2864
    165  CB        56.3370    5.6200   17.1740 C.3   231  ILE231      0.0276
    166  CG1       56.3310    5.5500   15.5930 C.3   231  ILE231      0.0022
    167  CG2       57.1590    6.8350   17.6710 C.3   231  ILE231      0.0022
    168  CD1       55.6440    6.6900   14.9140 C.3   231  ILE231      0.0001
    169  N         56.8180    5.3440   23.1240 N.3   233  HIS233     -0.1241
    170  CA        56.3770    6.4990   23.8360 C.3   233  HIS233      0.1621
    171  C         57.0380    6.4870   25.2240 C.2   233  HIS233      0.2264
    172  O         57.0150    5.4920   25.9310 O.2   233  HIS233     -0.2867
    173  CB        54.8690    6.4830   23.9920 C.3   233  HIS233      0.0745
    174  CG        54.2830    7.7450   24.5350 C.ar  233  HIS233      0.0817
    175  ND1       54.5440    8.2310   25.8060 N.ar  233  HIS233     -0.2268
    176  CD2       53.4370    8.6400   23.9770 C.ar  233  HIS233      0.1154
    177  CE1       53.8570    9.3400   26.0190 C.ar  233  HIS233      0.1986
    178  NE2       53.2060    9.6220   24.9160 N.ar  233  HIS233     -0.2212
    179  N         51.7120    7.8720   11.3670 N.3   270  ALA270     -0.1245
    180  CA        52.8900    7.2670   11.9360 C.3   270  ALA270      0.1562
    181  C         54.0090    7.1360   10.8700 C.2   270  ALA270      0.2260
    182  O         55.2010    7.3380   11.1480 O.2   270  ALA270     -0.2867
    183  CB        52.5740    5.9470   12.6140 C.3   270  ALA270      0.0290
    184  N         46.7000   14.4210   22.2560 N.3   303  TYR303     -0.1241
    185  CA        46.3770   13.1110   21.7000 C.3   303  TYR303      0.1605
    186  C         47.6030   12.4890   21.1630 C.2   303  TYR303      0.2264
    187  O         47.9010   12.5630   19.9970 O.2   303  TYR303     -0.2867
    188  CB        45.2590   13.2080   20.6980 C.3   303  TYR303      0.0534
    189  CG        44.6110   11.8800   20.3830 C.ar  303  TYR303     -0.0201
    190  CD1       43.5490   11.4010   21.1240 C.ar  303  TYR303     -0.0009
    191  CD2       45.0850   11.1120   19.3340 C.ar  303  TYR303     -0.0009
    192  CE1       42.9070   10.1950   20.8020 C.ar  303  TYR303      0.0417
    193  CE2       44.4800    9.9420   18.9850 C.ar  303  TYR303      0.0417
    194  CZ        43.4170    9.4660   19.7510 C.ar  303  TYR303      0.1957
    195  OH        42.7430    8.2790   19.4100 O.3   303  TYR303     -0.2866
    196  N         49.3590    9.1230   21.0330 N.3   305  LEU305     -0.1231
    197  CA        49.4880    7.6820   21.0210 C.3   305  LEU305      0.1693
    198  C         50.9680    7.3960   21.0390 C.2   305  LEU305      0.2592
    199  O         51.4010    6.5320   21.7260 O.2   305  LEU305     -0.2718
    200  CB        48.8290    7.1530   19.7300 C.3   305  LEU305      0.0284
    201  CG        47.3690    7.4760   19.5060 C.3   305  LEU305      0.0019
    202  CD1       46.9970    6.9790   18.0870 C.3   305  LEU305      0.0001
    203  CD2       46.5300    6.8230   20.5530 C.3   305  LEU305      0.0001
    204  N         51.7250    8.1410   20.2560 N.am  306  TYR306     -0.1976
    205  CA        53.1430    8.1220   20.1570 C.3   306  TYR306      0.1639
    206  C         53.6350    9.5500   20.0890 C.2   306  TYR306      0.2290
    207  O         52.8310   10.4720   19.7160 O.2   306  TYR306     -0.2864
    208  CB        53.6220    7.3220   18.9660 C.3   306  TYR306      0.0560
    209  CG        52.9750    7.7150   17.6500 C.ar  306  TYR306     -0.0198
    210  CD1       53.5000    8.7470   16.9120 C.ar  306  TYR306     -0.0009
    211  CD2       51.8740    7.0800   17.1950 C.ar  306  TYR306     -0.0009
    212  CE1       52.9370    9.1390   15.7490 C.ar  306  TYR306      0.0417
    213  CE2       51.2610    7.4490   16.0170 C.ar  306  TYR306      0.0417
    214  CZ        51.8070    8.4780   15.2840 C.ar  306  TYR306      0.1957
    215  OH        51.2210    8.9150   14.1550 O.3   306  TYR306     -0.2866
@<TRIPOS>BOND
     1    84    82    1
     2    82    83    1
     3    82    81    1
     4   181   182    2
     5   181   180    1
     6   149   143    1
     7   149   148    1
     8   179   180    1
     9   103   101    1
    10   143   144    1
    11   148   147    1
    12   180   183    1
    13    81    78    1
    14   147   144    1
    15    77    78    1
    16    78    79    1
    17   101   100    2
    18   101   102    1
    19   100    99    1
    20   144   145    1
    21    98    99    1
    22    98    97    1
    23    85    79   am
    24    85    86    1
    25   137   138    2
    26   137   136    1
    27    79    80    2
    28   135   136    1
    29    88    87    2
    30   136   139    1
    31    94    97    1
    32    94    93    1
    33    94    95    1
    34   145   146    2
    35   145   150   am
    36   215   214    1
    37    87    93   am
    38    87    86    1
    39    86    89    1
    40    95    96    2
    41   150   151    1
    42   168   166    1
    43    71    72    1
    44    71    68    1
    45    89    90    1
    46    67    68    1
    47   139   140    1
    48   214   212   ar
    49   214   213   ar
    50   104   105    1
    51    47    45   am
    52   107   106    2
    53   166   165    1
    54   140   141    1
    55    68    69    1
    56   212   210   ar
    57   106   105    1
    58   213   211   ar
    59   105   108    1
    60   153   152    2
    61    45    46    2
    62    45    44    1
    63   151   152    1
    64   151   154    1
    65    39    40    1
    66    43    44    1
    67    43    40    1
    68   152   161   am
    69    90    92    1
    70    90    91    1
    71   111   110   ar
    72   127   126    2
    73   210   209   ar
    74   154   155    1
    75    40    41    1
    76   165   167    1
    77   165   162    1
    78   211   209   ar
    79    69    70    2
    80   161   162    1
    81   110   112   ar
    82   110   109    1
    83   141   142    1
    84   108   109    1
    85   126   125    1
    86   209   208    1
    87   162   163    1
    88   129   128    1
    89   129   130    1
    90   202   201    1
    91   134   132    1
    92   131   132    2
    93   131   130    1
    94   155   157   ar
    95   155   156   ar
    96    41    42    2
    97    41    48   am
    98   128   125    1
    99   132   133    1
   100   125   124    1
   101   157   159   ar
   102   208   205    1
   103   193   191   ar
   104   193   194   ar
   105   163   164    2
   106   191   189   ar
   107   195   194    1
   108   156   158   ar
   109    48    49    1
   110   201   200    1
   111   201   203    1
   112    73    74    1
   113    76    75    2
   114   207   206    2
   115   200   197    1
   116   194   192   ar
   117   187   186    2
   118   206   205    1
   119   205   204    1
   120   159   160   ar
   121   204   198   am
   122    74    75    1
   123   189   188    1
   124   189   190   ar
   125   188   185    1
   126   158   160   ar
   127   192   190   ar
   128    49    50    1
   129    49    52    1
   130    51    50    2
   131   197   196    1
   132   197   198    1
   133   198   199    2
   134    24    23    1
   135   186   185    1
   136    21    23   ar
   137    21    19   ar
   138    23    22   ar
   139    19    18   ar
   140    50    54   am
   141    53    52    1
   142    22    20   ar
   143   185   184    1
   144   122   121    1
   145   119   120    1
   146   119   118    1
   147    18    20   ar
   148    18    17    1
   149   120   121    2
   150   121   123    1
   151    17    14    1
   152    54    55    1
   153    16    15    2
   154   118   117    1
   155   169   170    1
   156    30    29    1
   157    37    36    1
   158    66    64   ar
   159    15    14    1
   160    15    25   am
   161    14    13    1
   162    57    56    2
   163    55    56    1
   164    29    26    1
   165    26    25    1
   166    26    27    1
   167   170   173    1
   168   170   171    1
   169    56    58   am
   170   176   174   ar
   171   176   178   ar
   172   173   174    1
   173    36    38    1
   174    36    35    1
   175    63    64    1
   176    63    62    1
   177   117   114    1
   178    64    65   ar
   179    12    11    1
   180   174   175   ar
   181    58    59    1
   182    11     8    1
   183    27    28    2
   184   178   177   ar
   185    59    62    1
   186    59    60    1
   187    35    32    1
   188   171   172    2
   189   113   114    1
   190   114   115    1
   191    31    32    1
   192   175   177   ar
   193     8     9    1
   194     8     7    1
   195    32    33    1
   196    60    61    2
   197     9    10    2
   198   116   115    2
   199     6     5    1
   200     5     2    1
   201    33    34    2
   202     2     1    1
   203     2     3    1
   204     3     4    2
