@<TRIPOS>MOLECULE
tmp/5ff3A04.pdb
 108 100 0 0 0
SMALL
GASTEIGER

@<TRIPOS>ATOM
      1  N         39.8750   13.3560   10.4670 N.3    56  ILE56      -0.1245
      2  CA        39.8030   12.6870   11.7270 C.3    56  ILE56       0.1561
      3  C         39.7360   13.6520   12.8920 C.2    56  ILE56       0.2260
      4  O         40.5600   14.5540   13.0040 O.2    56  ILE56      -0.2867
      5  CB        40.9440   11.6290   11.9000 C.3    56  ILE56       0.0252
      6  CG1       40.7090   10.7820   13.1710 C.3    56  ILE56       0.0019
      7  CG2       42.3080   12.2090   11.8410 C.3    56  ILE56       0.0019
      8  CD1       41.5460    9.5300   13.2000 C.3    56  ILE56       0.0001
      9  N         39.8550   13.4760   16.8880 N.3    58  GLU58      -0.1245
     10  CA        40.2290   12.6440   18.0370 C.3    58  GLU58       0.1567
     11  C         39.6020   13.3240   19.2330 C.2    58  GLU58       0.2260
     12  O         40.1340   14.2980   19.7940 O.2    58  GLU58      -0.2867
     13  CB        41.7500   12.5600   18.1430 C.3    58  GLU58       0.0388
     14  CG        42.4400   12.0200   16.8800 C.3    58  GLU58       0.1160
     15  CD        43.8350   12.5670   16.5860 C.2    58  GLU58       0.3649
     16  OE1       44.0990   13.7440   16.9480 O.co2  58  GLU58      -0.2457
     17  OE2       44.6310   11.8620   15.9380 O.co2  58  GLU58      -0.2457
     18  N         37.4310    9.3380   16.3590 N.3   107  GLN107     -0.1245
     19  CA        38.3310    8.3990   17.0540 C.3   107  GLN107      0.1566
     20  C         38.5330    8.8850   18.4830 C.2   107  GLN107      0.2260
     21  O         38.5760   10.0840   18.7750 O.2   107  GLN107     -0.2867
     22  CB        39.6990    8.2600   16.3410 C.3   107  GLN107      0.0367
     23  CG        40.5420    7.1340   16.9510 C.3   107  GLN107      0.0905
     24  CD        41.8340    6.9720   16.2230 C.2   107  GLN107      0.2608
     25  OE1       42.8080    7.7020   16.5000 O.2   107  GLN107     -0.2717
     26  NE2       41.9330    6.0140   15.3380 N.am  107  GLN107     -0.0878
     27  N         36.7290    1.4090   12.1070 N.3   156  LEU156     -0.1245
     28  CA        38.1210    1.0140   12.1090 C.3   156  LEU156      0.1561
     29  C         38.4960    0.3430   13.4080 C.2   156  LEU156      0.2260
     30  O         38.2960    0.9330   14.4790 O.2   156  LEU156     -0.2867
     31  CB        39.0340    2.2440   11.9280 C.3   156  LEU156      0.0270
     32  CG        38.7150    3.1810   10.7930 C.3   156  LEU156      0.0019
     33  CD1       39.6520    4.3580   10.8270 C.3   156  LEU156      0.0001
     34  CD2       38.7170    2.4610    9.4430 C.3   156  LEU156      0.0001
     35  N         41.7600   -1.8490   14.1800 N.3   158  ARG158     -0.1245
     36  CA        42.9250   -2.5910   13.7790 C.3   158  ARG158      0.1563
     37  C         43.0700   -3.8800   14.6010 C.2   158  ARG158      0.2260
     38  O         42.8410   -3.8820   15.8040 O.2   158  ARG158     -0.2867
     39  CB        44.1650   -1.8050   13.9810 C.3   158  ARG158      0.0307
     40  CG        44.2590   -0.6350   13.0240 C.3   158  ARG158      0.0489
     41  CD        45.5900    0.0180   13.2380 C.3   158  ARG158      0.2205
     42  NE        45.7740    1.1750   12.4070 N.pl3 158  ARG158     -0.0865
     43  CZ        46.9230    1.8240   12.2820 C.cat 158  ARG158      0.5346
     44  NH1       47.9240    1.4570   13.0690 N.pl3 158  ARG158      0.1354
     45  NH2       47.0600    2.8190   11.4250 N.pl3 158  ARG158      0.1354
     46  N         45.1240    3.5320    3.9570 N.3   265  PRO265     -0.2116
     47  CA        45.6920    4.8530    4.2270 C.3   265  PRO265      0.1372
     48  C         47.2090    4.8820    4.2880 C.2   265  PRO265      0.2244
     49  O         47.8780    3.8840    4.5910 O.2   265  PRO265     -0.2868
     50  CB        45.1200    5.1880    5.6010 C.3   265  PRO265      0.0268
     51  CG        44.9250    3.8760    6.2130 C.3   265  PRO265      0.0207
     52  CD        44.3610    3.0640    5.1020 C.3   265  PRO265      0.0892
     53  N         49.3730    6.3720    6.6760 N.3   267  THR267     -0.1203
     54  CA        49.0950    6.8050    8.0450 C.3   267  THR267      0.1994
     55  C         50.0210    7.9020    8.5410 C.2   267  THR267      0.2619
     56  O         51.1580    8.0640    8.1210 O.2   267  THR267     -0.2717
     57  CB        49.1490    5.6120    8.9630 C.3   267  THR267      0.1784
     58  OG1       50.4630    5.0530    8.9660 O.3   267  THR267     -0.2211
     59  CG2       48.0900    4.5740    8.6360 C.3   267  THR267      0.0376
     60  N         49.5060    8.6550    9.5220 N.am  268  THR268     -0.1938
     61  CA        50.3120    9.6650   10.1600 C.3   268  THR268      0.2028
     62  C         51.5710    9.0910   10.7960 C.2   268  THR268      0.2642
     63  O         52.6020    9.7300   10.7710 O.2   268  THR268     -0.2714
     64  CB        49.4840   10.4840   11.1550 C.3   268  THR268      0.1808
     65  OG1       48.4760   11.1650   10.4020 O.3   268  THR268     -0.2208
     66  CG2       50.3020   11.5160   11.9160 C.3   268  THR268      0.0379
     67  N         51.4890    7.8640   11.3130 N.am  269  ALA269     -0.1977
     68  CA        52.7050    7.2480   11.9020 C.3   269  ALA269      0.1597
     69  C         53.7700    7.0890   10.8300 C.2   269  ALA269      0.2287
     70  O         54.9640    7.2810   11.1270 O.2   269  ALA269     -0.2864
     71  CB        52.3570    5.9450   12.5660 C.3   269  ALA269      0.0319
     72  N         44.3290   10.6940    6.0470 N.3   290  MET290     -0.1245
     73  CA        43.4650   11.1300    7.1360 C.3   290  MET290      0.1570
     74  C         44.0610   12.4320    7.8320 C.2   290  MET290      0.2261
     75  O         44.7640   12.3640    8.8190 O.2   290  MET290     -0.2867
     76  CB        43.2960    9.9650    8.1250 C.3   290  MET290      0.0387
     77  CG        42.7660    8.6670    7.3880 C.3   290  MET290      0.0595
     78  SD        42.9960    7.0460    8.1920 S.3   290  MET290     -0.1393
     79  CE        41.4910    7.5750    8.8930 C.3   290  MET290      0.0692
     80  N         49.0630    8.9570   21.0210 N.3   304  LEU304     -0.1231
     81  CA        49.2370    7.5080   21.0050 C.3   304  LEU304      0.1693
     82  C         50.7050    7.2390   21.0220 C.2   304  LEU304      0.2592
     83  O         51.1790    6.3060   21.7010 O.2   304  LEU304     -0.2718
     84  CB        48.5920    6.9540   19.7140 C.3   304  LEU304      0.0284
     85  CG        47.0860    7.2660   19.5140 C.3   304  LEU304      0.0019
     86  CD1       46.7030    6.8640   18.0900 C.3   304  LEU304      0.0001
     87  CD2       46.2460    6.5560   20.5640 C.3   304  LEU304      0.0001
     88  N         51.4680    7.9960   20.2500 N.am  305  TYR305     -0.1976
     89  CA        52.9020    7.9810   20.1630 C.3   305  TYR305      0.1639
     90  C         53.3720    9.4040   20.1160 C.2   305  TYR305      0.2290
     91  O         52.5880   10.3250   19.8350 O.2   305  TYR305     -0.2864
     92  CB        53.4460    7.1960   18.9560 C.3   305  TYR305      0.0560
     93  CG        52.7990    7.6140   17.6530 C.ar  305  TYR305     -0.0198
     94  CD1       53.2810    8.7430   16.9420 C.ar  305  TYR305     -0.0009
     95  CD2       51.6990    6.9860   17.1740 C.ar  305  TYR305     -0.0009
     96  CE1       52.7040    9.1390   15.7910 C.ar  305  TYR305      0.0417
     97  CE2       51.0500    7.4040   16.0030 C.ar  305  TYR305      0.0417
     98  CZ        51.6070    8.4940   15.3100 C.ar  305  TYR305      0.1957
     99  OH        51.0240    8.9700   14.1600 O.3   305  TYR305     -0.2866
    100  N         54.3840   13.3280   16.9780 N.3   308  LYS308     -0.1245
    101  CA        53.4590   13.2170   15.8300 C.3   308  LYS308      0.1561
    102  C         53.5130   14.5240   15.0290 C.2   308  LYS308      0.2260
    103  O         53.5130   15.6390   15.5790 O.2   308  LYS308     -0.2867
    104  CB        52.0410   12.9660   16.3670 C.3   308  LYS308      0.0271
    105  CG        50.8870   12.6160   15.3770 C.3   308  LYS308      0.0035
    106  CD        49.5470   12.7060   16.2280 C.3   308  LYS308      0.0206
    107  CE        48.1550   12.5110   15.6350 C.3   308  LYS308      0.1093
    108  NZ        47.3540   12.2100   16.8210 N.3   308  LYS308     -0.1314
@<TRIPOS>BOND
     1    46    47    1
     2    46    52    1
     3    47    48    1
     4    47    50    1
     5    48    49    2
     6    52    51    1
     7    50    51    1
     8    72    73    1
     9    53    54    1
    10    73    74    1
    11    73    76    1
    12    77    76    1
    13    77    78    1
    14    74    75    2
    15    54    55    1
    16    54    57    1
    17    56    55    2
    18    78    79    1
    19    55    60   am
    20    59    57    1
    21    57    58    1
    22    34    32    1
    23    60    61    1
    24    61    62    1
    25    61    64    1
    26    65    64    1
    27     1     2    1
    28    63    62    2
    29    32    33    1
    30    32    31    1
    31    62    67   am
    32    69    70    2
    33    69    68    1
    34    64    66    1
    35    67    68    1
    36    45    43    1
    37     2     5    1
    38     2     3    1
    39     7     5    1
    40     5     6    1
    41    68    71    1
    42    31    28    1
    43    27    28    1
    44    28    29    1
    45    43    42    2
    46    43    44    1
    47    42    41    1
    48     3     4    2
    49    40    41    1
    50    40    39    1
    51     6     8    1
    52    29    30    2
    53    36    39    1
    54    36    35    1
    55    36    37    1
    56    99    98    1
    57    37    38    2
    58   102   103    2
    59   102   101    1
    60    98    96   ar
    61    98    97   ar
    62    26    24   am
    63   105   106    1
    64   105   104    1
    65   107   106    1
    66   107   108    1
    67    96    94   ar
    68   101   104    1
    69   101   100    1
    70    17    15   ar
    71    97    95   ar
    72    24    25    2
    73    24    23    1
    74    22    23    1
    75    22    19    1
    76    18    19    1
    77    15    14    1
    78    15    16   ar
    79    14    13    1
    80     9    10    1
    81    94    93   ar
    82    19    20    1
    83    95    93   ar
    84    93    92    1
    85    10    13    1
    86    10    11    1
    87    86    85    1
    88    20    21    2
    89    92    89    1
    90    11    12    2
    91    85    84    1
    92    85    87    1
    93    84    81    1
    94    91    90    2
    95    90    89    1
    96    89    88    1
    97    88    82   am
    98    81    80    1
    99    81    82    1
   100    82    83    2
