@<TRIPOS>MOLECULE
tmp/5ff4A05.pdb
 124 115 0 0 0
SMALL
GASTEIGER

@<TRIPOS>ATOM
      1  N         39.9220   13.4150   10.6040 N.3    55  ILE55      -0.1245
      2  CA        39.8240   12.8220   11.9190 C.3    55  ILE55       0.1561
      3  C         39.6740   13.7970   13.0280 C.2    55  ILE55       0.2260
      4  O         40.4540   14.7190   13.1430 O.2    55  ILE55      -0.2867
      5  CB        41.0650   11.9180   12.2890 C.3    55  ILE55       0.0252
      6  CG1       41.4670   10.9840   11.2570 C.3    55  ILE55       0.0019
      7  CG2       40.8600   11.1920   13.5990 C.3    55  ILE55       0.0019
      8  CD1       42.6390   10.1430   11.6300 C.3    55  ILE55       0.0001
      9  N         39.7530   13.6540   17.0340 N.3    57  GLU57      -0.1245
     10  CA        40.1770   12.8250   18.1870 C.3    57  GLU57       0.1567
     11  C         39.5110   13.5160   19.3670 C.2    57  GLU57       0.2260
     12  O         40.0330   14.4690   19.9530 O.2    57  GLU57      -0.2867
     13  CB        41.6850   12.7690   18.2880 C.3    57  GLU57       0.0388
     14  CG        42.3790   12.2520   17.0830 C.3    57  GLU57       0.1160
     15  CD        43.8050   12.7670   16.9170 C.2    57  GLU57       0.3649
     16  OE1       44.0390   13.9680   17.2920 O.co2  57  GLU57      -0.2457
     17  OE2       44.6700   12.0680   16.4370 O.co2  57  GLU57      -0.2457
     18  N         37.4280    9.4530   16.4470 N.3   106  GLN106     -0.1245
     19  CA        38.3440    8.5560   17.1250 C.3   106  GLN106      0.1566
     20  C         38.5270    8.9880   18.5670 C.2   106  GLN106      0.2260
     21  O         38.5860   10.1710   18.8490 O.2   106  GLN106     -0.2867
     22  CB        39.7020    8.4380   16.4120 C.3   106  GLN106      0.0367
     23  CG        40.5850    7.3150   16.9150 C.3   106  GLN106      0.0905
     24  CD        41.8510    7.1470   16.1880 C.2   106  GLN106      0.2608
     25  OE1       42.8040    7.9520   16.4640 O.2   106  GLN106     -0.2717
     26  NE2       41.9890    6.2310   15.3460 N.am  106  GLN106     -0.0878
     27  N         36.7890    1.5260   12.1580 N.3   156  LEU156     -0.1245
     28  CA        38.1840    1.1630   12.1550 C.3   156  LEU156      0.1561
     29  C         38.5030    0.4780   13.4560 C.2   156  LEU156      0.2260
     30  O         38.3270    1.0690   14.5450 O.2   156  LEU156     -0.2867
     31  CB        39.0790    2.3810   12.0250 C.3   156  LEU156      0.0270
     32  CG        38.7120    3.3140   10.8210 C.3   156  LEU156      0.0019
     33  CD1       39.6360    4.5840   10.9980 C.3   156  LEU156      0.0001
     34  CD2       38.7550    2.5630    9.4740 C.3   156  LEU156      0.0001
     35  N         41.8450   -1.7630   14.2150 N.3   158  ARG158     -0.1245
     36  CA        43.0420   -2.5140   13.8190 C.3   158  ARG158      0.1563
     37  C         43.1350   -3.7570   14.6390 C.2   158  ARG158      0.2260
     38  O         42.9020   -3.7890   15.8300 O.2   158  ARG158     -0.2867
     39  CB        44.2700   -1.6900   14.0880 C.3   158  ARG158      0.0307
     40  CG        44.4300   -0.5670   13.0600 C.3   158  ARG158      0.0489
     41  CD        45.6970    0.1500   13.5320 C.3   158  ARG158      0.2205
     42  NE        45.9940    1.1580   12.5730 N.pl3 158  ARG158     -0.0865
     43  CZ        47.2450    1.6470   12.4350 C.cat 158  ARG158      0.5346
     44  NH1       48.2160    1.2620   13.3200 N.pl3 158  ARG158      0.1354
     45  NH2       47.4730    2.4700   11.5060 N.pl3 158  ARG158      0.1354
     46  N         44.7340   -0.2870    7.9000 N.3   225  GLY225     -0.1225
     47  CA        45.6080    0.7070    8.4320 C.3   225  GLY225      0.1811
     48  C         46.8660    0.0540    9.0310 C.2   225  GLY225      0.2280
     49  O         46.7780   -0.7060    9.9520 O.2   225  GLY225     -0.2866
     50  N         45.2520    3.6020    3.9660 N.3   265  PRO265     -0.2116
     51  CA        45.8360    4.9100    4.2170 C.3   265  PRO265      0.1372
     52  C         47.3140    4.9550    4.2600 C.2   265  PRO265      0.2244
     53  O         48.0120    3.9540    4.5550 O.2   265  PRO265     -0.2868
     54  CB        45.2770    5.2900    5.5920 C.3   265  PRO265      0.0268
     55  CG        45.1040    3.9540    6.2650 C.3   265  PRO265      0.0207
     56  CD        44.5610    3.0660    5.1620 C.3   265  PRO265      0.0892
     57  N         49.5860    6.4460    6.5890 N.3   267  THR267     -0.1203
     58  CA        49.2570    6.8610    7.9500 C.3   267  THR267      0.1994
     59  C         50.1390    7.9230    8.5180 C.2   267  THR267      0.2619
     60  O         51.2370    8.0970    8.1000 O.2   267  THR267     -0.2717
     61  CB        49.2950    5.6840    8.8870 C.3   267  THR267      0.1784
     62  OG1       50.6010    5.0850    8.9060 O.3   267  THR267     -0.2211
     63  CG2       48.2560    4.6190    8.5130 C.3   267  THR267      0.0376
     64  N         49.5810    8.6600    9.4660 N.am  268  THR268     -0.1938
     65  CA        50.3690    9.6680   10.1450 C.3   268  THR268      0.2028
     66  C         51.5850    9.0650   10.7780 C.2   268  THR268      0.2642
     67  O         52.5900    9.7060   10.7730 O.2   268  THR268     -0.2714
     68  CB        49.5030   10.4690   11.1460 C.3   268  THR268      0.1808
     69  OG1       48.5710   11.2470   10.4200 O.3   268  THR268     -0.2208
     70  CG2       50.3160   11.4220   11.9680 C.3   268  THR268      0.0379
     71  N         51.5330    7.8780   11.2870 N.am  269  ALA269     -0.1977
     72  CA        52.7370    7.2440   11.8730 C.3   269  ALA269      0.1597
     73  C         53.8630    7.0680   10.8530 C.2   269  ALA269      0.2287
     74  O         54.9800    7.3160   11.1990 O.2   269  ALA269     -0.2864
     75  CB        52.3600    5.9200   12.5330 C.3   269  ALA269      0.0319
     76  N         44.4560   10.7450    6.0090 N.3   290  MET290     -0.1245
     77  CA        43.6180   11.0620    7.1220 C.3   290  MET290      0.1570
     78  C         44.1250   12.3390    7.8730 C.2   290  MET290      0.2261
     79  O         44.6830   12.1440    8.9830 O.2   290  MET290     -0.2867
     80  CB        43.4610    9.7760    8.0160 C.3   290  MET290      0.0387
     81  CG        43.0870    8.5340    7.1170 C.3   290  MET290      0.0595
     82  SD        42.9680    6.9390    7.9270 S.3   290  MET290     -0.1393
     83  CE        41.5010    7.2960    8.8230 C.3   290  MET290      0.0692
     84  N         46.5340   14.4970   22.3630 N.3   302  TYR302     -0.1241
     85  CA        46.1900   13.1760   21.8460 C.3   302  TYR302      0.1605
     86  C         47.4450   12.4840   21.3500 C.2   302  TYR302      0.2264
     87  O         47.7330   12.4180   20.1850 O.2   302  TYR302     -0.2867
     88  CB        45.1490   13.1910   20.7720 C.3   302  TYR302      0.0534
     89  CG        44.4630   11.8620   20.5230 C.ar  302  TYR302     -0.0201
     90  CD1       43.3900   11.4300   21.2200 C.ar  302  TYR302     -0.0009
     91  CD2       44.9190   11.0340   19.5430 C.ar  302  TYR302     -0.0009
     92  CE1       42.7200   10.2740   20.9400 C.ar  302  TYR302      0.0417
     93  CE2       44.2610    9.8720   19.2540 C.ar  302  TYR302      0.0417
     94  CZ        43.2340    9.5120   19.9710 C.ar  302  TYR302      0.1957
     95  OH        42.5880    8.3460   19.6680 O.3   302  TYR302     -0.2866
     96  N         49.1560    9.2040   21.1330 N.3   304  LEU304     -0.1231
     97  CA        49.3240    7.8180   21.1880 C.3   304  LEU304      0.1693
     98  C         50.8210    7.4640   21.1240 C.2   304  LEU304      0.2592
     99  O         51.1950    6.5360   21.8100 O.2   304  LEU304     -0.2718
    100  CB        48.6050    7.1960   19.9600 C.3   304  LEU304      0.0284
    101  CG        47.1640    7.5310   19.8210 C.3   304  LEU304      0.0019
    102  CD1       46.7600    7.0820   18.4050 C.3   304  LEU304      0.0001
    103  CD2       46.3460    6.7970   20.8150 C.3   304  LEU304      0.0001
    104  N         51.6000    8.2780   20.3840 N.am  305  TYR305     -0.1976
    105  CA        52.9930    8.1130   20.2170 C.3   305  TYR305      0.1639
    106  C         53.5870    9.4920   20.0930 C.2   305  TYR305      0.2290
    107  O         52.8640   10.4250   19.7110 O.2   305  TYR305     -0.2864
    108  CB        53.2580    7.2260   19.0240 C.3   305  TYR305      0.0560
    109  CG        52.5950    7.6370   17.7270 C.ar  305  TYR305     -0.0198
    110  CD1       53.1520    8.6280   16.9370 C.ar  305  TYR305     -0.0009
    111  CD2       51.4410    7.0500   17.3080 C.ar  305  TYR305     -0.0009
    112  CE1       52.5260    9.0590   15.7830 C.ar  305  TYR305      0.0417
    113  CE2       50.8150    7.4670   16.1270 C.ar  305  TYR305      0.0417
    114  CZ        51.4010    8.4230   15.3780 C.ar  305  TYR305      0.1957
    115  OH        50.8030    8.8630   14.2080 O.3   305  TYR305     -0.2866
    116  N         54.0560   12.9820   16.9960 N.3   308  LYS308     -0.1245
    117  CA        52.8800   12.8370   16.1410 C.3   308  LYS308      0.1561
    118  C         52.5680   14.1120   15.4000 C.2   308  LYS308      0.2260
    119  O         52.6250   15.1650   15.9880 O.2   308  LYS308     -0.2867
    120  CB        51.6850   12.3820   17.0060 C.3   308  LYS308      0.0271
    121  CG        50.4810   12.1590   16.0670 C.3   308  LYS308      0.0035
    122  CD        49.3830   11.7690   16.9890 C.3   308  LYS308      0.0206
    123  CE        49.6440   10.5140   17.6590 C.3   308  LYS308      0.1093
    124  NZ        48.4690   10.1420   18.3930 N.3   308  LYS308     -0.1314
@<TRIPOS>BOND
     1    50    51    1
     2    50    56    1
     3    51    52    1
     4    51    54    1
     5    52    53    2
     6    56    55    1
     7    54    55    1
     8    76    77    1
     9    57    58    1
    10    81    82    1
    11    81    80    1
    12    77    78    1
    13    77    80    1
    14    78    79    2
    15    46    47    1
    16    82    83    1
    17    58    59    1
    18    58    61    1
    19    60    59    2
    20    47    48    1
    21    63    61    1
    22    59    64   am
    23    61    62    1
    24    48    49    2
    25    64    65    1
    26    34    32    1
    27    65    66    1
    28    65    68    1
    29    69    68    1
    30     1     2    1
    31    67    66    2
    32    66    71   am
    33    32    33    1
    34    32    31    1
    35    73    74    2
    36    73    72    1
    37    68    70    1
    38     6     8    1
    39     6     5    1
    40    71    72    1
    41    45    43    1
    42    72    75    1
    43     2     5    1
    44     2     3    1
    45    31    28    1
    46    28    27    1
    47    28    29    1
    48     5     7    1
    49    43    42    2
    50    43    44    1
    51    42    41    1
    52     3     4    2
    53    40    41    1
    54    40    39    1
    55    29    30    2
    56    36    39    1
    57    36    35    1
    58    36    37    1
    59   115   114    1
    60    37    38    2
    61    26    24   am
    62   114   112   ar
    63   114   113   ar
    64   118   119    2
    65   118   117    1
    66   112   110   ar
    67   121   122    1
    68   121   120    1
    69   113   111   ar
    70   117   116    1
    71   117   120    1
    72    24    25    2
    73    24    23    1
    74    22    23    1
    75    22    19    1
    76    17    15   ar
    77    18    19    1
    78    15    14    1
    79    15    16   ar
    80   110   109   ar
    81   122   123    1
    82     9    10    1
    83    14    13    1
    84    19    20    1
    85   111   109   ar
    86   123   124    1
    87   109   108    1
    88    10    13    1
    89    10    11    1
    90   102   101    1
    91    20    21    2
    92   108   105    1
    93    93    91   ar
    94    93    94   ar
    95    11    12    2
    96    91    89   ar
    97    95    94    1
    98   107   106    2
    99   101   100    1
   100   101   103    1
   101   100    97    1
   102    94    92   ar
   103   106   105    1
   104    87    86    2
   105   105   104    1
   106   104    98   am
   107    89    88    1
   108    89    90   ar
   109    88    85    1
   110    92    90   ar
   111    98    97    1
   112    98    99    2
   113    96    97    1
   114    86    85    1
   115    85    84    1
