@<TRIPOS>MOLECULE
tmp/5ff7C00.pdb
 99 90 0 0 0
SMALL
GASTEIGER

@<TRIPOS>ATOM
      1  N         31.8180   40.9950   47.3200 N.3    25  ALA25      -0.1245
      2  CA        30.7860   40.6850   48.3010 C.3    25  ALA25       0.1562
      3  C         31.1330   39.3800   49.0050 C.2    25  ALA25       0.2260
      4  O         31.2250   38.3290   48.3610 O.2    25  ALA25      -0.2867
      5  CB        29.4170   40.5830   47.6320 C.3    25  ALA25       0.0290
      6  N         29.7640   38.8090   52.6070 N.3    27  ASP27      -0.1225
      7  CA        29.0540   38.8420   53.8790 C.3    27  ASP27       0.1805
      8  C         28.2140   37.5950   54.1040 C.2    27  ASP27       0.2597
      9  O         27.5170   37.5080   55.1180 O.2    27  ASP27      -0.2718
     10  CB        28.1630   40.0850   53.9580 C.3    27  ASP27       0.1424
     11  CG        27.1100   40.1170   52.8680 C.2    27  ASP27       0.3668
     12  OD1       27.3130   39.4670   51.8200 O.co2  27  ASP27      -0.2456
     13  OD2       26.0800   40.7950   53.0580 O.co2  27  ASP27      -0.2456
     14  N         28.2600   36.6340   53.1840 N.am   28  GLN28      -0.1979
     15  CA        27.5080   35.4000   53.3530 C.3    28  GLN28       0.1601
     16  C         27.9130   34.7100   54.6480 C.2    28  GLN28       0.2287
     17  O         29.0930   34.6640   55.0080 O.2    28  GLN28      -0.2864
     18  CB        27.7380   34.4620   52.1670 C.3    28  GLN28       0.0394
     19  CG        27.0160   34.8710   50.8900 C.3    28  GLN28       0.0908
     20  CD        27.7800   35.9000   50.0810 C.2    28  GLN28       0.2608
     21  OE1       28.7640   36.4730   50.5480 O.2    28  GLN28      -0.2717
     22  NE2       27.3320   36.1350   48.8530 N.am   28  GLN28      -0.0878
     23  N         32.4310   44.0200   50.8070 N.3    68  LEU68      -0.1245
     24  CA        31.3000   43.9070   51.7160 C.3    68  LEU68       0.1561
     25  C         31.5280   42.7020   52.6200 C.2    68  LEU68       0.2260
     26  O         31.7110   41.5810   52.1320 O.2    68  LEU68      -0.2867
     27  CB        29.9940   43.7600   50.9320 C.3    68  LEU68       0.0270
     28  CG        28.7790   43.2080   51.6810 C.3    68  LEU68       0.0019
     29  CD1       28.4130   44.1050   52.8520 C.3    68  LEU68       0.0001
     30  CD2       27.6030   43.0530   50.7290 C.3    68  LEU68       0.0001
     31  N         25.0170   48.1350   54.7920 N.3   125  LYS125     -0.1245
     32  CA        24.3200   47.3000   53.8290 C.3   125  LYS125      0.1561
     33  C         23.2340   46.5080   54.5430 C.2   125  LYS125      0.2260
     34  O         23.4580   45.9710   55.6320 O.2   125  LYS125     -0.2867
     35  CB        25.2910   46.3550   53.1160 C.3   125  LYS125      0.0271
     36  CG        24.6280   45.3990   52.1340 C.3   125  LYS125      0.0035
     37  CD        24.3660   44.0440   52.7710 C.3   125  LYS125      0.0206
     38  CE        23.7050   43.0890   51.8000 C.3   125  LYS125      0.1093
     39  NZ        23.4240   41.7750   52.4410 N.3   125  LYS125     -0.1314
     40  N         19.9900   46.0590   49.5640 N.3   163  GLU163     -0.1245
     41  CA        19.8600   44.9350   48.6500 C.3   163  GLU163      0.1567
     42  C         18.4300   44.4150   48.6860 C.2   163  GLU163      0.2260
     43  O         17.8790   44.1720   49.7650 O.2   163  GLU163     -0.2867
     44  CB        20.8310   43.8120   49.0180 C.3   163  GLU163      0.0388
     45  CG        20.7660   42.6080   48.0810 C.3   163  GLU163      0.1160
     46  CD        21.6770   41.4730   48.5120 C.2   163  GLU163      0.3649
     47  OE1       22.4020   41.6320   49.5170 O.co2 163  GLU163     -0.2457
     48  OE2       21.6640   40.4160   47.8460 O.co2 163  GLU163     -0.2457
     49  N         21.1590   47.6000   45.4930 N.3   205  LYS205     -0.1245
     50  CA        21.8010   46.3820   45.0120 C.3   205  LYS205      0.1561
     51  C         20.6940   45.4180   44.6090 C.2   205  LYS205      0.2260
     52  O         19.9020   44.9920   45.4560 O.2   205  LYS205     -0.2867
     53  CB        22.7010   45.7770   46.0920 C.3   205  LYS205      0.0271
     54  CG        23.3490   44.4530   45.7130 C.3   205  LYS205      0.0035
     55  CD        24.0850   43.8340   46.8980 C.3   205  LYS205      0.0206
     56  CE        24.5360   42.4110   46.5920 C.3   205  LYS205      0.1093
     57  NZ        25.1640   41.7320   47.7620 N.3   205  LYS205     -0.1314
     58  N         23.9060   42.2960   41.5790 N.3   248  LEU248     -0.1231
     59  CA        24.4390   41.1480   42.2920 C.3   248  LEU248      0.1693
     60  C         24.4940   39.9490   41.3520 C.2   248  LEU248      0.2593
     61  O         23.7070   39.8430   40.4060 O.2   248  LEU248     -0.2718
     62  CB        23.5840   40.8250   43.5170 C.3   248  LEU248      0.0284
     63  CG        22.1020   40.5400   43.2650 C.3   248  LEU248      0.0019
     64  CD1       21.8410   39.0420   43.1790 C.3   248  LEU248      0.0001
     65  CD2       21.2520   41.1750   44.3520 C.3   248  LEU248      0.0001
     66  N         25.4390   39.0420   41.6170 N.am  249  SER249     -0.1938
     67  CA        25.6510   37.9160   40.7120 C.3   249  SER249      0.2055
     68  C         24.6070   36.8220   40.8970 C.2   249  SER249      0.2642
     69  O         24.2910   36.1100   39.9380 O.2   249  SER249     -0.2714
     70  CB        27.0530   37.3330   40.9070 C.3   249  SER249      0.2130
     71  OG        27.1610   36.6380   42.1380 O.3   249  SER249     -0.2179
     72  N         24.0650   36.6700   42.1030 N.am  250  ALA250     -0.1977
     73  CA        23.0980   35.6180   42.4110 C.3   250  ALA250      0.1597
     74  C         23.6870   34.2220   42.2270 C.2   250  ALA250      0.2287
     75  O         22.9450   33.2450   42.0920 O.2   250  ALA250     -0.2864
     76  CB        21.8270   35.7640   41.5660 C.3   250  ALA250      0.0319
     77  N         28.0740   44.3950   43.0490 N.3   275  LEU275     -0.1245
     78  CA        28.5290   43.8220   44.3120 C.3   275  LEU275      0.1561
     79  C         28.5170   42.3180   44.0670 C.2   275  LEU275      0.2260
     80  O         27.5060   41.6470   44.2920 O.2   275  LEU275     -0.2867
     81  CB        27.6450   44.2310   45.4950 C.3   275  LEU275      0.0270
     82  CG        28.3000   45.1630   46.5190 C.3   275  LEU275      0.0019
     83  CD1       27.2810   45.6610   47.5410 C.3   275  LEU275      0.0001
     84  CD2       29.4520   44.4610   47.2220 C.3   275  LEU275      0.0001
     85  N         29.8160   38.4130   44.4300 N.3   277  GLY277     -0.1210
     86  CA        30.3570   37.5100   45.4260 C.3   277  GLY277      0.1956
     87  C         30.6660   36.1220   44.9020 C.2   277  GLY277      0.2611
     88  O         31.7720   35.8640   44.4190 O.2   277  GLY277     -0.2717
     89  N         29.6870   35.2190   44.9950 N.am  278  ARG278     -0.1979
     90  CA        29.9320   33.8130   44.6930 C.3   278  ARG278      0.1597
     91  C         30.5570   33.6290   43.3150 C.2   278  ARG278      0.2287
     92  O         31.4920   32.8370   43.1500 O.2   278  ARG278     -0.2864
     93  CB        28.6250   33.0280   44.7990 C.3   278  ARG278      0.0334
     94  CG        28.1690   32.7900   46.2310 C.3   278  ARG278      0.0492
     95  CD        26.6970   32.4270   46.2930 C.3   278  ARG278      0.2205
     96  NE        25.8440   33.5770   46.0070 N.pl3 278  ARG278     -0.0865
     97  CZ        24.5210   33.5210   45.8880 C.cat 278  ARG278      0.5346
     98  NH1       23.8840   32.3650   46.0260 N.pl3 278  ARG278      0.1354
     99  NH2       23.8330   34.6240   45.6270 N.pl3 278  ARG278      0.1354
@<TRIPOS>BOND
     1    69    68    2
     2    61    60    2
     3    67    68    1
     4    67    70    1
     5    67    66    1
     6    68    72   am
     7    70    71    1
     8    60    66   am
     9    60    59    1
    10    76    73    1
    11    58    59    1
    12    75    74    2
    13    72    73    1
    14    74    73    1
    15    59    62    1
    16    77    78    1
    17    92    91    2
    18    64    63    1
    19    63    62    1
    20    63    65    1
    21    91    90    1
    22    79    80    2
    23    79    78    1
    24    78    81    1
    25    88    87    2
    26    85    86    1
    27    51    50    1
    28    51    52    2
    29    90    93    1
    30    90    89    1
    31    93    94    1
    32    87    89   am
    33    87    86    1
    34    50    49    1
    35    50    53    1
    36    81    82    1
    37    99    97    1
    38    54    53    1
    39    54    55    1
    40    97    96    2
    41    97    98    1
    42    96    95    1
    43    94    95    1
    44    82    84    1
    45    82    83    1
    46    56    55    1
    47    56    57    1
    48     1     2    1
    49     5     2    1
    50    48    46   ar
    51    45    46    1
    52    45    44    1
    53     2     3    1
    54     4     3    2
    55    46    47   ar
    56    41    42    1
    57    41    44    1
    58    41    40    1
    59    42    43    2
    60    22    20   am
    61    20    21    2
    62    20    19    1
    63    30    28    1
    64    23    24    1
    65    19    18    1
    66    27    28    1
    67    27    24    1
    68    28    29    1
    69    24    25    1
    70    38    39    1
    71    38    37    1
    72    12    11   ar
    73    26    25    2
    74    36    37    1
    75    36    35    1
    76    18    15    1
    77     6     7    1
    78    11    13   ar
    79    11    10    1
    80    35    32    1
    81    14    15    1
    82    14     8   am
    83    15    16    1
    84    32    33    1
    85    32    31    1
    86     7    10    1
    87     7     8    1
    88     8     9    2
    89    33    34    2
    90    16    17    2
