@<TRIPOS>MOLECULE
tmp/5ff7C01.pdb
 100 96 0 0 0
SMALL
GASTEIGER

@<TRIPOS>ATOM
      1  N         29.7640   38.8090   52.6070 N.3    27  ASP27      -0.1225
      2  CA        29.0540   38.8420   53.8790 C.3    27  ASP27       0.1805
      3  C         28.2140   37.5950   54.1040 C.2    27  ASP27       0.2598
      4  O         27.5170   37.5080   55.1180 O.2    27  ASP27      -0.2718
      5  CB        28.1630   40.0850   53.9580 C.3    27  ASP27       0.1424
      6  CG        27.1100   40.1170   52.8680 C.2    27  ASP27       0.3668
      7  OD1       27.3130   39.4670   51.8200 O.co2  27  ASP27      -0.2456
      8  OD2       26.0800   40.7950   53.0580 O.co2  27  ASP27      -0.2456
      9  N         28.2600   36.6340   53.1840 N.am   28  GLN28      -0.1965
     10  CA        27.5080   35.4000   53.3530 C.3    28  GLN28       0.1733
     11  C         27.9130   34.7100   54.6480 C.2    28  GLN28       0.2616
     12  O         29.0930   34.6640   55.0080 O.2    28  GLN28      -0.2715
     13  CB        27.7380   34.4620   52.1670 C.3    28  GLN28       0.0408
     14  CG        27.0160   34.8710   50.8900 C.3    28  GLN28       0.0908
     15  CD        27.7800   35.9000   50.0810 C.2    28  GLN28       0.2608
     16  OE1       28.7640   36.4730   50.5480 O.2    28  GLN28      -0.2717
     17  NE2       27.3320   36.1350   48.8530 N.am   28  GLN28      -0.0878
     18  N         26.9200   34.1730   55.3530 N.am   29  ARG29      -0.1963
     19  CA        27.1650   33.4700   56.6030 C.3    29  ARG29       0.1729
     20  C         26.5380   32.0830   56.5500 C.2    29  ARG29       0.2617
     21  O         27.2480   31.0820   56.4150 O.2    29  ARG29      -0.2715
     22  CB        26.6200   34.2820   57.7800 C.3    29  ARG29       0.0348
     23  CG        27.4830   35.4820   58.1360 C.3    29  ARG29       0.0492
     24  CD        26.6760   36.5910   58.7840 C.3    29  ARG29       0.2205
     25  NE        25.9450   37.3780   57.7940 N.pl3  29  ARG29      -0.0865
     26  CZ        25.0510   38.3150   58.0900 C.cat  29  ARG29       0.5346
     27  NH1       24.7590   38.5900   59.3560 N.pl3  29  ARG29       0.1354
     28  NH2       24.4410   38.9770   57.1170 N.pl3  29  ARG29       0.1354
     29  N         25.2110   32.0120   56.6460 N.am   30  GLY30      -0.1940
     30  CA        24.5450   30.7250   56.5360 C.3    30  GLY30       0.2014
     31  C         24.8230   30.0410   55.2110 C.2    30  GLY30       0.2638
     32  O         25.0490   28.8290   55.1620 O.2    30  GLY30      -0.2714
     33  N         24.8140   30.8080   54.1190 N.am   31  ALA31      -0.1977
     34  CA        25.1010   30.2320   52.8100 C.3    31  ALA31       0.1597
     35  C         26.5270   29.7020   52.7450 C.2    31  ALA31       0.2287
     36  O         26.7730   28.6260   52.1880 O.2    31  ALA31      -0.2864
     37  CB        24.8660   31.2740   51.7170 C.3    31  ALA31       0.0319
     38  N         26.8690   26.3940   54.7840 N.3    34  ARG34      -0.1245
     39  CA        26.3480   25.2380   54.0610 C.3    34  ARG34       0.1563
     40  C         27.3000   24.8030   52.9540 C.2    34  ARG34       0.2260
     41  O         27.4280   23.6050   52.6750 O.2    34  ARG34      -0.2867
     42  CB        24.9670   25.5520   53.4870 C.3    34  ARG34       0.0307
     43  CG        23.8830   25.7230   54.5390 C.3    34  ARG34       0.0489
     44  CD        22.4950   25.6270   53.9260 C.3    34  ARG34       0.2205
     45  NE        22.3370   26.5140   52.7770 N.pl3  34  ARG34      -0.0865
     46  CZ        22.0040   27.8000   52.8540 C.cat  34  ARG34       0.5346
     47  NH1       21.7920   28.3740   54.0340 N.pl3  34  ARG34       0.1354
     48  NH2       21.8880   28.5140   51.7420 N.pl3  34  ARG34       0.1354
     49  N         21.9060   43.1370   58.4760 N.3    92  GLU92      -0.1245
     50  CA        20.7990   42.2150   58.6820 C.3    92  GLU92       0.1567
     51  C         21.2970   40.8670   59.1820 C.2    92  GLU92       0.2260
     52  O         22.4200   40.4480   58.8860 O.2    92  GLU92      -0.2867
     53  CB        20.0060   42.0140   57.3870 C.3    92  GLU92       0.0388
     54  CG        20.6330   41.0600   56.3610 C.3    92  GLU92       0.1160
     55  CD        21.8540   41.6390   55.6680 C.2    92  GLU92       0.3649
     56  OE1       22.0940   42.8560   55.7990 O.co2  92  GLU92      -0.2457
     57  OE2       22.5720   40.8760   54.9840 O.co2  92  GLU92      -0.2457
     58  N         21.3140   36.7730   59.1370 N.3    94  THR94      -0.1203
     59  CA        21.4360   35.8800   57.9950 C.3    94  THR94       0.1994
     60  C         20.1500   35.0850   57.7910 C.2    94  THR94       0.2618
     61  O         19.4830   34.6940   58.7530 O.2    94  THR94      -0.2717
     62  CB        22.6200   34.9290   58.1900 C.3    94  THR94       0.1784
     63  OG1       22.8080   34.1450   57.0080 O.3    94  THR94      -0.2211
     64  CG2       22.3950   34.0010   59.3820 C.3    94  THR94       0.0376
     65  N         19.8020   34.8590   56.5270 N.am   95  GLY95      -0.1942
     66  CA        18.7110   33.9670   56.1860 C.3    95  GLY95       0.2014
     67  C         17.3360   34.5580   56.4400 C.2    95  GLY95       0.2638
     68  O         17.1510   35.7680   56.6080 O.2    95  GLY95      -0.2714
     69  N         16.3480   33.6660   56.4510 N.am   96  TYR96      -0.1973
     70  CA        14.9660   34.0540   56.6920 C.3    96  TYR96       0.1639
     71  C         14.2020   32.8440   57.2060 C.2    96  TYR96       0.2290
     72  O         14.6350   31.6990   57.0470 O.2    96  TYR96      -0.2864
     73  CB        14.3070   34.6030   55.4210 C.3    96  TYR96       0.0560
     74  CG        14.2460   33.6040   54.2850 C.ar   96  TYR96      -0.0198
     75  CD1       13.1990   32.6990   54.1850 C.ar   96  TYR96      -0.0009
     76  CD2       15.2350   33.5670   53.3150 C.ar   96  TYR96      -0.0009
     77  CE1       13.1400   31.7850   53.1510 C.ar   96  TYR96       0.0417
     78  CE2       15.1850   32.6580   52.2770 C.ar   96  TYR96       0.0417
     79  CZ        14.1370   31.7710   52.1990 C.ar   96  TYR96       0.1957
     80  OH        14.0850   30.8650   51.1660 O.3    96  TYR96      -0.2866
     81  N         19.8580   43.7060   53.6260 N.3   127  LEU127     -0.1245
     82  CA        19.1750   42.8550   52.6590 C.3   127  LEU127      0.1561
     83  C         17.7090   42.7180   53.0430 C.2   127  LEU127      0.2260
     84  O         17.3920   42.3920   54.1930 O.2   127  LEU127     -0.2867
     85  CB        19.8280   41.4730   52.5860 C.3   127  LEU127      0.0270
     86  CG        19.0180   40.3650   51.9000 C.3   127  LEU127      0.0019
     87  CD1       18.6920   40.7260   50.4610 C.3   127  LEU127      0.0001
     88  CD2       19.7670   39.0440   51.9580 C.3   127  LEU127      0.0001
     89  N         14.0770   40.8610   51.6580 N.3   129  TYR129     -0.1241
     90  CA        13.2710   40.0360   50.7670 C.3   129  TYR129      0.1605
     91  C         11.9170   40.7070   50.5680 C.2   129  TYR129      0.2264
     92  O         11.2520   41.0670   51.5460 O.2   129  TYR129     -0.2867
     93  CB        13.0850   38.6300   51.3400 C.3   129  TYR129      0.0534
     94  CG        14.3400   37.7860   51.3450 C.ar  129  TYR129     -0.0201
     95  CD1       14.7390   37.0920   50.2100 C.ar  129  TYR129     -0.0009
     96  CD2       15.1210   37.6750   52.4870 C.ar  129  TYR129     -0.0009
     97  CE1       15.8840   36.3160   50.2100 C.ar  129  TYR129      0.0417
     98  CE2       16.2690   36.9000   52.4970 C.ar  129  TYR129      0.0417
     99  CZ        16.6440   36.2240   51.3560 C.ar  129  TYR129      0.1957
    100  OH        17.7840   35.4520   51.3600 O.3   129  TYR129     -0.2866
@<TRIPOS>BOND
     1    17    15   am
     2    15    16    2
     3    15    14    1
     4    97    95   ar
     5    97    99   ar
     6    95    94   ar
     7    87    86    1
     8    91    90    1
     9    91    92    2
    10    90    93    1
    11    90    89    1
    12    14    13    1
    13    80    79    1
    14    93    94    1
    15    94    96   ar
    16    99   100    1
    17    99    98   ar
    18    37    34    1
    19    48    46    1
    20     7     6   ar
    21    86    88    1
    22    86    85    1
    23    13    10    1
    24    36    35    2
    25    79    78   ar
    26    79    77   ar
    27    78    76   ar
    28    96    98   ar
    29    85    82    1
    30     1     2    1
    31    82    83    1
    32    82    81    1
    33    41    40    2
    34    35    34    1
    35    45    46    2
    36    45    44    1
    37    34    33    1
    38    46    47    1
    39     6     8   ar
    40     6     5    1
    41    40    39    1
    42    83    84    2
    43    77    75   ar
    44     9    10    1
    45     9     3   am
    46    76    74   ar
    47    10    11    1
    48    42    39    1
    49    42    43    1
    50     2     5    1
    51     2     3    1
    52    44    43    1
    53    39    38    1
    54     3     4    2
    55    33    31   am
    56    75    74   ar
    57    74    73    1
    58    11    12    2
    59    11    18   am
    60    57    55   ar
    61    32    31    2
    62    31    30    1
    63    18    19    1
    64    73    70    1
    65    55    56   ar
    66    55    54    1
    67    66    67    1
    68    66    65    1
    69    54    53    1
    70    21    20    2
    71    67    69   am
    72    67    68    2
    73    69    70    1
    74    65    60   am
    75    30    29    1
    76    20    19    1
    77    20    29   am
    78    19    22    1
    79    70    71    1
    80    63    62    1
    81    72    71    2
    82    28    26    1
    83    53    50    1
    84    22    23    1
    85    60    59    1
    86    60    61    2
    87    25    26    2
    88    25    24    1
    89    59    62    1
    90    59    58    1
    91    26    27    1
    92    23    24    1
    93    62    64    1
    94    49    50    1
    95    50    51    1
    96    52    51    2
