@<TRIPOS>MOLECULE
tmp/5ff9D00.pdb
 96 92 0 0 0
SMALL
GASTEIGER

@<TRIPOS>ATOM
      1  N          8.9520  -26.9260  -16.0670 N.3    98  TYR98      -0.1241
      2  CA         8.1390  -25.7750  -15.6650 C.3    98  TYR98       0.1605
      3  C          7.3880  -26.0480  -14.3700 C.2    98  TYR98       0.2264
      4  O          6.6880  -27.0590  -14.2450 O.2    98  TYR98      -0.2867
      5  CB         7.1600  -25.4070  -16.7810 C.3    98  TYR98       0.0534
      6  CG         6.1720  -24.3100  -16.4390 C.ar   98  TYR98      -0.0201
      7  CD1        6.6010  -23.0020  -16.2500 C.ar   98  TYR98      -0.0009
      8  CD2        4.8180  -24.5700  -16.3700 C.ar   98  TYR98      -0.0009
      9  CE1        5.6860  -21.9870  -15.9730 C.ar   98  TYR98       0.0417
     10  CE2        3.9000  -23.5650  -16.1010 C.ar   98  TYR98       0.0417
     11  CZ         4.3560  -22.2690  -15.9040 C.ar   98  TYR98       0.1957
     12  OH         3.4410  -21.2620  -15.6390 O.3    98  TYR98      -0.2866
     13  N         12.6990  -18.4600  -23.1340 N.3   146  SER146     -0.1202
     14  CA        11.2820  -18.1200  -23.0370 C.3   146  SER146      0.2020
     15  C         11.1930  -16.6020  -22.9500 C.2   146  SER146      0.2619
     16  O         12.0660  -15.9620  -22.3540 O.2   146  SER146     -0.2717
     17  CB        10.6070  -18.7790  -21.8050 C.3   146  SER146      0.2103
     18  OG         9.3390  -18.1980  -21.4950 O.3   146  SER146     -0.2182
     19  N         10.1620  -16.0280  -23.5780 N.am  147  CYS147     -0.1955
     20  CA        10.0210  -14.5780  -23.5780 C.3   147  CYS147      0.1843
     21  C          9.7220  -14.0230  -22.1810 C.2   147  CYS147      0.2625
     22  O          9.9100  -12.8230  -21.9510 O.2   147  CYS147     -0.2714
     23  CB         8.9410  -14.1670  -24.5840 C.3   147  CYS147      0.0997
     24  SG         7.2380  -14.2520  -23.9770 S.3   147  CYS147     -0.0797
     25  N          9.3120  -14.8660  -21.2400 N.am  148  CYS148     -0.1968
     26  CA         9.0770  -14.4100  -19.8710 C.3   148  CYS148      0.1712
     27  C         10.3720  -14.0340  -19.1320 C.2   148  CYS148      0.2296
     28  O         10.2870  -13.5600  -17.9890 O.2   148  CYS148     -0.2864
     29  CB         8.3080  -15.4780  -19.0810 C.3   148  CYS148      0.0983
     30  SG         9.2270  -17.0130  -18.8650 S.3   148  CYS148     -0.0798
     31  N          5.6690  -12.4850  -15.1910 N.3   153  ILE153     -0.1245
     32  CA         4.3850  -13.1760  -15.2810 C.3   153  ILE153      0.1561
     33  C          4.1410  -13.8610  -13.9430 C.2   153  ILE153      0.2260
     34  O          5.0660  -14.4830  -13.4080 O.2   153  ILE153     -0.2867
     35  CB         4.3720  -14.1960  -16.4400 C.3   153  ILE153      0.0252
     36  CG1        4.7500  -13.4980  -17.7570 C.3   153  ILE153      0.0019
     37  CG2        2.9890  -14.8530  -16.5670 C.3   153  ILE153      0.0019
     38  CD1        4.7260  -14.4210  -18.9820 C.3   153  ILE153      0.0001
     39  N          5.9970  -17.1990  -12.3150 N.3   156  HIS156     -0.1241
     40  CA         7.1150  -17.5710  -13.1800 C.3   156  HIS156      0.1621
     41  C          8.4970  -17.2530  -12.6010 C.2   156  HIS156      0.2264
     42  O          9.4770  -17.3590  -13.3230 O.2   156  HIS156     -0.2867
     43  CB         6.9950  -16.8480  -14.5350 C.3   156  HIS156      0.0745
     44  CG         6.0100  -17.4500  -15.4810 C.ar  156  HIS156      0.0817
     45  ND1        4.6600  -17.5230  -15.2080 N.ar  156  HIS156     -0.2268
     46  CD2        6.1670  -17.9230  -16.7450 C.ar  156  HIS156      0.1154
     47  CE1        4.0350  -18.0520  -16.2480 C.ar  156  HIS156      0.1986
     48  NE2        4.9250  -18.3010  -17.1890 N.ar  156  HIS156     -0.2212
     49  N         11.3430  -20.1080  -12.8340 N.3   159  TYR159     -0.1241
     50  CA        11.3880  -20.5180  -14.2360 C.3   159  TYR159      0.1605
     51  C         12.0000  -19.4210  -15.1060 C.2   159  TYR159      0.2264
     52  O         12.9750  -19.6660  -15.8170 O.2   159  TYR159     -0.2867
     53  CB         9.9820  -20.8600  -14.7270 C.3   159  TYR159      0.0534
     54  CG         9.8980  -21.2700  -16.2110 C.ar  159  TYR159     -0.0201
     55  CD1       10.2860  -22.5450  -16.6180 C.ar  159  TYR159     -0.0009
     56  CD2        9.3800  -20.4060  -17.1610 C.ar  159  TYR159     -0.0009
     57  CE1       10.1740  -22.9470  -17.9720 C.ar  159  TYR159      0.0417
     58  CE2        9.2870  -20.7830  -18.4960 C.ar  159  TYR159      0.0417
     59  CZ         9.6810  -22.0460  -18.8940 C.ar  159  TYR159      0.1957
     60  OH         9.5740  -22.4040  -20.2320 O.3   159  TYR159     -0.2866
     61  N         10.2420  -18.2710  -26.9390 N.3   189  PRO189     -0.2102
     62  CA         8.8420  -18.3200  -27.3580 C.3   189  PRO189      0.1504
     63  C          7.9280  -17.7070  -26.3140 C.2   189  PRO189      0.2576
     64  O          8.2350  -17.6750  -25.1190 O.2   189  PRO189     -0.2718
     65  CB         8.5670  -19.8220  -27.5150 C.3   189  PRO189      0.0282
     66  CG         9.9330  -20.4380  -27.6520 C.3   189  PRO189      0.0208
     67  CD        10.7500  -19.6270  -26.6960 C.3   189  PRO189      0.0893
     68  N          6.7930  -17.2080  -26.7950 N.am  190  GLY190     -0.1943
     69  CA         5.7160  -16.7700  -25.9340 C.3   190  GLY190      0.2014
     70  C          4.7770  -17.9170  -25.6630 C.2   190  GLY190      0.2638
     71  O          5.2300  -19.0170  -25.3420 O.2   190  GLY190     -0.2714
     72  N          3.4750  -17.6690  -25.7930 N.am  191  ALA191     -0.1977
     73  CA         2.4530  -18.6820  -25.5490 C.3   191  ALA191      0.1597
     74  C          2.3360  -19.5630  -26.7850 C.2   191  ALA191      0.2287
     75  O          1.9300  -19.0950  -27.8540 O.2   191  ALA191     -0.2864
     76  CB         1.1150  -18.0250  -25.2150 C.3   191  ALA191      0.0319
     77  N         -2.9060  -15.4340  -21.0520 N.3   210  GLU210     -0.1245
     78  CA        -1.7150  -15.0880  -21.8240 C.3   210  GLU210      0.1567
     79  C         -2.0800  -14.7180  -23.2580 C.2   210  GLU210      0.2260
     80  O         -1.5090  -13.7790  -23.8300 O.2   210  GLU210     -0.2867
     81  CB        -0.7010  -16.2360  -21.7930 C.3   210  GLU210      0.0388
     82  CG        -0.2090  -16.6040  -20.3920 C.3   210  GLU210      0.1160
     83  CD         0.3900  -15.4160  -19.6380 C.2   210  GLU210      0.3649
     84  OE1        1.2320  -14.6920  -20.2090 O.co2 210  GLU210     -0.2457
     85  OE2       -0.0030  -15.2010  -18.4710 O.co2 210  GLU210     -0.2457
     86  N          3.8390  -10.2650  -27.6660 N.3   251  ARG251     -0.1245
     87  CA         3.4090  -10.3560  -26.2760 C.3   251  ARG251      0.1563
     88  C          4.2320   -9.4400  -25.3600 C.2   251  ARG251      0.2260
     89  O          3.6630   -8.6680  -24.5820 O.2   251  ARG251     -0.2867
     90  CB         3.4750  -11.8310  -25.8320 C.3   251  ARG251      0.0307
     91  CG         3.6570  -12.0710  -24.3550 C.3   251  ARG251      0.0489
     92  CD         2.5060  -11.4790  -23.6140 C.3   251  ARG251      0.2205
     93  NE         2.2180  -12.1810  -22.3710 N.pl3 251  ARG251     -0.0865
     94  CZ         2.2490  -11.5610  -21.2060 C.cat 251  ARG251      0.5346
     95  NH1        2.5930  -10.2830  -21.1900 N.pl3 251  ARG251      0.1354
     96  NH2        1.9730  -12.2030  -20.0900 N.pl3 251  ARG251      0.1354
@<TRIPOS>BOND
     1    75    74    2
     2    86    87    1
     3    66    65    1
     4    66    67    1
     5    65    62    1
     6    62    61    1
     7    62    63    1
     8    61    67    1
     9    68    63   am
    10    68    69    1
    11    74    73    1
    12    63    64    2
    13    87    90    1
    14    87    88    1
    15    69    70    1
    16    90    91    1
    17    72    70   am
    18    72    73    1
    19    70    71    2
    20    73    76    1
    21    88    89    2
    22    23    24    1
    23    23    20    1
    24    91    92    1
    25    80    79    2
    26    92    93    1
    27    20    19    1
    28    20    21    1
    29    19    15   am
    30    79    78    1
    31    13    14    1
    32    14    15    1
    33    14    17    1
    34    15    16    2
    35    93    94    2
    36    21    22    2
    37    21    25   am
    38    78    81    1
    39    78    77    1
    40    17    18    1
    41    81    82    1
    42    25    26    1
    43    94    95    1
    44    94    96    1
    45    82    83    1
    46    60    59    1
    47    84    83   ar
    48    26    27    1
    49    26    29    1
    50    83    85   ar
    51    27    28    2
    52    29    30    1
    53    38    36    1
    54    59    58   ar
    55    59    57   ar
    56    58    56   ar
    57    57    55   ar
    58    36    35    1
    59    48    46   ar
    60    48    47   ar
    61    56    54   ar
    62     5     6    1
    63     5     2    1
    64    46    44   ar
    65    55    54   ar
    66    37    35    1
    67    35    32    1
    68     6     8   ar
    69     6     7   ar
    70     8    10   ar
    71     7     9   ar
    72    47    45   ar
    73    54    53    1
    74    10    11   ar
    75     1     2    1
    76     9    11   ar
    77    11    12    1
    78    52    51    2
    79     2     3    1
    80    44    45   ar
    81    44    43    1
    82    32    31    1
    83    32    33    1
    84    51    50    1
    85    53    50    1
    86    43    40    1
    87     3     4    2
    88    50    49    1
    89    33    34    2
    90    42    41    2
    91    40    41    1
    92    40    39    1
