@<TRIPOS>MOLECULE
tmp/5fffA01.pdb
 107 103 0 0 0
SMALL
GASTEIGER

@<TRIPOS>ATOM
      1  N         21.1390   64.2180   31.7380 N.3   100  TYR100     -0.1241
      2  CA        20.8690   65.0550   32.9010 C.3   100  TYR100      0.1605
      3  C         21.3350   64.3580   34.1700 C.2   100  TYR100      0.2264
      4  O         21.0800   63.1640   34.3570 O.2   100  TYR100     -0.2867
      5  CB        19.3720   65.3680   32.9820 C.3   100  TYR100      0.0534
      6  CG        18.9140   66.1780   34.1820 C.ar  100  TYR100     -0.0201
      7  CD1       18.9490   67.5720   34.1720 C.ar  100  TYR100     -0.0009
      8  CD2       18.3850   65.5440   35.2980 C.ar  100  TYR100     -0.0009
      9  CE1       18.4980   68.3070   35.2610 C.ar  100  TYR100      0.0417
     10  CE2       17.9360   66.2630   36.3870 C.ar  100  TYR100      0.0417
     11  CZ        17.9890   67.6450   36.3660 C.ar  100  TYR100      0.1957
     12  OH        17.5210   68.3560   37.4510 O.3   100  TYR100     -0.2866
     13  N         18.6550   74.4940   27.2990 N.3   148  SER148     -0.1202
     14  CA        17.8290   74.5400   28.5010 C.3   148  SER148      0.2020
     15  C         17.7800   75.9780   28.9870 C.2   148  SER148      0.2619
     16  O         18.7800   76.6910   28.8940 O.2   148  SER148     -0.2717
     17  CB        18.3830   73.6450   29.6130 C.3   148  SER148      0.2103
     18  OG        17.5520   73.7180   30.7640 O.3   148  SER148     -0.2182
     19  N         16.6250   76.3990   29.5090 N.am  149  CYS149     -0.1955
     20  CA        16.5440   77.7610   30.0180 C.3   149  CYS149      0.1843
     21  C         17.4340   77.9520   31.2370 C.2   149  CYS149      0.2625
     22  O         17.7920   79.0910   31.5580 O.2   149  CYS149     -0.2714
     23  CB        15.0910   78.1310   30.3390 C.3   149  CYS149      0.0997
     24  SG        14.4720   77.5190   31.9380 S.3   149  CYS149     -0.0797
     25  N         17.8290   76.8640   31.9000 N.am  150  CYS150     -0.1968
     26  CA        18.6750   76.9890   33.0790 C.3   150  CYS150      0.1712
     27  C         20.1310   77.2830   32.7350 C.2   150  CYS150      0.2296
     28  O         20.9590   77.3930   33.6500 O.2   150  CYS150     -0.2864
     29  CB        18.5700   75.7230   33.9430 C.3   150  CYS150      0.0983
     30  SG        19.1970   74.1980   33.2170 S.3   150  CYS150     -0.0798
     31  N         19.9330   76.9310   38.9030 N.3   155  ILE155     -0.1245
     32  CA        18.9870   76.0340   39.5540 C.3   155  ILE155      0.1561
     33  C         19.7860   75.0460   40.3970 C.2   155  ILE155      0.2260
     34  O         20.7500   74.4550   39.8880 O.2   155  ILE155     -0.2867
     35  CB        18.1010   75.3040   38.5330 C.3   155  ILE155      0.0252
     36  CG1       17.2800   76.3230   37.7450 C.3   155  ILE155      0.0019
     37  CG2       17.1830   74.3140   39.2460 C.3   155  ILE155      0.0019
     38  CD1       16.2450   75.6970   36.8180 C.3   155  ILE155      0.0001
     39  N         21.9780   71.8160   39.1030 N.3   158  HIS158     -0.1241
     40  CA        22.0920   71.8190   37.6470 C.3   158  HIS158      0.1621
     41  C         23.4650   72.2500   37.1280 C.2   158  HIS158      0.2264
     42  O         23.5900   72.4890   35.9230 O.2   158  HIS158     -0.2867
     43  CB        21.0470   72.7560   37.0230 C.3   158  HIS158      0.0745
     44  CG        19.6580   72.2070   36.9790 C.ar  158  HIS158      0.0817
     45  ND1       18.8090   72.4510   35.9220 N.ar  158  HIS158     -0.2268
     46  CD2       18.9490   71.4760   37.8730 C.ar  158  HIS158      0.1154
     47  CE1       17.6420   71.8720   36.1540 C.ar  158  HIS158      0.1986
     48  NE2       17.7010   71.2760   37.3320 N.ar  158  HIS158     -0.2212
     49  N         25.0730   70.2040   34.1380 N.3   161  TYR161     -0.1241
     50  CA        24.0480   70.1740   33.1010 C.3   161  TYR161      0.1605
     51  C         23.9150   71.5390   32.4320 C.2   161  TYR161      0.2264
     52  O         24.0320   71.6670   31.2030 O.2   161  TYR161     -0.2867
     53  CB        22.7100   69.7420   33.7030 C.3   161  TYR161      0.0534
     54  CG        21.5770   69.7830   32.7060 C.ar  161  TYR161     -0.0201
     55  CD1       21.4620   68.8140   31.7120 C.ar  161  TYR161     -0.0009
     56  CD2       20.6090   70.7830   32.7690 C.ar  161  TYR161     -0.0009
     57  CE1       20.4020   68.8450   30.7970 C.ar  161  TYR161      0.0417
     58  CE2       19.5570   70.8290   31.8610 C.ar  161  TYR161      0.0417
     59  CZ        19.4660   69.8590   30.8800 C.ar  161  TYR161      0.1957
     60  OH        18.4250   69.9030   29.9780 O.3   161  TYR161     -0.2866
     61  N         14.2310   75.0680   26.6590 N.3   191  PRO191     -0.2102
     62  CA        12.9920   74.8320   27.4100 C.3   191  PRO191      0.1504
     63  C         13.1800   75.0180   28.9040 C.2   191  PRO191      0.2576
     64  O         14.2580   74.7830   29.4560 O.2   191  PRO191     -0.2718
     65  CB        12.6500   73.3670   27.0930 C.3   191  PRO191      0.0282
     66  CG        13.4780   73.0140   25.8720 C.3   191  PRO191      0.0208
     67  CD        14.7410   73.8190   26.0600 C.3   191  PRO191      0.0893
     68  N         12.0970   75.4210   29.5630 N.am  192  GLY192     -0.1943
     69  CA        11.9450   75.1790   30.9820 C.3   192  GLY192      0.2014
     70  C         11.5860   73.7190   31.2050 C.2   192  GLY192      0.2638
     71  O         11.6890   72.8820   30.3070 O.2   192  GLY192     -0.2714
     72  N         11.1280   73.4160   32.4180 N.am  193  ALA193     -0.1977
     73  CA        10.6560   72.0600   32.6930 C.3   193  ALA193      0.1597
     74  C          9.5000   71.6940   31.7650 C.2   193  ALA193      0.2287
     75  O          8.5270   72.4440   31.6420 O.2   193  ALA193     -0.2864
     76  CB        10.2200   71.9370   34.1540 C.3   193  ALA193      0.0319
     77  N         11.6840   61.7970   30.6790 N.3   198  GLY198     -0.1210
     78  CA        12.8360   62.2840   31.4130 C.3   198  GLY198      0.1956
     79  C         12.4980   63.0530   32.6810 C.2   198  GLY198      0.2612
     80  O         13.3190   63.0940   33.6000 O.2   198  GLY198     -0.2717
     81  N         11.3100   63.6580   32.7710 N.am  199  THR199     -0.1952
     82  CA        10.9660   64.3720   33.9960 C.3   199  THR199      0.1897
     83  C          9.9170   63.6470   34.8360 C.2   199  THR199      0.2313
     84  O          9.3720   64.2460   35.7700 O.2   199  THR199     -0.2863
     85  CB        10.4700   65.7960   33.7170 C.3   199  THR199      0.1794
     86  OG1        9.3010   65.7790   32.8700 O.3   199  THR199     -0.2208
     87  CG2       11.5580   66.6260   33.0230 C.3   199  THR199      0.0378
     88  N         10.7800   63.6250   38.4870 N.3   202  PHE202     -0.1241
     89  CA        10.6260   64.9860   38.9850 C.3   202  PHE202      0.1605
     90  C          9.1620   65.2980   39.2900 C.2   202  PHE202      0.2264
     91  O          8.8420   65.8700   40.3390 O.2   202  PHE202     -0.2867
     92  CB        11.2200   65.9440   37.9470 C.3   202  PHE202      0.0534
     93  CG        10.9150   67.3880   38.1730 C.ar  202  PHE202     -0.0203
     94  CD1       11.5780   68.1070   39.1480 C.ar  202  PHE202     -0.0042
     95  CD2       10.0050   68.0450   37.3610 C.ar  202  PHE202     -0.0042
     96  CE1       11.3150   69.4530   39.3360 C.ar  202  PHE202     -0.0003
     97  CE2        9.7350   69.3960   37.5500 C.ar  202  PHE202     -0.0003
     98  CZ        10.3930   70.0920   38.5370 C.ar  202  PHE202     -0.0000
     99  N          9.5490   74.3170   41.6620 N.3   212  GLU212     -0.1245
    100  CA         9.8450   74.8140   40.3260 C.3   212  GLU212      0.1567
    101  C          8.6480   75.5530   39.7460 C.2   212  GLU212      0.2260
    102  O          8.7960   76.6420   39.1800 O.2   212  GLU212     -0.2867
    103  CB        10.2730   73.6640   39.4110 C.3   212  GLU212      0.0388
    104  CG        10.5510   74.0870   37.9720 C.3   212  GLU212      0.1160
    105  CD        11.7330   75.0240   37.8430 C.2   212  GLU212      0.3649
    106  OE1       12.6160   75.0230   38.7280 O.co2 212  GLU212     -0.2457
    107  OE2       11.7830   75.7640   36.8380 O.co2 212  GLU212     -0.2457
@<TRIPOS>BOND
     1    66    67    1
     2    66    65    1
     3    67    61    1
     4    61    62    1
     5    65    62    1
     6    13    14    1
     7    62    63    1
     8    14    15    1
     9    14    17    1
    10    16    15    2
    11    63    64    2
    12    63    68   am
    13    15    19   am
    14    19    20    1
    15    68    69    1
    16    17    18    1
    17    60    59    1
    18    20    23    1
    19    20    21    1
    20    71    70    2
    21    23    24    1
    22    77    78    1
    23    57    59   ar
    24    57    55   ar
    25    59    58   ar
    26    69    70    1
    27    52    51    2
    28    70    72   am
    29    21    22    2
    30    21    25   am
    31    78    79    1
    32    75    74    2
    33    55    54   ar
    34     1     2    1
    35    74    73    1
    36    58    56   ar
    37    25    26    1
    38    72    73    1
    39    51    50    1
    40    79    81   am
    41    79    80    2
    42    73    76    1
    43    54    56   ar
    44    54    53    1
    45    27    26    1
    46    27    28    2
    47    81    82    1
    48    86    85    1
    49     2     5    1
    50     2     3    1
    51     5     6    1
    52    87    85    1
    53    26    29    1
    54    50    53    1
    55    50    49    1
    56    30    29    1
    57    85    82    1
    58    82    83    1
    59     3     4    2
    60     7     6   ar
    61     7     9   ar
    62     6     8   ar
    63    83    84    2
    64     9    11   ar
    65     8    10   ar
    66    45    47   ar
    67    45    44   ar
    68    42    41    2
    69    47    48   ar
    70    11    10   ar
    71    11    12    1
    72    38    36    1
    73   107   105   ar
    74    44    43    1
    75    44    46   ar
    76    43    40    1
    77    41    40    1
    78    48    46   ar
    79    95    97   ar
    80    95    93   ar
    81    97    98   ar
    82    40    39    1
    83    36    35    1
    84   105   104    1
    85   105   106   ar
    86    92    93    1
    87    92    89    1
    88   104   103    1
    89    93    94   ar
    90    88    89    1
    91    35    37    1
    92    35    32    1
    93    98    96   ar
    94    31    32    1
    95    89    90    1
    96    94    96   ar
    97   102   101    2
    98    90    91    2
    99   103   100    1
   100    32    33    1
   101   101   100    1
   102    34    33    2
   103   100    99    1
