@<TRIPOS>MOLECULE
tmp/5fflA00.pdb
 101 95 0 0 0
SMALL
GASTEIGER

@<TRIPOS>ATOM
      1  N          2.5450   21.0310   18.4670 N.3    35  TYR35      -0.1241
      2  CA         2.4030   20.5860   17.0860 C.3    35  TYR35       0.1605
      3  C          3.1870   21.4620   16.1120 C.2    35  TYR35       0.2264
      4  O          3.6140   22.5800   16.4140 O.2    35  TYR35      -0.2867
      5  CB         0.9190   20.5130   16.6660 C.3    35  TYR35       0.0534
      6  CG         0.1690   21.8460   16.6950 C.ar   35  TYR35      -0.0201
      7  CD1        0.1750   22.7070   15.5870 C.ar   35  TYR35      -0.0009
      8  CD2       -0.5750   22.2200   17.8080 C.ar   35  TYR35      -0.0009
      9  CE1       -0.5000   23.9050   15.6110 C.ar   35  TYR35       0.0417
     10  CE2       -1.2530   23.4200   17.8390 C.ar   35  TYR35       0.0417
     11  CZ        -1.2190   24.2550   16.7480 C.ar   35  TYR35       0.1957
     12  OH        -1.8910   25.4510   16.7640 O.3    35  TYR35      -0.2866
     13  N          2.4060   22.8010   12.2260 N.3    37  CYS37      -0.1235
     14  CA         1.2950   23.0590   11.3160 C.3    37  CYS37       0.1677
     15  C          1.8040   23.6880   10.0210 C.2    37  CYS37       0.2270
     16  O          2.8480   24.3500   10.0020 O.2    37  CYS37      -0.2867
     17  CB         0.2830   24.0070   11.9840 C.3    37  CYS37       0.0956
     18  SG        -1.4750   23.6180   11.6900 S.3    37  CYS37      -0.0801
     19  N         -5.3500   29.8430   11.1000 N.3    43  ARG43      -0.1231
     20  CA        -6.1370   28.9910   11.9910 C.3    43  ARG43       0.1694
     21  C         -6.8450   27.8370   11.2570 C.2    43  ARG43       0.2593
     22  O         -7.6410   27.1280   11.8790 O.2    43  ARG43      -0.2718
     23  CB        -7.1660   29.8370   12.7420 C.3    43  ARG43       0.0321
     24  CG        -6.5980   31.0570   13.4580 C.3    43  ARG43       0.0489
     25  CD        -6.0880   30.6620   14.7910 C.3    43  ARG43       0.2205
     26  NE        -5.4030   31.7500   15.4900 N.pl3  43  ARG43      -0.0865
     27  CZ        -4.7580   31.5800   16.6380 C.cat  43  ARG43       0.5346
     28  NH1       -4.7160   30.3760   17.1900 N.pl3  43  ARG43       0.1354
     29  NH2       -4.1320   32.5970   17.2080 N.pl3  43  ARG43       0.1354
     30  N         -6.6070   27.6680    9.9540 N.am   44  SER44      -0.1938
     31  CA        -7.0400   26.4940    9.2010 C.3    44  SER44       0.2055
     32  C         -5.8400   25.6540    8.7450 C.2    44  SER44       0.2643
     33  O         -5.9580   24.8470    7.8200 O.2    44  SER44      -0.2714
     34  CB        -7.8760   26.9180    7.9920 C.3    44  SER44       0.2130
     35  OG        -9.0320   27.6610    8.3780 O.3    44  SER44      -0.2179
     36  N         -4.6820   25.8490    9.3690 N.am   45  CYS45      -0.1967
     37  CA        -3.4600   25.2070    8.9120 C.3    45  CYS45       0.1712
     38  C         -3.5930   23.6920    9.0450 C.2    45  CYS45       0.2296
     39  O         -4.3780   23.1790    9.8430 O.2    45  CYS45      -0.2864
     40  CB        -2.2680   25.7350    9.7220 C.3    45  CYS45       0.0983
     41  SG        -2.3620   25.4490   11.5320 S.3    45  CYS45      -0.0798
     42  N         -2.2440   20.1980   10.2580 N.3    47  THR47      -0.1218
     43  CA        -1.3590   19.6430   11.2840 C.3    47  THR47       0.1862
     44  C         -0.5110   18.5300   10.6700 C.2    47  THR47       0.2287
     45  O         -1.0510   17.5640   10.1120 O.2    47  THR47      -0.2866
     46  CB        -2.1590   19.1110   12.4680 C.3    47  THR47       0.1770
     47  OG1       -3.0230   20.1390   12.9690 O.3    47  THR47      -0.2211
     48  CG2       -1.2370   18.6730   13.5850 C.3    47  THR47       0.0375
     49  N          1.7640   16.0330   15.9280 N.3    50  GLU50      -0.1245
     50  CA         1.3650   16.5830   17.2200 C.3    50  GLU50       0.1567
     51  C          1.7630   15.6090   18.3280 C.2    50  GLU50       0.2260
     52  O          1.6050   14.3920   18.1800 O.2    50  GLU50      -0.2867
     53  CB        -0.1550   16.8500   17.2520 C.3    50  GLU50       0.0388
     54  CG        -0.6730   17.4900   18.5520 C.3    50  GLU50       0.1160
     55  CD        -2.1820   17.7150   18.5390 C.2    50  GLU50       0.3649
     56  OE1       -2.8940   16.8770   17.9590 O.co2  50  GLU50      -0.2457
     57  OE2       -2.6710   18.7130   19.1250 O.co2  50  GLU50      -0.2457
     58  N         -1.5430   23.1990   21.6300 N.3    94  THR94      -0.1203
     59  CA        -2.9790   22.9110   21.5680 C.3    94  THR94       0.1994
     60  C         -3.6830   23.2930   22.8680 C.2    94  THR94       0.2617
     61  O         -3.3050   22.8380   23.9540 O.2    94  THR94      -0.2717
     62  CB        -3.2250   21.4330   21.2790 C.3    94  THR94       0.1784
     63  OG1       -2.7740   21.1360   19.9610 O.3    94  THR94      -0.2211
     64  CG2       -4.7320   21.0720   21.4030 C.3    94  THR94       0.0376
     65  N         -4.7160   24.1150   22.7480 N.am   95  LYS95      -0.1979
     66  CA        -5.5870   24.3980   23.8780 C.3    95  LYS95       0.1596
     67  C         -6.9950   24.6370   23.3620 C.2    95  LYS95       0.2287
     68  O         -7.2070   24.9360   22.1880 O.2    95  LYS95      -0.2864
     69  CB        -5.1150   25.6050   24.6790 C.3    95  LYS95       0.0298
     70  CG        -5.1420   26.9060   23.9410 C.3    95  LYS95       0.0038
     71  CD        -4.9090   28.0900   24.8950 C.3    95  LYS95       0.0206
     72  CE        -6.2300   28.6550   25.4080 C.3    95  LYS95       0.1093
     73  NZ        -6.1120   30.0950   25.7900 N.3    95  LYS95      -0.1314
     74  N         -9.8830   26.7200   22.3500 N.3    97  GLY97      -0.1210
     75  CA        -9.8870   28.1150   21.9580 C.3    97  GLY97       0.1956
     76  C         -8.7030   28.4070   21.0680 C.2    97  GLY97       0.2612
     77  O         -8.2010   27.4950   20.4090 O.2    97  GLY97      -0.2717
     78  N         -8.2490   29.6520   21.0360 N.am   98  LEU98      -0.1965
     79  CA        -7.1570   30.0290   20.1460 C.3    98  LEU98       0.1728
     80  C         -5.8350   29.5420   20.7110 C.2    98  LEU98       0.2616
     81  O         -5.4600   29.9090   21.8330 O.2    98  LEU98      -0.2715
     82  CB        -7.1290   31.5380   19.9580 C.3    98  LEU98       0.0311
     83  CG        -8.3380   32.0970   19.2010 C.3    98  LEU98       0.0022
     84  CD1       -8.3940   33.6090   19.3800 C.3    98  LEU98       0.0001
     85  CD2       -8.2840   31.7450   17.7280 C.3    98  LEU98       0.0001
     86  N         -5.1480   28.7170   19.9220 N.am   99  ASP99      -0.1971
     87  CA        -3.8260   28.2150   20.2670 C.3    99  ASP99       0.1709
     88  C         -2.7990   29.3330   20.2340 C.2    99  ASP99       0.2293
     89  O         -2.8330   30.1990   19.3570 O.2    99  ASP99      -0.2864
     90  CB        -3.3650   27.1690   19.2580 C.3    99  ASP99       0.1436
     91  CG        -4.1140   25.8790   19.3310 C.2    99  ASP99       0.3671
     92  OD1       -4.9790   25.6920   20.2290 O.co2  99  ASP99      -0.2456
     93  OD2       -3.8460   25.0410   18.4400 O.co2  99  ASP99      -0.2456
     94  N          0.5240   30.3050   18.7090 N.3   101  MET101     -0.1245
     95  CA         1.1160   29.9210   17.4320 C.3   101  MET101      0.1570
     96  C          2.2080   30.9160   17.0770 C.2   101  MET101      0.2261
     97  O          2.1380   32.0930   17.4460 O.2   101  MET101     -0.2867
     98  CB         0.1030   29.8880   16.2940 C.3   101  MET101      0.0387
     99  CG        -1.0830   28.9600   16.5360 C.3   101  MET101      0.0595
    100  SD        -2.2780   28.9280   15.2040 S.3   101  MET101     -0.1393
    101  CE        -1.3560   28.0870   13.9120 C.3   101  MET101      0.0692
@<TRIPOS>BOND
     1    33    32    2
     2    34    35    1
     3    34    31    1
     4    32    31    1
     5    32    36   am
     6    37    38    1
     7    37    36    1
     8    37    40    1
     9    38    39    2
    10    31    30    1
    11    40    41    1
    12    30    21   am
    13    16    15    2
    14    15    14    1
    15    45    44    2
    16    42    43    1
    17    44    43    1
    18    19    20    1
    19    21    22    2
    20    21    20    1
    21    43    46    1
    22    14    17    1
    23    14    13    1
    24    41    18    1
    25    18    17    1
    26    20    23    1
    27    46    47    1
    28    46    48    1
    29    23    24    1
    30    24    25    1
    31   101   100    1
    32    25    26    1
    33   100    99    1
    34    26    27    2
    35     7     9   ar
    36     7     6   ar
    37     9    11   ar
    38    49    50    1
    39     3     4    2
    40     3     2    1
    41    98    99    1
    42    98    95    1
    43    27    28    1
    44    27    29    1
    45     5     6    1
    46     5     2    1
    47     6     8   ar
    48    11    12    1
    49    11    10   ar
    50    96    95    1
    51    96    97    2
    52     2     1    1
    53    50    53    1
    54    50    51    1
    55    53    54    1
    56    95    94    1
    57    85    83    1
    58     8    10   ar
    59    56    55   ar
    60    52    51    2
    61    93    91   ar
    62    55    54    1
    63    55    57   ar
    64    83    84    1
    65    83    82    1
    66    90    91    1
    67    90    87    1
    68    91    92   ar
    69    89    88    2
    70    86    87    1
    71    86    80   am
    72    82    79    1
    73    63    62    1
    74    79    80    1
    75    79    78    1
    76    88    87    1
    77    77    76    2
    78    80    81    2
    79    78    76   am
    80    76    75    1
    81    62    64    1
    82    62    59    1
    83    59    58    1
    84    59    60    1
    85    75    74    1
    86    68    67    2
    87    65    60   am
    88    65    66    1
    89    60    61    2
    90    67    66    1
    91    66    69    1
    92    70    69    1
    93    70    71    1
    94    71    72    1
    95    72    73    1
