@<TRIPOS>MOLECULE
tmp/5ffoE02.pdb
 90 89 0 0 0
SMALL
GASTEIGER

@<TRIPOS>ATOM
      1  N         -7.4230  -77.8300  -29.9890 N.3   231  PHE231     -0.1227
      2  CA        -6.2020  -78.3210  -30.6140 C.3   231  PHE231      0.1736
      3  C         -5.9330  -79.7840  -30.3040 C.2   231  PHE231      0.2595
      4  O         -5.3950  -80.5180  -31.1330 O.2   231  PHE231     -0.2718
      5  CB        -5.0120  -77.4790  -30.1710 C.3   231  PHE231      0.0547
      6  CG        -5.0200  -76.0900  -30.7270 C.ar  231  PHE231     -0.0202
      7  CD1       -4.5970  -75.8550  -32.0220 C.ar  231  PHE231     -0.0042
      8  CD2       -5.4660  -75.0200  -29.9680 C.ar  231  PHE231     -0.0042
      9  CE1       -4.6020  -74.5820  -32.5480 C.ar  231  PHE231     -0.0003
     10  CE2       -5.4770  -73.7350  -30.4940 C.ar  231  PHE231     -0.0003
     11  CZ        -5.0430  -73.5190  -31.7840 C.ar  231  PHE231     -0.0000
     12  N         -6.2990  -80.2140  -29.1040 N.am  232  ASN232     -0.1960
     13  CA        -6.1350  -81.6040  -28.7230 C.3   232  ASN232      0.1819
     14  C         -7.3190  -82.4730  -29.1350 C.2   232  ASN232      0.2621
     15  O         -7.4080  -83.6270  -28.7030 O.2   232  ASN232     -0.2715
     16  CB        -5.9080  -81.6940  -27.2180 C.3   232  ASN232      0.1195
     17  CG        -6.9600  -80.9540  -26.4210 C.2   232  ASN232      0.2630
     18  OD1       -7.6830  -80.1090  -26.9440 O.2   232  ASN232     -0.2716
     19  ND2       -7.0510  -81.2760  -25.1390 N.am  232  ASN232     -0.0877
     20  N         -8.2140  -81.9540  -29.9740 N.am  233  GLY233     -0.1954
     21  CA        -9.2970  -82.7410  -30.5310 C.3   233  GLY233      0.1869
     22  C        -10.2390  -83.3280  -29.5000 C.2   233  GLY233      0.2309
     23  O        -10.5430  -84.5250  -29.5450 O.2   233  GLY233     -0.2863
     24  N          0.5650  -78.1050  -23.8840 N.3   264  LEU264     -0.1231
     25  CA         0.2620  -78.9910  -25.0020 C.3   264  LEU264      0.1693
     26  C          1.2890  -78.8780  -26.1200 C.2   264  LEU264      0.2592
     27  O          1.8810  -79.8830  -26.5230 O.2   264  LEU264     -0.2718
     28  CB        -1.1410  -78.7010  -25.5500 C.3   264  LEU264      0.0284
     29  CG        -2.3430  -79.0170  -24.6600 C.3   264  LEU264      0.0019
     30  CD1       -3.6390  -78.7310  -25.4020 C.3   264  LEU264      0.0001
     31  CD2       -2.3060  -80.4630  -24.1880 C.3   264  LEU264      0.0001
     32  N          1.5160  -77.6740  -26.6340 N.am  265  TYR265     -0.1976
     33  CA         2.4040  -77.4780  -27.7670 C.3   265  TYR265      0.1639
     34  C          3.1870  -76.1890  -27.5620 C.2   265  TYR265      0.2290
     35  O          2.7810  -75.3020  -26.8060 O.2   265  TYR265     -0.2864
     36  CB         1.6330  -77.4400  -29.0960 C.3   265  TYR265      0.0560
     37  CG         0.9350  -78.7390  -29.4650 C.ar  265  TYR265     -0.0198
     38  CD1        1.6230  -79.7740  -30.0930 C.ar  265  TYR265     -0.0009
     39  CD2       -0.4150  -78.9270  -29.1910 C.ar  265  TYR265     -0.0009
     40  CE1        0.9840  -80.9590  -30.4340 C.ar  265  TYR265      0.0417
     41  CE2       -1.0600  -80.1060  -29.5270 C.ar  265  TYR265      0.0417
     42  CZ        -0.3580  -81.1170  -30.1480 C.ar  265  TYR265      0.1957
     43  OH        -1.0030  -82.2860  -30.4820 O.3   265  TYR265     -0.2866
     44  N        -10.0710  -77.8000  -37.6400 N.3   290  TYR290     -0.1241
     45  CA        -8.9570  -77.6660  -36.7100 C.3   290  TYR290      0.1605
     46  C         -8.4990  -76.2110  -36.7080 C.2   290  TYR290      0.2264
     47  O         -8.0410  -75.6960  -37.7350 O.2   290  TYR290     -0.2867
     48  CB        -7.8170  -78.6060  -37.0900 C.3   290  TYR290      0.0534
     49  CG        -8.0880  -80.0580  -36.7670 C.ar  290  TYR290     -0.0201
     50  CD1       -8.7090  -80.4240  -35.5790 C.ar  290  TYR290     -0.0009
     51  CD2       -7.7180  -81.0620  -37.6480 C.ar  290  TYR290     -0.0009
     52  CE1       -8.9530  -81.7520  -35.2830 C.ar  290  TYR290      0.0417
     53  CE2       -7.9590  -82.3870  -37.3620 C.ar  290  TYR290      0.0417
     54  CZ        -8.5750  -82.7300  -36.1790 C.ar  290  TYR290      0.1957
     55  OH        -8.8160  -84.0530  -35.8890 O.3   290  TYR290     -0.2866
     56  N         -2.9420  -76.8030  -38.2020 N.3   320  GLN320     -0.1231
     57  CA        -3.1390  -77.9500  -37.3190 C.3   320  GLN320      0.1698
     58  C         -3.5680  -79.1930  -38.0960 C.2   320  GLN320      0.2592
     59  O         -4.3780  -79.1160  -39.0250 O.2   320  GLN320     -0.2718
     60  CB        -4.1940  -77.6210  -36.2640 C.3   320  GLN320      0.0381
     61  CG        -4.4620  -78.7390  -35.2620 C.3   320  GLN320      0.0905
     62  CD        -5.6370  -78.4390  -34.3480 C.2   320  GLN320      0.2608
     63  OE1       -6.0840  -79.2970  -33.5870 O.2   320  GLN320     -0.2717
     64  NE2       -6.1490  -77.2180  -34.4280 N.am  320  GLN320     -0.0878
     65  N         -3.0250  -80.3480  -37.7020 N.am  321  ARG321     -0.1966
     66  CA        -3.4040  -81.6420  -38.2580 C.3   321  ARG321      0.1729
     67  C         -3.8650  -82.5950  -37.1590 C.2   321  ARG321      0.2616
     68  O         -3.4960  -82.4510  -35.9890 O.2   321  ARG321     -0.2715
     69  CB        -2.2490  -82.2690  -39.0540 C.3   321  ARG321      0.0348
     70  CG        -1.6620  -81.3350  -40.0980 C.3   321  ARG321      0.0492
     71  CD        -2.6380  -81.1860  -41.2550 C.3   321  ARG321      0.2205
     72  NE        -2.1220  -80.3580  -42.3420 N.pl3 321  ARG321     -0.0865
     73  CZ        -2.7790  -80.1120  -43.4740 C.cat 321  ARG321      0.5346
     74  NH1       -3.9850  -80.6280  -43.6770 N.pl3 321  ARG321      0.1354
     75  NH2       -2.2330  -79.3430  -44.4050 N.pl3 321  ARG321      0.1354
     76  N         -4.7030  -83.5610  -37.5520 N.am  322  ALA322     -0.1963
     77  CA        -5.2210  -84.5420  -36.6030 C.3   322  ALA322      0.1728
     78  C         -4.1110  -85.4150  -36.0330 C.2   322  ALA322      0.2617
     79  O         -4.2480  -85.9420  -34.9240 O.2   322  ALA322     -0.2715
     80  CB        -6.2890  -85.4120  -37.2680 C.3   322  ALA322      0.0334
     81  N         -3.0130  -85.5910  -36.7750 N.am  323  SER323     -0.1936
     82  CA        -1.8970  -86.4040  -36.3040 C.3   323  SER323      0.2055
     83  C         -1.0780  -85.7120  -35.2250 C.2   323  SER323      0.2643
     84  O         -0.0920  -86.2930  -34.7570 O.2   323  SER323     -0.2714
     85  CB        -0.9860  -86.7930  -37.4720 C.3   323  SER323      0.2130
     86  OG        -1.6880  -87.5520  -38.4370 O.3   323  SER323     -0.2179
     87  N         -1.4490  -84.4920  -34.8340 N.am  324  GLY324     -0.1954
     88  CA        -0.7950  -83.7670  -33.7720 C.3   324  GLY324      0.1869
     89  C          0.2460  -82.7640  -34.2300 C.2   324  GLY324      0.2309
     90  O          0.5570  -81.8320  -33.4790 O.2   324  GLY324     -0.2863
@<TRIPOS>BOND
     1    75    73    1
     2    74    73    1
     3    73    72    2
     4    72    71    1
     5    71    70    1
     6    70    69    1
     7    69    66    1
     8    59    58    2
     9    86    85    1
    10    66    65    1
    11    66    67    1
    12    56    57    1
    13    58    65   am
    14    58    57    1
    15    47    46    2
    16    51    53   ar
    17    51    49   ar
    18    44    45    1
    19    76    67   am
    20    76    77    1
    21    85    82    1
    22    53    54   ar
    23    57    60    1
    24    80    77    1
    25    67    68    2
    26    48    49    1
    27    48    45    1
    28    81    82    1
    29    81    78   am
    30    49    50   ar
    31    45    46    1
    32    77    78    1
    33    82    83    1
    34    60    61    1
    35    54    55    1
    36    54    52   ar
    37    78    79    2
    38    50    52   ar
    39    61    62    1
    40    83    87   am
    41    83    84    2
    42    87    88    1
    43    64    62   am
    44    62    63    2
    45    89    88    1
    46    89    90    2
    47     9     7   ar
    48     9    11   ar
    49     7     6   ar
    50    11    10   ar
    51     4     3    2
    52     6     5    1
    53     6     8   ar
    54     2     3    1
    55     2     5    1
    56     2     1    1
    57    21    20    1
    58    21    22    1
    59    10     8   ar
    60    43    42    1
    61    40    42   ar
    62    40    38   ar
    63     3    12   am
    64    42    41   ar
    65    38    37   ar
    66    20    14   am
    67    23    22    2
    68    41    39   ar
    69    37    39   ar
    70    37    36    1
    71    14    13    1
    72    14    15    2
    73    12    13    1
    74    36    33    1
    75    13    16    1
    76    33    34    1
    77    33    32    1
    78    34    35    2
    79    16    17    1
    80    18    17    2
    81    32    26   am
    82    27    26    2
    83    17    19   am
    84    26    25    1
    85    28    25    1
    86    28    29    1
    87    30    29    1
    88    25    24    1
    89    29    31    1
