@<TRIPOS>MOLECULE
tmp/5ffvB00.pdb
 159 154 0 0 0
SMALL
GASTEIGER

@<TRIPOS>ATOM
      1  N         36.0650   25.5470   34.2880 N.3    21  GLY21      -0.1225
      2  CA        35.0320   24.6320   34.6810 C.3    21  GLY21       0.1811
      3  C         34.9450   24.5020   36.1760 C.2    21  GLY21       0.2280
      4  O         34.0750   23.7980   36.6660 O.2    21  GLY21      -0.2866
      5  N         36.5370   23.0930   38.6070 N.3    23  ILE23      -0.1231
      6  CA        36.6730   21.8110   39.2730 C.3    23  ILE23       0.1692
      7  C         37.5330   21.9160   40.5440 C.2    23  ILE23       0.2592
      8  O         37.2890   21.1710   41.4930 O.2    23  ILE23      -0.2718
      9  CB        37.1980   20.7600   38.2720 C.3    23  ILE23       0.0266
     10  CG1       36.0590   20.4600   37.2530 C.3    23  ILE23       0.0019
     11  CG2       37.6700   19.5080   38.9880 C.3    23  ILE23       0.0020
     12  CD1       36.5220   19.6910   36.0300 C.3    23  ILE23       0.0001
     13  N         38.4920   22.8330   40.5280 N.am   24  PHE24      -0.1976
     14  CA        39.5120   22.9130   41.5830 C.3    24  PHE24       0.1639
     15  C         39.4110   24.1860   42.4090 C.2    24  PHE24       0.2290
     16  O         40.3080   24.4630   43.1950 O.2    24  PHE24      -0.2864
     17  CB        40.8980   22.7770   40.9340 C.3    24  PHE24       0.0560
     18  CG        41.0540   21.5280   40.1100 C.ar   24  PHE24      -0.0200
     19  CD1       41.2390   20.3080   40.7200 C.ar   24  PHE24      -0.0042
     20  CD2       40.9660   21.5770   38.7250 C.ar   24  PHE24      -0.0042
     21  CE1       41.3680   19.1530   39.9490 C.ar   24  PHE24      -0.0003
     22  CE2       41.1040   20.4340   37.9500 C.ar   24  PHE24      -0.0003
     23  CZ        41.2890   19.2110   38.5710 C.ar   24  PHE24      -0.0000
     24  N         37.3400   25.2470   44.8250 N.3    26  GLU26      -0.1245
     25  CA        36.9370   25.2010   46.2390 C.3    26  GLU26       0.1567
     26  C         37.1910   23.8160   46.7820 C.2    26  GLU26       0.2260
     27  O         37.3290   22.8690   46.0020 O.2    26  GLU26      -0.2867
     28  CB        35.4510   25.5580   46.3860 C.3    26  GLU26       0.0388
     29  CG        35.1680   26.9910   45.9470 C.3    26  GLU26       0.1160
     30  CD        33.7160   27.4160   46.0230 C.2    26  GLU26       0.3649
     31  OE1       32.8360   26.5600   46.2440 O.co2  26  GLU26      -0.2457
     32  OE2       33.4800   28.6360   45.8440 O.co2  26  GLU26      -0.2457
     33  N         37.0070   20.0630   47.9190 N.3    28  VAL28      -0.1231
     34  CA        36.0950   18.9380   47.6970 C.3    28  VAL28       0.1678
     35  C         35.1560   18.9110   48.9300 C.2    28  VAL28       0.2434
     36  O         35.6200   18.9730   50.0690 O.2    28  VAL28      -0.2733
     37  CB        36.8670   17.6050   47.5440 C.3    28  VAL28       0.0265
     38  CG1       35.9470   16.3890   47.5920 C.3    28  VAL28       0.0020
     39  CG2       37.6610   17.6250   46.2370 C.3    28  VAL28       0.0020
     40  N         33.8420   18.8490   48.7010 N.am   29  PRO29      -0.2729
     41  CA        32.9000   18.9080   49.8460 C.3    29  PRO29       0.1401
     42  C         32.8950   17.5900   50.6390 C.2    29  PRO29       0.2269
     43  O         32.2610   16.6260   50.2420 O.2    29  PRO29      -0.2865
     44  CB        31.5760   19.1660   49.1580 C.3    29  PRO29       0.0296
     45  CG        31.7160   18.5170   47.8240 C.3    29  PRO29       0.0237
     46  CD        33.1400   18.7590   47.4140 C.3    29  PRO29       0.0939
     47  N         29.9140   15.3880   51.4570 N.3    32  GLU32      -0.1231
     48  CA        29.3660   14.6440   50.3120 C.3    32  GLU32       0.1699
     49  C         30.2100   13.4470   49.8760 C.2    32  GLU32       0.2592
     50  O         29.7430   12.6080   49.1080 O.2    32  GLU32      -0.2718
     51  CB        29.2850   15.5630   49.0890 C.3    32  GLU32       0.0402
     52  CG        28.3780   16.7640   49.2490 C.3    32  GLU32       0.1161
     53  CD        28.2890   17.6000   47.9820 C.2    32  GLU32       0.3649
     54  OE1       28.4760   17.0470   46.8580 O.co2  32  GLU32      -0.2457
     55  OE2       28.0540   18.8220   48.1130 O.co2  32  GLU32      -0.2457
     56  N         31.4530   13.3990   50.3340 N.am   33  VAL33      -0.1980
     57  CA        32.4340   12.4250   49.8630 C.3    33  VAL33       0.1595
     58  C         33.0720   11.8330   51.1130 C.2    33  VAL33       0.2287
     59  O         34.1980   12.1460   51.4610 O.2    33  VAL33      -0.2864
     60  CB        33.5130   13.0670   48.9420 C.3    33  VAL33       0.0276
     61  CG1       34.2510   11.9780   48.1780 C.3    33  VAL33       0.0022
     62  CG2       32.8840   14.0630   47.9790 C.3    33  VAL33       0.0022
     63  N         34.3770    9.0940   52.0670 N.3    35  ASP35      -0.1225
     64  CA        35.5880    8.2900   52.0170 C.3    35  ASP35       0.1805
     65  C         36.7830    9.1010   51.5130 C.2    35  ASP35       0.2597
     66  O         37.8610    8.5440   51.3260 O.2    35  ASP35      -0.2718
     67  CB        35.3760    7.0210   51.1720 C.3    35  ASP35       0.1424
     68  CG        35.2450    7.3010   49.6800 C.2    35  ASP35       0.3668
     69  OD1       34.9190    8.4360   49.2810 O.co2  35  ASP35      -0.2456
     70  OD2       35.4740    6.3690   48.8740 O.co2  35  ASP35      -0.2456
     71  N         36.6230   10.4130   51.3230 N.am   36  TYR36      -0.1976
     72  CA        37.7140   11.1960   50.6920 C.3    36  TYR36       0.1639
     73  C         38.9650   11.2060   51.5810 C.2    36  TYR36       0.2290
     74  O         40.0790   10.9250   51.1130 O.2    36  TYR36      -0.2864
     75  CB        37.2470   12.6330   50.3860 C.3    36  TYR36       0.0560
     76  CG        38.2310   13.4090   49.4950 C.ar   36  TYR36      -0.0198
     77  CD1       38.2750   13.2040   48.1060 C.ar   36  TYR36      -0.0009
     78  CD2       39.0840   14.3450   50.0230 C.ar   36  TYR36      -0.0009
     79  CE1       39.1530   13.9100   47.2820 C.ar   36  TYR36       0.0417
     80  CE2       39.9610   15.0560   49.2110 C.ar   36  TYR36       0.0417
     81  CZ        40.0050   14.8180   47.8500 C.ar   36  TYR36       0.1957
     82  OH        40.8970   15.5550   47.0910 O.3    36  TYR36      -0.2866
     83  N         41.4900    8.3070   51.7190 N.3    39  HIS39      -0.1241
     84  CA        42.4810    8.1930   50.6430 C.3    39  HIS39       0.1621
     85  C         43.4400    9.3630   50.5540 C.2    39  HIS39       0.2264
     86  O         44.5850    9.1870   50.1580 O.2    39  HIS39      -0.2867
     87  CB        41.7540    7.9910   49.3270 C.3    39  HIS39       0.0745
     88  CG        40.9020    6.7650   49.3270 C.ar   39  HIS39       0.0817
     89  ND1       41.4210    5.5010   49.1320 N.ar   39  HIS39      -0.2268
     90  CD2       39.5800    6.5980   49.5490 C.ar   39  HIS39       0.1154
     91  CE1       40.4450    4.6120   49.2070 C.ar   39  HIS39       0.1986
     92  NE2       39.3180    5.2510   49.4640 N.ar   39  HIS39      -0.2212
     93  N         46.7670   19.6910   44.5520 N.3    71  ILE71      -0.1245
     94  CA        45.4640   19.8230   43.8950 C.3    71  ILE71       0.1561
     95  C         45.3470   18.7550   42.8180 C.2    71  ILE71       0.2260
     96  O         44.3690   18.0130   42.7230 O.2    71  ILE71      -0.2867
     97  CB        45.3010   21.2100   43.2800 C.3    71  ILE71       0.0252
     98  CG1       45.2240   22.2670   44.3980 C.3    71  ILE71       0.0019
     99  CG2       44.0570   21.2640   42.3830 C.3    71  ILE71       0.0019
    100  CD1       45.0850   23.6730   43.8850 C.3    71  ILE71       0.0001
    101  N         43.5240   14.6910   43.0530 N.3    75  CYS75      -0.1235
    102  CA        42.4230   14.4360   42.1410 C.3    75  CYS75       0.1677
    103  C         42.6790   13.1720   41.3200 C.2    75  CYS75       0.2270
    104  O         41.7780   12.3580   41.1300 O.2    75  CYS75      -0.2867
    105  CB        42.2230   15.6620   41.2490 C.3    75  CYS75       0.0956
    106  SG        40.8080   15.5410   40.1440 S.3    75  CYS75      -0.0801
    107  N         44.5210   10.7330   42.3400 N.3    77  LYS77      -0.1231
    108  CA        44.4700    9.6160   43.2830 C.3    77  LYS77       0.1693
    109  C         43.0610    9.2330   43.6420 C.2    77  LYS77       0.2592
    110  O         42.7190    8.0450   43.6550 O.2    77  LYS77      -0.2718
    111  CB        45.2580    9.9420   44.5440 C.3    77  LYS77       0.0285
    112  CG        45.2210    8.8240   45.5950 C.3    77  LYS77       0.0035
    113  CD        46.2250    9.1240   46.6850 C.3    77  LYS77       0.0206
    114  CE        46.2300    8.0600   47.7720 C.3    77  LYS77       0.1093
    115  NZ        47.0770    8.5120   48.9080 N.3    77  LYS77      -0.1314
    116  N         42.1940   10.1990   43.8920 N.am   78  TYR78      -0.1962
    117  CA        40.8590    9.8810   44.3870 C.3    78  TYR78       0.1771
    118  C         39.9270    9.3920   43.2870 C.2    78  TYR78       0.2620
    119  O         39.1260    8.4690   43.5110 O.2    78  TYR78      -0.2715
    120  CB        40.2240   11.0900   45.1160 C.3    78  TYR78       0.0574
    121  CG        38.8620   10.7250   45.6440 C.ar   78  TYR78      -0.0198
    122  CD1       38.7330    9.8800   46.7450 C.ar   78  TYR78      -0.0009
    123  CD2       37.7090   11.0940   44.9710 C.ar   78  TYR78      -0.0009
    124  CE1       37.4760    9.4570   47.1810 C.ar   78  TYR78       0.0417
    125  CE2       36.4540   10.6650   45.3920 C.ar   78  TYR78       0.0417
    126  CZ        36.3730    9.8490   46.4980 C.ar   78  TYR78       0.1957
    127  OH        35.1240    9.4120   46.9080 O.3    78  TYR78      -0.2866
    128  N         39.9400   10.0490   42.1230 N.am   79  ASN79      -0.1958
    129  CA        38.9230    9.8260   41.0970 C.3    79  ASN79       0.1819
    130  C         39.3260    8.7380   40.1140 C.2    79  ASN79       0.2621
    131  O         40.5010    8.6120   39.7700 O.2    79  ASN79      -0.2715
    132  CB        38.6540   11.1230   40.3480 C.3    79  ASN79       0.1195
    133  CG        38.0920   12.1960   41.2420 C.2    79  ASN79       0.2630
    134  OD1       36.9060   12.1800   41.5660 O.2    79  ASN79      -0.2716
    135  ND2       38.9380   13.1010   41.7060 N.am   79  ASN79      -0.0877
    136  N         38.3490    7.9710   39.6500 N.am   80  ALA80      -0.1977
    137  CA        38.6070    6.9420   38.6550 C.3    80  ALA80       0.1597
    138  C         39.0780    7.5920   37.3600 C.2    80  ALA80       0.2287
    139  O         38.6820    8.7180   37.0220 O.2    80  ALA80      -0.2864
    140  CB        37.3590    6.1050   38.4010 C.3    80  ALA80       0.0319
    141  N         35.5630   12.8480   34.4640 N.3    84  ILE84      -0.1231
    142  CA        36.0030   14.1490   33.9810 C.3    84  ILE84       0.1692
    143  C         36.9800   14.7500   35.0020 C.2    84  ILE84       0.2592
    144  O         37.8560   15.5160   34.6210 O.2    84  ILE84      -0.2718
    145  CB        34.8210   15.1280   33.6850 C.3    84  ILE84       0.0266
    146  CG1       35.3060   16.3940   32.9920 C.3    84  ILE84       0.0019
    147  CG2       34.0130   15.4360   34.9300 C.3    84  ILE84       0.0020
    148  CD1       36.1640   16.1790   31.7890 C.3    84  ILE84       0.0001
    149  N         36.7980   14.4370   36.2810 N.am   85  PHE85      -0.1976
    150  CA        37.6930   14.9890   37.2960 C.3    85  PHE85       0.1639
    151  C         39.1440   14.5480   37.0660 C.2    85  PHE85       0.2290
    152  O         40.0410   15.3790   37.0450 O.2    85  PHE85      -0.2864
    153  CB        37.2110   14.5800   38.6690 C.3    85  PHE85       0.0560
    154  CG        35.7760   14.9640   38.9150 C.ar   85  PHE85      -0.0200
    155  CD1       35.4200   16.3050   38.9750 C.ar   85  PHE85      -0.0042
    156  CD2       34.7870   13.9960   39.0300 C.ar   85  PHE85      -0.0042
    157  CE1       34.0800   16.6690   39.1660 C.ar   85  PHE85      -0.0003
    158  CE2       33.4590   14.3560   39.2220 C.ar   85  PHE85      -0.0003
    159  CZ        33.1230   15.6980   39.3080 C.ar   85  PHE85      -0.0000
@<TRIPOS>BOND
     1   148   146    1
     2   146   145    1
     3   145   142    1
     4   145   147    1
     5   142   141    1
     6   142   143    1
     7     1     2    1
     8   144   143    2
     9     2     3    1
    10   143   149   am
    11    12    10    1
    12     3     4    2
    13   149   150    1
    14   139   138    2
    15   152   151    2
    16   151   150    1
    17    10     9    1
    18   150   153    1
    19   138   137    1
    20    22    23   ar
    21    22    20   ar
    22     9    11    1
    23     9     6    1
    24   140   137    1
    25    23    21   ar
    26     5     6    1
    27   137   136    1
    28   153   154    1
    29    20    18   ar
    30   154   155   ar
    31   154   156   ar
    32   155   157   ar
    33   156   158   ar
    34   157   159   ar
    35   158   159   ar
    36     6     7    1
    37   136   130   am
    38   131   130    2
    39    21    19   ar
    40    18    19   ar
    41    18    17    1
    42   130   129    1
    43   106   105    1
    44   132   129    1
    45   132   133    1
    46    13     7   am
    47    13    14    1
    48     7     8    2
    49    17    14    1
    50   129   128    1
    51   104   103    2
    52   133   134    2
    53   133   135   am
    54   105   102    1
    55   103   102    1
    56    14    15    1
    57   128   118   am
    58   102   101    1
    59   107   108    1
    60    99    97    1
    61    15    16    2
    62    96    95    2
    63    95    94    1
    64    97    94    1
    65    97    98    1
    66   108   109    1
    67   108   111    1
    68   118   119    2
    69   118   117    1
    70   109   110    2
    71   109   116   am
    72   100    98    1
    73   116   117    1
    74    94    93    1
    75   117   120    1
    76   111   112    1
    77    24    25    1
    78   123   125   ar
    79   123   121   ar
    80   120   121    1
    81   125   126   ar
    82   112   113    1
    83   121   122   ar
    84    32    30   ar
    85    29    30    1
    86    29    28    1
    87    27    26    2
    88    30    31   ar
    89    39    37    1
    90    25    28    1
    91    25    26    1
    92   126   127    1
    93   126   124   ar
    94   113   114    1
    95   122   124   ar
    96    54    53   ar
    97    82    81    1
    98    79    81   ar
    99    79    77   ar
   100    46    45    1
   101    46    40    1
   102    37    38    1
   103    37    34    1
   104    34    33    1
   105    34    35    1
   106   114   115    1
   107    45    44    1
   108    81    80   ar
   109    62    60    1
   110    53    55   ar
   111    53    52    1
   112    77    76   ar
   113    61    60    1
   114    40    35   am
   115    40    41    1
   116    70    68   ar
   117    35    36    2
   118    60    57    1
   119    51    52    1
   120    51    48    1
   121    50    49    2
   122    89    91   ar
   123    89    88   ar
   124    44    41    1
   125    91    92   ar
   126    80    78   ar
   127    69    68   ar
   128    88    87    1
   129    88    90   ar
   130    87    84    1
   131    92    90   ar
   132    76    78   ar
   133    76    75    1
   134    68    67    1
   135    41    42    1
   136    57    56    1
   137    57    58    1
   138    49    48    1
   139    49    56   am
   140    86    85    2
   141    43    42    2
   142    48    47    1
   143    75    72    1
   144    85    84    1
   145    84    83    1
   146    72    71    1
   147    72    73    1
   148    58    59    2
   149    74    73    2
   150    67    64    1
   151    71    65   am
   152    66    65    2
   153    65    64    1
   154    64    63    1
