@<TRIPOS>MOLECULE
tmp/5ffwA00.pdb
 149 148 0 0 0
SMALL
GASTEIGER

@<TRIPOS>ATOM
      1  N         55.1990   29.4860   34.2340 N.3    21  GLY21      -0.1225
      2  CA        54.3560   28.8480   33.2500 C.3    21  GLY21       0.1811
      3  C         55.0840   28.3520   32.0040 C.2    21  GLY21       0.2280
      4  O         54.4140   27.8140   31.0990 O.2    21  GLY21      -0.2866
      5  N         56.2250   29.9810   29.6140 N.3    23  ILE23      -0.1231
      6  CA        55.7490   30.6840   28.4680 C.3    23  ILE23       0.1692
      7  C         56.8650   31.0870   27.4810 C.2    23  ILE23       0.2592
      8  O         56.6510   31.2460   26.2620 O.2    23  ILE23      -0.2718
      9  CB        54.9700   31.9570   28.9650 C.3    23  ILE23       0.0266
     10  CG1       53.6510   31.5380   29.6300 C.3    23  ILE23       0.0019
     11  CG2       54.7360   32.9290   27.8160 C.3    23  ILE23       0.0020
     12  CD1       52.9880   32.6650   30.4090 C.3    23  ILE23       0.0001
     13  N         58.0640   31.2910   28.0250 N.am   24  PHE24      -0.1976
     14  CA        59.2060   31.7640   27.2330 C.3    24  PHE24       0.1639
     15  C         60.2790   30.7060   27.0630 C.2    24  PHE24       0.2290
     16  O         61.3960   31.0160   26.6730 O.2    24  PHE24      -0.2864
     17  CB        59.7820   33.0290   27.8690 C.3    24  PHE24       0.0560
     18  CG        58.7490   34.1110   28.1050 C.ar   24  PHE24      -0.0200
     19  CD1       58.2500   34.8690   27.0740 C.ar   24  PHE24      -0.0042
     20  CD2       58.2000   34.2590   29.3770 C.ar   24  PHE24      -0.0042
     21  CE1       57.2810   35.8480   27.3110 C.ar   24  PHE24      -0.0003
     22  CE2       57.2420   35.2340   29.6320 C.ar   24  PHE24      -0.0003
     23  CZ        56.7390   35.9840   28.5780 C.ar   24  PHE24      -0.0000
     24  N         58.0700   30.9980   20.1990 N.3    28  VAL28      -0.1231
     25  CA        56.6210   31.0440   19.9620 C.3    28  VAL28       0.1678
     26  C         56.2910   30.0960   18.7830 C.2    28  VAL28       0.2434
     27  O         56.9420   30.1590   17.7710 O.2    28  VAL28      -0.2733
     28  CB        56.1650   32.4880   19.6940 C.3    28  VAL28       0.0265
     29  CG1       54.6980   32.5040   19.2680 C.3    28  VAL28       0.0020
     30  CG2       56.3970   33.3640   20.9240 C.3    28  VAL28       0.0020
     31  N         55.2830   29.2030   18.9590 N.am   29  PRO29      -0.2729
     32  CA        55.0210   28.1970   17.9190 C.3    29  PRO29       0.1401
     33  C         54.3690   28.7890   16.6830 C.2    29  PRO29       0.2269
     34  O         53.1990   29.1880   16.7370 O.2    29  PRO29      -0.2865
     35  CB        54.1060   27.1980   18.6140 C.3    29  PRO29       0.0296
     36  CG        53.4800   27.9200   19.7490 C.3    29  PRO29       0.0237
     37  CD        54.4370   29.0080   20.1510 C.3    29  PRO29       0.0939
     38  N         51.0050   27.5460   15.4520 N.3    32  GLU32      -0.1231
     39  CA        49.8510   28.0580   16.1950 C.3    32  GLU32       0.1699
     40  C         49.6700   29.5820   15.9810 C.2    32  GLU32       0.2592
     41  O         48.5530   30.1020   16.1110 O.2    32  GLU32      -0.2718
     42  CB        49.9770   27.7340   17.6990 C.3    32  GLU32       0.0402
     43  CG        50.3110   26.2760   18.0370 C.3    32  GLU32       0.1161
     44  CD        49.3400   25.2750   17.4340 C.2    32  GLU32       0.3649
     45  OE1       48.1110   25.4650   17.6070 O.co2  32  GLU32      -0.2457
     46  OE2       49.8010   24.2990   16.7850 O.co2  32  GLU32      -0.2457
     47  N         50.7570   30.2820   15.6310 N.am   33  VAL33      -0.1966
     48  CA        50.7740   31.7740   15.5600 C.3    33  VAL33       0.1712
     49  C         51.3740   32.2080   14.2240 C.2    33  VAL33       0.2458
     50  O         52.4960   32.7100   14.1280 O.2    33  VAL33      -0.2730
     51  CB        51.5470   32.3960   16.7650 C.3    33  VAL33       0.0289
     52  CG1       51.2400   33.8900   16.8960 C.3    33  VAL33       0.0023
     53  CG2       51.1290   31.6930   18.0440 C.3    33  VAL33       0.0023
     54  N         50.5960   32.0180   13.1470 N.am   34  PRO34      -0.2716
     55  CA        51.1780   32.1280   11.8080 C.3    34  PRO34       0.1536
     56  C         51.6230   33.5040   11.3460 C.2    34  PRO34       0.2599
     57  O         52.4130   33.6270   10.3960 O.2    34  PRO34      -0.2715
     58  CB        50.0660   31.6220   10.8890 C.3    34  PRO34       0.0310
     59  CG        48.8310   31.6090   11.7040 C.3    34  PRO34       0.0237
     60  CD        49.2450   31.4620   13.1530 C.3    34  PRO34       0.0939
     61  N         51.1430   34.5350   12.0170 N.am   35  ASP35      -0.1958
     62  CA        51.5170   35.8800   11.6570 C.3    35  ASP35       0.1840
     63  C         52.5840   36.4380   12.5950 C.2    35  ASP35       0.2622
     64  O         52.9030   37.6240   12.5070 O.2    35  ASP35      -0.2715
     65  CB        50.2900   36.7800   11.7160 C.3    35  ASP35       0.1450
     66  CG        49.8120   37.0310   13.1320 C.2    35  ASP35       0.3671
     67  OD1       49.9150   36.1170   13.9910 O.co2  35  ASP35      -0.2456
     68  OD2       49.2930   38.1550   13.3520 O.co2  35  ASP35      -0.2456
     69  N         53.1270   35.6050   13.4820 N.am   36  TYR36      -0.1974
     70  CA        54.1200   36.1010   14.4230 C.3    36  TYR36       0.1639
     71  C         55.2690   36.8440   13.7410 C.2    36  TYR36       0.2290
     72  O         55.6220   37.9380   14.1580 O.2    36  TYR36      -0.2864
     73  CB        54.6880   34.9670   15.2960 C.3    36  TYR36       0.0560
     74  CG        55.4440   35.4660   16.4890 C.ar   36  TYR36      -0.0198
     75  CD1       54.7670   36.0310   17.5710 C.ar   36  TYR36      -0.0009
     76  CD2       56.8240   35.3900   16.5400 C.ar   36  TYR36      -0.0009
     77  CE1       55.4620   36.5110   18.6580 C.ar   36  TYR36       0.0417
     78  CE2       57.5280   35.8350   17.6280 C.ar   36  TYR36       0.0417
     79  CZ        56.8350   36.4120   18.6840 C.ar   36  TYR36       0.1957
     80  OH        57.5290   36.8710   19.7880 O.3    36  TYR36      -0.2866
     81  N         55.1540   40.5730   12.5210 N.3    39  HIS39      -0.1241
     82  CA        55.3100   41.6390   13.5230 C.3    39  HIS39       0.1621
     83  C         56.6530   41.6930   14.2270 C.2    39  HIS39       0.2264
     84  O         57.1210   42.7800   14.6110 O.2    39  HIS39      -0.2867
     85  CB        54.2050   41.5040   14.5530 C.3    39  HIS39       0.0745
     86  CG        52.8660   41.6940   13.9460 C.ar   39  HIS39       0.0817
     87  ND1       52.2370   42.9230   13.9170 N.ar   39  HIS39      -0.2268
     88  CD2       52.1000   40.8570   13.2130 C.ar   39  HIS39       0.1154
     89  CE1       51.0900   42.8030   13.2730 C.ar   39  HIS39       0.1986
     90  NE2       50.9860   41.5640   12.8300 N.ar   39  HIS39      -0.2212
     91  N         57.2080   40.1260   23.2710 N.3    75  CYS75      -0.1235
     92  CA        55.9450   39.6680   23.8170 C.3    75  CYS75       0.1677
     93  C         54.9790   40.8410   24.0670 C.2    75  CYS75       0.2270
     94  O         53.8120   40.7600   23.7070 O.2    75  CYS75      -0.2867
     95  CB        56.2040   38.9120   25.1400 C.3    75  CYS75       0.0956
     96  SG        54.7320   38.1460   25.8120 S.3    75  CYS75      -0.0801
     97  N         55.0690   43.5940   22.3920 N.3    77  LYS77      -0.1231
     98  CA        54.6840   44.0830   21.0730 C.3    77  LYS77       0.1693
     99  C         53.5940   43.2230   20.3730 C.2    77  LYS77       0.2592
    100  O         52.6160   43.7580   19.8460 O.2    77  LYS77      -0.2718
    101  CB        55.9260   44.2070   20.1660 C.3    77  LYS77       0.0285
    102  CG        55.6290   44.7480   18.7790 C.3    77  LYS77       0.0035
    103  CD        56.9070   44.9570   17.9710 C.3    77  LYS77       0.0206
    104  CE        56.5000   45.3120   16.5530 C.3    77  LYS77       0.1093
    105  NZ        57.6830   45.3620   15.6860 N.3    77  LYS77      -0.1314
    106  N         53.7840   41.9010   20.3700 N.am   78  TYR78      -0.1962
    107  CA        52.9330   41.0280   19.6170 C.3    78  TYR78       0.1771
    108  C         51.5330   40.9420   20.2250 C.2    78  TYR78       0.2620
    109  O         50.5280   40.9310   19.5200 O.2    78  TYR78      -0.2715
    110  CB        53.5250   39.6060   19.4510 C.3    78  TYR78       0.0574
    111  CG        52.5740   38.7420   18.6790 C.ar   78  TYR78      -0.0198
    112  CD1       52.4810   38.8830   17.3080 C.ar   78  TYR78      -0.0009
    113  CD2       51.6610   37.9050   19.3190 C.ar   78  TYR78      -0.0009
    114  CE1       51.5580   38.1530   16.5690 C.ar   78  TYR78       0.0417
    115  CE2       50.7280   37.1680   18.6030 C.ar   78  TYR78       0.0417
    116  CZ        50.6790   37.3130   17.2340 C.ar   78  TYR78       0.1957
    117  OH        49.7090   36.6440   16.5460 O.3    78  TYR78      -0.2866
    118  N         51.5090   40.7750   21.5510 N.am   79  ASN79      -0.1958
    119  CA        50.2760   40.4360   22.2320 C.3    79  ASN79       0.1819
    120  C         49.4540   41.6400   22.6920 C.2    79  ASN79       0.2621
    121  O         50.0080   42.6910   23.0770 O.2    79  ASN79      -0.2715
    122  CB        50.6210   39.5750   23.4600 C.3    79  ASN79       0.1195
    123  CG        51.1750   38.2310   23.0810 C.2    79  ASN79       0.2630
    124  OD1       50.4330   37.3260   22.6780 O.2    79  ASN79      -0.2716
    125  ND2       52.4700   38.0970   23.1550 N.am   79  ASN79      -0.0877
    126  N         48.1320   41.4860   22.7630 N.am   80  ALA80      -0.1977
    127  CA        47.2850   42.5090   23.4020 C.3    80  ALA80       0.1597
    128  C         47.6170   42.5850   24.9010 C.2    80  ALA80       0.2287
    129  O         48.0420   41.6310   25.5050 O.2    80  ALA80      -0.2864
    130  CB        45.8120   42.1720   23.2420 C.3    80  ALA80       0.0319
    131  N         47.4100   36.5910   29.0160 N.3    84  ILE84      -0.1231
    132  CA        48.3590   35.9320   29.9510 C.3    84  ILE84       0.1692
    133  C         49.8210   36.2290   29.5420 C.2    84  ILE84       0.2592
    134  O         50.6880   36.4550   30.3780 O.2    84  ILE84      -0.2718
    135  CB        48.0350   34.4150   30.1000 C.3    84  ILE84       0.0266
    136  CG1       48.8410   33.8550   31.2820 C.3    84  ILE84       0.0019
    137  CG2       48.2780   33.6370   28.8300 C.3    84  ILE84       0.0020
    138  CD1       48.3770   32.5120   31.8010 C.3    84  ILE84       0.0001
    139  N         50.0470   36.2260   28.2130 N.am   85  PHE85      -0.1976
    140  CA        51.3760   36.3820   27.6580 C.3    85  PHE85       0.1639
    141  C         51.9400   37.7640   27.9980 C.2    85  PHE85       0.2290
    142  O         53.0020   37.8860   28.5950 O.2    85  PHE85      -0.2864
    143  CB        51.3000   36.1450   26.1280 C.3    85  PHE85       0.0560
    144  CG        50.6920   34.8010   25.8090 C.ar   85  PHE85      -0.0200
    145  CD1       51.4190   33.6610   26.0490 C.ar   85  PHE85      -0.0042
    146  CD2       49.3800   34.6780   25.3250 C.ar   85  PHE85      -0.0042
    147  CE1       50.8350   32.4290   25.8890 C.ar   85  PHE85      -0.0003
    148  CE2       48.8210   33.4370   25.1420 C.ar   85  PHE85      -0.0003
    149  CZ        49.5730   32.3200   25.3990 C.ar   85  PHE85      -0.0000
@<TRIPOS>BOND
     1    57    56    2
     2    58    59    1
     3    58    55    1
     4    56    55    1
     5    56    61   am
     6    62    65    1
     7    62    61    1
     8    62    63    1
     9    59    60    1
    10    65    66    1
    11    55    54    1
    12    64    63    2
    13    81    82    1
    14    63    69   am
    15    90    88   ar
    16    90    89   ar
    17    66    68   ar
    18    66    67   ar
    19    54    60    1
    20    54    49   am
    21    88    86   ar
    22    89    87   ar
    23    69    70    1
    24    82    83    1
    25    82    85    1
    26    71    72    2
    27    71    70    1
    28    87    86   ar
    29    86    85    1
    30    50    49    2
    31    49    48    1
    32    83    84    2
    33    70    73    1
    34    73    74    1
    35    38    39    1
    36    48    47    1
    37    48    51    1
    38    47    40   am
    39   105   104    1
    40    40    41    2
    41    40    39    1
    42    39    42    1
    43    74    76   ar
    44    74    75   ar
    45    76    78   ar
    46   117   116    1
    47   104   103    1
    48   114   116   ar
    49   114   112   ar
    50    33    34    2
    51    33    32    1
    52    51    52    1
    53    51    53    1
    54    46    44   ar
    55   116   115   ar
    56   112   111   ar
    57    44    45   ar
    58    44    43    1
    59    75    77   ar
    60    78    79   ar
    61    42    43    1
    62    27    26    2
    63    32    35    1
    64    32    31    1
    65   103   102    1
    66   115   113   ar
    67    35    36    1
    68    77    79   ar
    69   111   113   ar
    70   111   110    1
    71    79    80    1
    72   102   101    1
    73    26    31   am
    74    26    25    1
    75    31    37    1
    76    29    28    1
    77   110   107    1
    78   109   108    2
    79   107   108    1
    80   107   106    1
    81    28    25    1
    82    28    30    1
    83    36    37    1
    84   100    99    2
    85    25    24    1
    86   101    98    1
    87   108   118   am
    88   106    99   am
    89    99    98    1
    90    98    97    1
    91   118   119    1
    92   119   120    1
    93   119   122    1
    94   124   123    2
    95   120   126   am
    96   120   121    2
    97   126   127    1
    98   123   125   am
    99   123   122    1
   100   130   127    1
   101    91    92    1
   102   127   128    1
   103    94    93    2
   104    92    93    1
   105    92    95    1
   106   128   129    2
   107    95    96    1
   108   148   146   ar
   109   148   149   ar
   110   146   144   ar
   111   149   147   ar
   112   144   145   ar
   113   144   143    1
   114   147   145   ar
   115   143   140    1
   116     8     7    2
   117    16    15    2
   118    15    14    1
   119    19    21   ar
   120    19    18   ar
   121    14    17    1
   122    14    13    1
   123    21    23   ar
   124     7    13   am
   125     7     6    1
   126   140   141    1
   127   140   139    1
   128    11     9    1
   129    17    18    1
   130   141   142    2
   131    18    20   ar
   132   139   133   am
   133     6     9    1
   134     6     5    1
   135    23    22   ar
   136   137   135    1
   137     9    10    1
   138   131   132    1
   139    20    22   ar
   140   133   132    1
   141   133   134    2
   142    10    12    1
   143   132   135    1
   144   135   136    1
   145     4     3    2
   146   136   138    1
   147     3     2    1
   148     2     1    1
