@<TRIPOS>MOLECULE
tmp/5ffyA00.pdb
 123 120 0 0 0
SMALL
GASTEIGER

@<TRIPOS>ATOM
      1  N          8.4960  -25.3010   11.1830 N.3    23  ASN23      -0.1225
      2  CA         9.2810  -24.9570   12.4080 C.3    23  ASN23       0.1785
      3  C         10.5150  -25.8400   12.6690 C.2    23  ASN23       0.2597
      4  O         10.8670  -26.1200   13.7960 O.2    23  ASN23      -0.2718
      5  CB         8.3960  -24.8730   13.6420 C.3    23  ASN23       0.1169
      6  CG         7.3630  -23.7640   13.5440 C.2    23  ASN23       0.2627
      7  OD1        7.4810  -22.8210   12.7730 O.2    23  ASN23      -0.2716
      8  ND2        6.3460  -23.8690   14.3670 N.am   23  ASN23      -0.0877
      9  N         11.0850  -26.3170   11.5740 N.am   24  ILE24      -0.1966
     10  CA        12.3110  -27.1460   11.5840 C.3    24  ILE24       0.1727
     11  C         13.4890  -26.4300   12.2430 C.2    24  ILE24       0.2616
     12  O         14.3230  -27.0790   12.8830 O.2    24  ILE24      -0.2715
     13  CB        12.6940  -27.5490   10.1320 C.3    24  ILE24       0.0290
     14  CG1       11.5620  -28.3610    9.4790 C.3    24  ILE24       0.0022
     15  CG2       14.0080  -28.3140   10.1030 C.3    24  ILE24       0.0023
     16  CD1       11.0390  -29.4970   10.3240 C.3    24  ILE24       0.0001
     17  N         13.5800  -25.1160   12.0460 N.am   25  PHE25      -0.1974
     18  CA        14.7360  -24.3210   12.4360 C.3    25  PHE25       0.1639
     19  C         14.3920  -23.3110   13.5570 C.2    25  PHE25       0.2290
     20  O         15.2130  -22.4620   13.9040 O.2    25  PHE25      -0.2864
     21  CB        15.2340  -23.5540   11.1560 C.3    25  PHE25       0.0560
     22  CG        15.5660  -24.4530    9.9950 C.ar   25  PHE25      -0.0200
     23  CD1       16.6910  -25.2510   10.0260 C.ar   25  PHE25      -0.0042
     24  CD2       14.6930  -24.5800    8.9020 C.ar   25  PHE25      -0.0042
     25  CE1       16.9700  -26.1370    9.0240 C.ar   25  PHE25      -0.0003
     26  CE2       15.0020  -25.4550    7.8610 C.ar   25  PHE25      -0.0003
     27  CZ        16.1590  -26.2190    7.9240 C.ar   25  PHE25      -0.0000
     28  N         14.1190  -23.7440   16.8690 N.3    27  GLU27      -0.1245
     29  CA        14.8330  -23.9840   18.1400 C.3    27  GLU27       0.1567
     30  C         16.0820  -24.8180   17.8820 C.2    27  GLU27       0.2260
     31  O         16.2420  -25.4780   16.8150 O.2    27  GLU27      -0.2867
     32  CB        13.8970  -24.6830   19.1240 C.3    27  GLU27       0.0388
     33  CG        12.8030  -23.7290   19.5850 C.3    27  GLU27       0.1160
     34  CD        11.7720  -24.3440   20.5120 C.2    27  GLU27       0.3649
     35  OE1       11.6510  -25.5810   20.5570 O.co2  27  GLU27      -0.2457
     36  OE2       11.0470  -23.5640   21.1560 O.co2  27  GLU27      -0.2457
     37  N         18.7340  -27.7400   17.3940 N.3    29  VAL29      -0.1231
     38  CA        18.6410  -29.1640   17.1510 C.3    29  VAL29       0.1678
     39  C         18.7840  -29.8720   18.5200 C.2    29  VAL29       0.2434
     40  O         19.7010  -29.5240   19.2850 O.2    29  VAL29      -0.2733
     41  CB        19.7310  -29.6220   16.1710 C.3    29  VAL29       0.0265
     42  CG1       19.7930  -31.1270   16.0880 C.3    29  VAL29       0.0020
     43  CG2       19.4960  -29.0150   14.7860 C.3    29  VAL29       0.0020
     44  N         17.8400  -30.7620   18.8500 N.am   30  PRO30      -0.2729
     45  CA        17.8450  -31.3260   20.2460 C.3    30  PRO30       0.1401
     46  C         18.8950  -32.4110   20.3640 C.2    30  PRO30       0.2269
     47  O         18.8750  -33.4650   19.6710 O.2    30  PRO30      -0.2865
     48  CB        16.3980  -31.8210   20.3860 C.3    30  PRO30       0.0296
     49  CG        16.0140  -32.2070   18.9830 C.3    30  PRO30       0.0237
     50  CD        16.5740  -31.0880   18.1690 C.3    30  PRO30       0.0939
     51  N         18.0350  -36.0650   20.9880 N.3    33  GLU33      -0.1231
     52  CA        17.5820  -36.8660   19.8640 C.3    33  GLU33       0.1699
     53  C         18.6910  -37.1020   18.8530 C.2    33  GLU33       0.2592
     54  O         18.6520  -38.0670   18.0730 O.2    33  GLU33      -0.2718
     55  CB        16.3880  -36.1940   19.1330 C.3    33  GLU33       0.0402
     56  CG        15.1350  -35.9670   19.9690 C.3    33  GLU33       0.1161
     57  CD        14.5430  -37.2350   20.5260 C.2    33  GLU33       0.3649
     58  OE1       14.7560  -38.3040   19.9350 O.co2  33  GLU33      -0.2457
     59  OE2       13.8400  -37.1490   21.5530 O.co2  33  GLU33      -0.2457
     60  N         19.6920  -36.2210   18.8620 N.am   34  VAL34      -0.1980
     61  CA        20.7420  -36.2570   17.8630 C.3    34  VAL34       0.1595
     62  C         22.0560  -36.1830   18.5980 C.2    34  VAL34       0.2287
     63  O         22.7040  -35.1270   18.6660 O.2    34  VAL34      -0.2864
     64  CB        20.6240  -35.0750   16.8570 C.3    34  VAL34       0.0276
     65  CG1       21.4890  -35.3170   15.6390 C.3    34  VAL34       0.0022
     66  CG2       19.1660  -34.8720   16.3560 C.3    34  VAL34       0.0022
     67  N         25.4960  -34.7180   17.1620 N.3    37  TYR37      -0.1241
     68  CA        25.3890  -33.4680   16.3900 C.3    37  TYR37       0.1605
     69  C         26.6420  -32.5750   16.5150 C.2    37  TYR37       0.2264
     70  O         27.1510  -32.0290   15.4950 O.2    37  TYR37      -0.2867
     71  CB        24.1040  -32.6960   16.7780 C.3    37  TYR37       0.0534
     72  CG        23.8060  -31.5400   15.8010 C.ar   37  TYR37      -0.0201
     73  CD1       23.3670  -31.8010   14.5080 C.ar   37  TYR37      -0.0009
     74  CD2       23.9050  -30.2290   16.2200 C.ar   37  TYR37      -0.0009
     75  CE1       23.0790  -30.7300   13.6440 C.ar   37  TYR37       0.0417
     76  CE2       23.6420  -29.1990   15.3600 C.ar   37  TYR37       0.0417
     77  CZ        23.2380  -29.4650   14.0720 C.ar   37  TYR37       0.1957
     78  OH        22.9580  -28.3830   13.2060 O.3    37  TYR37      -0.2866
     79  N         22.6970  -27.5980    8.3960 N.3    76  CYS76      -0.1235
     80  CA        21.7090  -28.5880    8.1130 C.3    76  CYS76       0.1677
     81  C         22.1290  -29.3610    6.8740 C.2    76  CYS76       0.2270
     82  O         22.0480  -30.5850    6.8480 O.2    76  CYS76      -0.2867
     83  CB        20.3710  -27.9260    7.9620 C.3    76  CYS76       0.0956
     84  SG        19.0080  -29.0430    7.7160 S.3    76  CYS76      -0.0801
     85  N         25.1290  -31.6800    8.0390 N.3    79  TYR79      -0.1227
     86  CA        24.8310  -32.7920    8.9370 C.3    79  TYR79       0.1736
     87  C         24.0180  -33.9050    8.2460 C.2    79  TYR79       0.2595
     88  O         24.2630  -35.1170    8.4220 O.2    79  TYR79      -0.2718
     89  CB        24.1230  -32.2950   10.2170 C.3    79  TYR79       0.0548
     90  CG        23.8530  -33.4340   11.1590 C.ar   79  TYR79      -0.0200
     91  CD1       24.9040  -33.9620   11.9390 C.ar   79  TYR79      -0.0009
     92  CD2       22.6110  -34.0630   11.1860 C.ar   79  TYR79      -0.0009
     93  CE1       24.6630  -35.0950   12.7490 C.ar   79  TYR79       0.0417
     94  CE2       22.3940  -35.2130   11.9610 C.ar   79  TYR79       0.0417
     95  CZ        23.4500  -35.7000   12.7190 C.ar   79  TYR79       0.1957
     96  OH        23.2290  -36.8710   13.4730 O.3    79  TYR79      -0.2866
     97  N         22.9660  -33.5120    7.5610 N.am   80  ASN80      -0.1974
     98  CA        21.9530  -34.4590    7.0520 C.3    80  ASN80       0.1688
     99  C         22.2740  -35.0150    5.6730 C.2    80  ASN80       0.2292
    100  O         22.8230  -34.3140    4.8170 O.2    80  ASN80      -0.2864
    101  CB        20.6200  -33.7530    7.0110 C.3    80  ASN80       0.1181
    102  CG        20.1730  -33.3580    8.4060 C.2    80  ASN80       0.2629
    103  OD1       19.6820  -34.2160    9.1710 O.2    80  ASN80      -0.2716
    104  ND2       20.3630  -32.1100    8.7660 N.am   80  ASN80      -0.0877
    105  N         14.0930  -35.0510    4.9470 N.3    85  ILE85      -0.1231
    106  CA        13.2220  -33.8890    5.0630 C.3    85  ILE85       0.1692
    107  C         14.0500  -32.6430    5.4630 C.2    85  ILE85       0.2592
    108  O         13.8400  -31.5450    4.9540 O.2    85  ILE85      -0.2718
    109  CB        12.1080  -34.1160    6.1000 C.3    85  ILE85       0.0266
    110  CG1       11.1690  -35.2370    5.6520 C.3    85  ILE85       0.0019
    111  CG2       11.3880  -32.7980    6.4210 C.3    85  ILE85       0.0020
    112  CD1       10.0960  -34.7960    4.6910 C.3    85  ILE85       0.0001
    113  N         15.0060  -32.8290    6.3720 N.am   86  PHE86      -0.1976
    114  CA        15.8180  -31.7100    6.8660 C.3    86  PHE86       0.1639
    115  C         16.6460  -31.0670    5.7270 C.2    86  PHE86       0.2290
    116  O         16.6700  -29.8420    5.5950 O.2    86  PHE86      -0.2864
    117  CB        16.6890  -32.1160    8.0630 C.3    86  PHE86       0.0560
    118  CG        15.9350  -32.6990    9.2310 C.ar   86  PHE86      -0.0200
    119  CD1       14.9220  -32.0040    9.7920 C.ar   86  PHE86      -0.0042
    120  CD2       16.3050  -33.9070    9.7540 C.ar   86  PHE86      -0.0042
    121  CE1       14.2380  -32.5360   10.8930 C.ar   86  PHE86      -0.0003
    122  CE2       15.6000  -34.4480   10.8520 C.ar   86  PHE86      -0.0003
    123  CZ        14.6200  -33.6930   11.4140 C.ar   86  PHE86      -0.0000
@<TRIPOS>BOND
     1   112   110    1
     2   100    99    2
     3   105   106    1
     4   108   107    2
     5   106   107    1
     6   106   109    1
     7   107   113   am
     8   116   115    2
     9   110   109    1
    10    99    98    1
    11   115   114    1
    12   109   111    1
    13   113   114    1
    14    82    81    2
    15   114   117    1
    16    81    80    1
    17   101    98    1
    18   101   102    1
    19    98    97    1
    20    97    87   am
    21    84    83    1
    22    26    27   ar
    23    26    24   ar
    24    27    25   ar
    25    83    80    1
    26    85    86    1
    27   117   118    1
    28    80    79    1
    29    87    88    2
    30    87    86    1
    31   102   104   am
    32   102   103    2
    33    24    22   ar
    34    86    89    1
    35    25    23   ar
    36   118   120   ar
    37   118   119   ar
    38    14    13    1
    39    14    16    1
    40   120   122   ar
    41   119   121   ar
    42    22    23   ar
    43    22    21    1
    44    15    13    1
    45    13    10    1
    46    89    90    1
    47   122   123   ar
    48   121   123   ar
    49    21    18    1
    50    90    92   ar
    51    90    91   ar
    52     1     2    1
    53    92    94   ar
    54     9    10    1
    55     9     3   am
    56    10    11    1
    57    91    93   ar
    58    94    95   ar
    59    17    11   am
    60    17    18    1
    61    11    12    2
    62     2     3    1
    63     2     5    1
    64    18    19    1
    65     3     4    2
    66    95    93   ar
    67    95    96    1
    68     7     6    2
    69    78    77    1
    70     6     5    1
    71     6     8   am
    72    19    20    2
    73    75    77   ar
    74    75    73   ar
    75    77    76   ar
    76    73    72   ar
    77    43    41    1
    78    76    74   ar
    79    70    69    2
    80    65    64    1
    81    72    74   ar
    82    72    71    1
    83    42    41    1
    84    41    38    1
    85    66    64    1
    86    68    69    1
    87    68    71    1
    88    68    67    1
    89    31    30    2
    90    64    61    1
    91    28    29    1
    92    38    37    1
    93    38    39    1
    94    61    62    1
    95    61    60    1
    96    30    29    1
    97    54    53    2
    98    29    32    1
    99    50    44    1
   100    50    49    1
   101    39    44   am
   102    39    40    2
   103    62    63    2
   104    44    45    1
   105    53    60   am
   106    53    52    1
   107    49    48    1
   108    32    33    1
   109    55    52    1
   110    55    56    1
   111    33    34    1
   112    47    46    2
   113    52    51    1
   114    58    57   ar
   115    56    57    1
   116    45    46    1
   117    45    48    1
   118    34    35   ar
   119    34    36   ar
   120    57    59   ar
