@<TRIPOS>MOLECULE
tmp/5ffzA00.pdb
 104 100 0 0 0
SMALL
GASTEIGER

@<TRIPOS>ATOM
      1  N         87.1040  104.3860   21.9830 N.3    25  LEU25      -0.1245
      2  CA        86.8470  103.1670   21.2180 C.3    25  LEU25       0.1561
      3  C         87.6100  101.9160   21.6490 C.2    25  LEU25       0.2260
      4  O         87.1620  100.8090   21.3570 O.2    25  LEU25      -0.2867
      5  CB        87.1460  103.4250   19.7370 C.3    25  LEU25       0.0270
      6  CG        86.6150  102.3750   18.7670 C.3    25  LEU25       0.0019
      7  CD1       85.1490  102.5450   18.5700 C.3    25  LEU25       0.0001
      8  CD2       87.2770  102.4540   17.3890 C.3    25  LEU25       0.0001
      9  N         85.7180   98.7480   23.3970 N.3    28  PHE28      -0.1241
     10  CA        84.5920   98.0100   22.8860 C.3    28  PHE28       0.1605
     11  C         85.0410   96.6970   22.2770 C.2    28  PHE28       0.2264
     12  O         84.2930   95.7230   22.3080 O.2    28  PHE28      -0.2867
     13  CB        83.8380   98.8490   21.8650 C.3    28  PHE28       0.0534
     14  CG        83.1410  100.0280   22.4680 C.ar   28  PHE28      -0.0203
     15  CD1       82.4380   99.9000   23.6520 C.ar   28  PHE28      -0.0042
     16  CD2       83.1690  101.2590   21.8380 C.ar   28  PHE28      -0.0042
     17  CE1       81.7900  100.9820   24.2070 C.ar   28  PHE28      -0.0003
     18  CE2       82.5210  102.3430   22.3830 C.ar   28  PHE28      -0.0003
     19  CZ        81.8300  102.2050   23.5700 C.ar   28  PHE28      -0.0000
     20  N         85.0580   95.5590   19.5190 N.3    30  ILE30      -0.1231
     21  CA        84.2620   95.0350   18.4180 C.3    30  ILE30       0.1692
     22  C         84.7050   95.5860   17.0640 C.2    30  ILE30       0.2593
     23  O         85.2960   96.6630   16.9820 O.2    30  ILE30      -0.2718
     24  CB        82.7670   95.3980   18.6450 C.3    30  ILE30       0.0266
     25  CG1       81.8350   94.5800   17.7530 C.3    30  ILE30       0.0019
     26  CG2       82.5390   96.8970   18.4650 C.3    30  ILE30       0.0020
     27  CD1       81.3920   93.2910   18.3840 C.3    30  ILE30       0.0001
     28  N         84.4320   94.8220   16.0060 N.am   31  THR31      -0.1939
     29  CA        84.9500   95.1290   14.6750 C.3    31  THR31       0.2028
     30  C         84.3290   96.4140   14.1480 C.2    31  THR31       0.2642
     31  O         83.2070   96.7610   14.5230 O.2    31  THR31      -0.2714
     32  CB        84.6820   93.9900   13.6780 C.3    31  THR31       0.1808
     33  OG1       85.2810   92.8250   14.2310 O.3    31  THR31      -0.2208
     34  CG2       85.2460   94.2890   12.3020 C.3    31  THR31       0.0379
     35  N         85.0560   97.1300   13.2970 N.am   32  ASN32      -0.1971
     36  CA        84.4530   98.1920   12.5010 C.3    32  ASN32       0.1688
     37  C         83.1920   97.7460   11.7570 C.2    32  ASN32       0.2292
     38  O         82.1540   98.4140   11.8000 O.2    32  ASN32      -0.2864
     39  CB        85.4790   98.7090   11.4950 C.3    32  ASN32       0.1181
     40  CG        86.8290   98.9770   12.1270 C.2    32  ASN32       0.2629
     41  OD1       86.9170   99.5120   13.2320 O.2    32  ASN32      -0.2716
     42  ND2       87.8930   98.6030   11.4270 N.am   32  ASN32      -0.0877
     43  N         80.4590   97.1260   14.0940 N.3    35  GLY35      -0.1210
     44  CA        79.9500   98.4060   14.5450 C.3    35  GLY35       0.1956
     45  C         78.9660   99.0110   13.5590 C.2    35  GLY35       0.2611
     46  O         77.8900   99.4770   13.9380 O.2    35  GLY35      -0.2717
     47  N         79.3180   98.9540   12.2780 N.am   36  HIS36      -0.1975
     48  CA        78.4580   99.4820   11.2250 C.3    36  HIS36       0.1656
     49  C         77.1570   98.6970   11.1750 C.2    36  HIS36       0.2291
     50  O         76.0720   99.2670   11.0000 O.2    36  HIS36      -0.2864
     51  CB        79.1640   99.4350    9.8680 C.3    36  HIS36       0.0771
     52  CG        78.4160  100.1340    8.7480 C.ar   36  HIS36       0.0820
     53  ND1       78.6640  101.3440    8.2630 N.ar   36  HIS36      -0.2267
     54  CD2       77.4390   99.5740    7.9690 C.ar   36  HIS36       0.1154
     55  CE1       77.9020  101.5420    7.2150 C.ar   36  HIS36       0.1986
     56  NE2       77.1780  100.4730    7.0540 N.ar   36  HIS36      -0.2212
     57  N         75.7500   97.0590   13.7060 N.3    38  LEU38      -0.1231
     58  CA        74.9620   97.3820   14.8820 C.3    38  LEU38       0.1693
     59  C         74.2900   98.7360   14.7330 C.2    38  LEU38       0.2592
     60  O         73.1650   98.9270   15.1880 O.2    38  LEU38      -0.2718
     61  CB        75.8360   97.3720   16.1380 C.3    38  LEU38       0.0284
     62  CG        76.4380   96.0320   16.5660 C.3    38  LEU38       0.0019
     63  CD1       77.5220   96.2470   17.6130 C.3    38  LEU38       0.0001
     64  CD2       75.3660   95.0880   17.0830 C.3    38  LEU38       0.0001
     65  N         74.9890   99.6830   14.1100 N.am   39  GLY39      -0.1957
     66  CA        74.4170  100.9970   13.8840 C.3    39  GLY39       0.1869
     67  C         73.2620  100.9670   12.9040 C.2    39  GLY39       0.2309
     68  O         72.2480  101.6550   13.0850 O.2    39  GLY39      -0.2863
     69  N         75.6690  100.8350   20.9540 N.3   102  VAL102     -0.1245
     70  CA        75.4960  101.7860   19.8670 C.3   102  VAL102      0.1561
     71  C         75.3020  103.2060   20.3880 C.2   102  VAL102      0.2260
     72  O         75.8830  104.1570   19.8620 O.2   102  VAL102     -0.2867
     73  CB        74.3040  101.4050   18.9720 C.3   102  VAL102      0.0252
     74  CG1       74.0760  102.4750   17.9180 C.3   102  VAL102      0.0019
     75  CG2       74.5580  100.0620   18.3090 C.3   102  VAL102      0.0019
     76  N         78.7860  104.5400   21.6350 N.3   105  PHE105     -0.1227
     77  CA        79.5750  104.9140   20.4660 C.3   105  PHE105      0.1736
     78  C         79.0820  106.2230   19.8650 C.2   105  PHE105      0.2596
     79  O         79.8780  107.0850   19.4930 O.2   105  PHE105     -0.2718
     80  CB        79.5280  103.8150   19.4040 C.3   105  PHE105      0.0547
     81  CG        80.1390  104.2190   18.0940 C.ar  105  PHE105     -0.0202
     82  CD1       81.5130  104.2000   17.9230 C.ar  105  PHE105     -0.0042
     83  CD2       79.3450  104.6490   17.0440 C.ar  105  PHE105     -0.0042
     84  CE1       82.0820  104.5770   16.7230 C.ar  105  PHE105     -0.0003
     85  CE2       79.9100  105.0360   15.8430 C.ar  105  PHE105     -0.0003
     86  CZ        81.2780  104.9950   15.6810 C.ar  105  PHE105     -0.0000
     87  N         77.7660  106.3700   19.7750 N.am  106  THR106     -0.1953
     88  CA        77.1860  107.5060   19.0790 C.3   106  THR106      0.1897
     89  C         77.2840  108.7470   19.9580 C.2   106  THR106      0.2313
     90  O         77.5310  109.8490   19.4680 O.2   106  THR106     -0.2863
     91  CB        75.7130  107.2490   18.7080 C.3   106  THR106      0.1794
     92  OG1       75.6120  106.0240   17.9700 O.3   106  THR106     -0.2208
     93  CG2       75.1630  108.3890   17.8660 C.3   106  THR106      0.0378
     94  N         80.4000  110.9180   19.5930 N.3   109  PHE109     -0.1241
     95  CA        80.4050  111.8560   18.4770 C.3   109  PHE109      0.1605
     96  C         79.4070  112.9710   18.6960 C.2   109  PHE109      0.2264
     97  O         79.6400  114.1060   18.2880 O.2   109  PHE109     -0.2867
     98  CB        80.1220  111.1350   17.1620 C.3   109  PHE109      0.0534
     99  CG        81.2290  110.2270   16.7320 C.ar  109  PHE109     -0.0203
    100  CD1       82.3790  110.7480   16.1600 C.ar  109  PHE109     -0.0042
    101  CD2       81.1390  108.8610   16.9180 C.ar  109  PHE109     -0.0042
    102  CE1       83.4110  109.9200   15.7670 C.ar  109  PHE109     -0.0003
    103  CE2       82.1690  108.0300   16.5290 C.ar  109  PHE109     -0.0003
    104  CZ        83.3060  108.5590   15.9520 C.ar  109  PHE109     -0.0000
@<TRIPOS>BOND
     1    56    55   ar
     2    56    54   ar
     3    55    53   ar
     4    54    52   ar
     5    53    52   ar
     6    52    51    1
     7    51    48    1
     8    50    49    2
     9    49    48    1
    10    48    47    1
    11    42    40   am
    12    39    40    1
    13    39    36    1
    14    37    38    2
    15    37    36    1
    16    40    41    2
    17    47    45   am
    18    34    32    1
    19    36    35    1
    20    67    68    2
    21    67    66    1
    22    35    30   am
    23    45    46    2
    24    45    44    1
    25    32    33    1
    26    32    29    1
    27    57    58    1
    28    66    65    1
    29    43    44    1
    30    65    59   am
    31    30    31    2
    32    30    29    1
    33    29    28    1
    34    59    58    1
    35    59    60    2
    36    58    61    1
    37    86    85   ar
    38    86    84   ar
    39   102   104   ar
    40   102   100   ar
    41    85    83   ar
    42   104   103   ar
    43    28    22   am
    44    61    62    1
    45   100    99   ar
    46   103   101   ar
    47    62    64    1
    48    62    63    1
    49    84    82   ar
    50    99   101   ar
    51    99    98    1
    52    23    22    2
    53    83    81   ar
    54    22    21    1
    55    98    95    1
    56     8     6    1
    57    25    27    1
    58    25    24    1
    59    93    91    1
    60    74    73    1
    61    82    81   ar
    62    92    91    1
    63    81    80    1
    64    97    96    2
    65    75    73    1
    66    21    24    1
    67    21    20    1
    68    26    24    1
    69    95    96    1
    70    95    94    1
    71     7     6    1
    72    91    88    1
    73     6     5    1
    74    73    70    1
    75    88    87    1
    76    88    89    1
    77    80    77    1
    78    90    89    2
    79    79    78    2
    80     5     2    1
    81    87    78   am
    82    72    71    2
    83    78    77    1
    84    70    71    1
    85    70    69    1
    86    77    76    1
    87     2     3    1
    88     2     1    1
    89     4     3    2
    90    16    18   ar
    91    16    14   ar
    92    13    14    1
    93    13    10    1
    94    11    12    2
    95    11    10    1
    96    18    19   ar
    97    14    15   ar
    98    10     9    1
    99    19    17   ar
   100    15    17   ar
