@<TRIPOS>MOLECULE
tmp/5fg3A00.pdb
 117 114 0 0 0
SMALL
GASTEIGER

@<TRIPOS>ATOM
      1  N         73.5760    3.2620   91.7010 N.3    13  VAL13      -0.1231
      2  CA        74.4390    4.0250   92.5840 C.3    13  VAL13       0.1692
      3  C         73.6570    4.4600   93.8240 C.2    13  VAL13       0.2592
      4  O         72.4890    4.8650   93.7410 O.2    13  VAL13      -0.2718
      5  CB        75.1190    5.2530   91.9030 C.3    13  VAL13       0.0266
      6  CG1       74.1010    6.2460   91.3960 C.3    13  VAL13       0.0020
      7  CG2       76.0940    5.9430   92.8620 C.3    13  VAL13       0.0020
      8  N         74.3310    4.3370   94.9590 N.am   14  ASP14      -0.1960
      9  CA        73.7990    4.6490   96.2910 C.3    14  ASP14       0.1840
     10  C         72.5940    3.8320   96.7770 C.2    14  ASP14       0.2622
     11  O         71.9680    4.2030   97.7340 O.2    14  ASP14      -0.2715
     12  CB        73.5330    6.1590   96.4350 C.3    14  ASP14       0.1450
     13  CG        74.7990    6.9940   96.3560 C.2    14  ASP14       0.3671
     14  OD1       75.9120    6.5180   96.7140 O.co2  14  ASP14      -0.2456
     15  OD2       74.6640    8.1600   95.9420 O.co2  14  ASP14      -0.2456
     16  N         72.3030    2.6960   96.1570 N.am   15  HIS15      -0.1959
     17  CA        71.2470    1.8150   96.6690 C.3    15  HIS15       0.1787
     18  C         71.7730    0.9210   97.8140 C.2    15  HIS15       0.2621
     19  O         70.9880    0.3180   98.5500 O.2    15  HIS15      -0.2715
     20  CB        70.5390    1.0540   95.5180 C.3    15  HIS15       0.0785
     21  CG        69.5660    1.9050   94.7550 C.ar   15  HIS15       0.0821
     22  ND1       68.5660    1.3800   93.9630 N.ar   15  HIS15      -0.2267
     23  CD2       69.4290    3.2540   94.6810 C.ar   15  HIS15       0.1154
     24  CE1       67.8600    2.3640   93.4350 C.ar   15  HIS15       0.1986
     25  NE2       68.3560    3.5120   93.8590 N.ar   15  HIS15      -0.2212
     26  N         73.0960    0.8880   97.9910 N.am   16  GLY16      -0.1940
     27  CA        73.7310    0.3340   99.1850 C.3    16  GLY16       0.2014
     28  C         74.5790   -0.9120   99.0130 C.2    16  GLY16       0.2639
     29  O         74.7400   -1.6670   99.9620 O.2    16  GLY16      -0.2714
     30  N         75.1430   -1.1100   97.8190 N.am   17  LYS17      -0.1963
     31  CA        75.9800   -2.2610   97.4920 C.3    17  LYS17       0.1728
     32  C         77.1910   -2.3520   98.4340 C.2    17  LYS17       0.2617
     33  O         77.4860   -3.4190   98.9960 O.2    17  LYS17      -0.2715
     34  CB        76.4910   -2.1680   96.0490 C.3    17  LYS17       0.0311
     35  CG        75.4180   -2.1770   94.9640 C.3    17  LYS17       0.0038
     36  CD        75.9560   -2.0230   93.5500 C.3    17  LYS17       0.0206
     37  CE        76.6510   -0.6920   93.2820 C.3    17  LYS17       0.1093
     38  NZ        75.7580    0.4930   93.3850 N.3    17  LYS17      -0.1314
     39  N         77.8670   -1.2210   98.6130 N.am   18  THR18      -0.1937
     40  CA        79.1090   -1.1990   99.3820 C.3    18  THR18       0.2028
     41  C         78.8020   -1.4410  100.8640 C.2    18  THR18       0.2642
     42  O         79.4750   -2.2540  101.5220 O.2    18  THR18      -0.2714
     43  CB        79.8810    0.1110   99.1690 C.3    18  THR18       0.1808
     44  OG1       80.2570    0.2120   97.7800 O.3    18  THR18      -0.2208
     45  CG2       81.1400    0.1660  100.0470 C.3    18  THR18       0.0379
     46  N         77.7840   -0.7530  101.3620 N.am   19  THR19      -0.1950
     47  CA        77.3730   -0.8930  102.7650 C.3    19  THR19       0.1897
     48  C         76.9630   -2.3400  103.0390 C.2    19  THR19       0.2313
     49  O         77.3210   -2.9110  104.0820 O.2    19  THR19      -0.2863
     50  CB        76.2750    0.1190  103.1130 C.3    19  THR19       0.1794
     51  OG1       76.7580    1.4310  102.8200 O.3    19  THR19      -0.2208
     52  CG2       75.9220    0.0820  104.5840 C.3    19  THR19       0.0378
     53  N         81.9510   -3.7240   94.1690 N.3    77  PRO77      -0.2116
     54  CA        80.6040   -3.9220   93.6130 C.3    77  PRO77       0.1372
     55  C         80.4140   -3.2880   92.2240 C.2    77  PRO77       0.2244
     56  O         81.2920   -2.6280   91.7300 O.2    77  PRO77      -0.2868
     57  CB        79.7320   -3.2290   94.6360 C.3    77  PRO77       0.0268
     58  CG        80.5660   -2.0670   95.0610 C.3    77  PRO77       0.0207
     59  CD        82.0200   -2.4740   94.9440 C.3    77  PRO77       0.0892
     60  N         66.8180   -3.1630   99.8840 N.3   129  ASN129     -0.1225
     61  CA        67.6040   -2.5640  100.9220 C.3   129  ASN129      0.1785
     62  C         67.0210   -1.2540  101.4830 C.2   129  ASN129      0.2597
     63  O         66.1420   -0.6380  100.8880 O.2   129  ASN129     -0.2718
     64  CB        69.0220   -2.3620  100.3740 C.3   129  ASN129      0.1169
     65  CG        70.0190   -1.9920  101.4470 C.2   129  ASN129      0.2627
     66  OD1       69.9860   -2.5380  102.5670 O.2   129  ASN129     -0.2716
     67  ND2       70.8990   -1.0340  101.1350 N.am  129  ASN129     -0.0877
     68  N         67.5180   -0.9010  102.6710 N.am  130  LYS130     -0.1980
     69  CA        67.2010    0.3160  103.4050 C.3   130  LYS130      0.1596
     70  C         65.7810    0.2710  104.0270 C.2   130  LYS130      0.2287
     71  O         65.1420    1.3060  104.1780 O.2   130  LYS130     -0.2864
     72  CB        67.4140    1.5940  102.5730 C.3   130  LYS130      0.0298
     73  CG        68.6760    1.6520  101.7000 C.3   130  LYS130      0.0038
     74  CD        69.0780    3.1010  101.3980 C.3   130  LYS130      0.0206
     75  CE        70.2040    3.1730  100.3760 C.3   130  LYS130      0.1093
     76  NZ        70.4810    4.5720   99.9500 N.3   130  LYS130     -0.1314
     77  N         65.0150    0.0200  107.0370 N.3   132  ASP132     -0.1225
     78  CA        65.0920    0.8970  108.2010 C.3   132  ASP132      0.1805
     79  C         64.7480    2.3410  107.9410 C.2   132  ASP132      0.2597
     80  O         64.5130    3.0840  108.8940 O.2   132  ASP132     -0.2718
     81  CB        66.5020    0.8630  108.8110 C.3   132  ASP132      0.1424
     82  CG        67.5330    1.4480  107.8810 C.2   132  ASP132      0.3668
     83  OD1       67.8830    0.7720  106.8940 O.co2 132  ASP132     -0.2456
     84  OD2       67.9570    2.6000  108.0990 O.co2 132  ASP132     -0.2456
     85  N         64.7550    2.7670  106.6840 N.am  133  ARG133     -0.1979
     86  CA        64.3150    4.1260  106.3180 C.3   133  ARG133      0.1597
     87  C         62.7970    4.2710  106.1360 C.2   133  ARG133      0.2287
     88  O         62.3210    5.3690  105.8660 O.2   133  ARG133     -0.2864
     89  CB        65.0040    4.6010  105.0360 C.3   133  ARG133      0.0334
     90  CG        66.4500    5.0030  105.2640 C.3   133  ARG133      0.0492
     91  CD        67.1280    5.3870  103.9760 C.3   133  ARG133      0.2205
     92  NE        66.5080    6.5700  103.4000 N.pl3 133  ARG133     -0.0865
     93  CZ        66.6970    7.8160  103.8290 C.cat 133  ARG133      0.5346
     94  NH1       67.5050    8.0760  104.8580 N.pl3 133  ARG133      0.1354
     95  NH2       66.0640    8.8140  103.2200 N.pl3 133  ARG133      0.1354
     96  N         68.4010   -4.4190  105.6490 N.3   197  SER197     -0.1202
     97  CA        69.0250   -3.1320  105.9530 C.3   197  SER197      0.2020
     98  C         70.5120   -3.4120  106.0880 C.2   197  SER197      0.2619
     99  O         70.9660   -4.0510  107.0330 O.2   197  SER197     -0.2717
    100  CB        68.4740   -2.4950  107.2420 C.3   197  SER197      0.2103
    101  OG        69.2160   -1.3020  107.5440 O.3   197  SER197     -0.2182
    102  N         71.2670   -2.9640  105.0960 N.am  198  ALA198     -0.1965
    103  CA        72.7330   -2.9750  105.1820 C.3   198  ALA198      0.1728
    104  C         73.2250   -2.1730  106.3920 C.2   198  ALA198      0.2616
    105  O         74.3100   -2.4490  106.9120 O.2   198  ALA198     -0.2715
    106  CB        73.3200   -2.4160  103.9130 C.3   198  ALA198      0.0334
    107  N         72.4270   -1.2130  106.8590 N.am  199  ARG199     -0.1977
    108  CA        72.7880   -0.4220  108.0250 C.3   199  ARG199      0.1597
    109  C         72.5610   -1.1190  109.3830 C.2   199  ARG199      0.2287
    110  O         73.4330   -1.0810  110.2360 O.2   199  ARG199     -0.2864
    111  CB        72.0580    0.9230  107.9890 C.3   199  ARG199      0.0334
    112  CG        72.3440    1.7830  109.1970 C.3   199  ARG199      0.0492
    113  CD        71.9440    3.2320  109.0250 C.3   199  ARG199      0.2205
    114  NE        72.7330    3.9090  107.9950 N.pl3 199  ARG199     -0.0865
    115  CZ        72.9930    5.2190  107.9680 C.cat 199  ARG199      0.5346
    116  NH1       72.5900    6.0330  108.9400 N.pl3 199  ARG199      0.1354
    117  NH2       73.6970    5.7150  106.9610 N.pl3 199  ARG199      0.1354
@<TRIPOS>BOND
     1     6     5    1
     2     1     2    1
     3    56    55    2
     4     5     2    1
     5     5     7    1
     6    55    54    1
     7     2     3    1
     8    37    38    1
     9    37    36    1
    10    24    25   ar
    11    24    22   ar
    12    36    35    1
    13    54    53    1
    14    54    57    1
    15     4     3    2
    16     3     8   am
    17    25    23   ar
    18    22    21   ar
    19    53    59    1
    20    57    58    1
    21    23    21   ar
    22    21    20    1
    23    59    58    1
    24     8     9    1
    25    35    34    1
    26    20    17    1
    27    15    13   ar
    28    34    31    1
    29    16    17    1
    30    16    10   am
    31     9    12    1
    32     9    10    1
    33    13    12    1
    34    13    14   ar
    35    17    18    1
    36    10    11    2
    37    31    30    1
    38    31    32    1
    39    44    43    1
    40    18    26   am
    41    18    19    2
    42    30    28   am
    43    26    27    1
    44    32    39   am
    45    32    33    2
    46    39    40    1
    47    28    27    1
    48    28    29    2
    49    43    40    1
    50    43    45    1
    51    40    41    1
    52    60    61    1
    53    76    75    1
    54    64    61    1
    55    64    65    1
    56    75    74    1
    57    41    46   am
    58    41    42    2
    59    63    62    2
    60    61    62    1
    61    67    65   am
    62    46    47    1
    63    74    73    1
    64    65    66    2
    65    62    68   am
    66    73    72    1
    67    72    69    1
    68    68    69    1
    69    47    48    1
    70    47    50    1
    71    51    50    1
    72    48    49    2
    73    50    52    1
    74    95    93    1
    75    92    93    2
    76    92    91    1
    77    69    70    1
    78    93    94    1
    79   106   103    1
    80    91    90    1
    81    70    71    2
    82    89    90    1
    83    89    86    1
    84   102   103    1
    85   102    98   am
    86   103   104    1
    87    96    97    1
    88    88    87    2
    89    97    98    1
    90    97   100    1
    91    98    99    2
    92    87    86    1
    93    86    85    1
    94   104   107   am
    95   104   105    2
    96    85    79   am
    97   107   108    1
    98    83    82   ar
    99   117   115    1
   100    77    78    1
   101   100   101    1
   102    82    84   ar
   103    82    81    1
   104    79    78    1
   105    79    80    2
   106   115   114    2
   107   115   116    1
   108   111   108    1
   109   111   112    1
   110   114   113    1
   111   108   109    1
   112    78    81    1
   113   113   112    1
   114   109   110    2
