@<TRIPOS>MOLECULE
tmp/5fg4A00.pdb
 130 129 0 0 0
SMALL
GASTEIGER

@<TRIPOS>ATOM
      1  N        -10.9440  -10.1770  -13.8090 N.3    24  ASN24      -0.1225
      2  CA       -10.1790   -9.8170  -12.5830 C.3    24  ASN24       0.1785
      3  C         -8.9260  -10.6780  -12.3290 C.2    24  ASN24       0.2597
      4  O         -8.4750  -10.8500  -11.1930 O.2    24  ASN24      -0.2718
      5  CB       -11.0930   -9.7690  -11.3380 C.3    24  ASN24       0.1169
      6  CG       -12.0680   -8.6170  -11.3850 C.2    24  ASN24       0.2627
      7  OD1      -11.9000   -7.6740  -12.1560 O.2    24  ASN24      -0.2716
      8  ND2      -13.1300   -8.7010  -10.5800 N.am   24  ASN24      -0.0877
      9  N         -8.3340  -11.2010  -13.4020 N.am   25  ILE25      -0.1966
     10  CA        -7.1410  -12.0280  -13.3450 C.3    25  ILE25       0.1727
     11  C         -5.9530  -11.2400  -12.7340 C.2    25  ILE25       0.2616
     12  O         -5.0990  -11.8460  -12.0560 O.2    25  ILE25      -0.2715
     13  CB        -6.8350  -12.5760  -14.7640 C.3    25  ILE25       0.0290
     14  CG1       -7.8720  -13.6580  -15.0780 C.3    25  ILE25       0.0022
     15  CG2       -5.4430  -13.1880  -14.8750 C.3    25  ILE25       0.0023
     16  CD1       -7.9710  -14.0470  -16.5360 C.3    25  ILE25       0.0001
     17  N         -5.9120   -9.9240  -12.9680 N.am   26  PHE26      -0.1974
     18  CA        -4.7560   -9.1140  -12.6080 C.3    26  PHE26       0.1639
     19  C         -5.0420   -8.1540  -11.4720 C.2    26  PHE26       0.2290
     20  O         -4.2400   -7.2690  -11.2240 O.2    26  PHE26      -0.2864
     21  CB        -4.2770   -8.3600  -13.8780 C.3    26  PHE26       0.0560
     22  CG        -3.9690   -9.2810  -15.0180 C.ar   26  PHE26      -0.0200
     23  CD1       -2.8790  -10.0680  -14.9840 C.ar   26  PHE26      -0.0042
     24  CD2       -4.8280   -9.3630  -16.1500 C.ar   26  PHE26      -0.0042
     25  CE1       -2.5800  -10.9570  -16.0250 C.ar   26  PHE26      -0.0003
     26  CE2       -4.5410  -10.2700  -17.1800 C.ar   26  PHE26      -0.0003
     27  CZ        -3.4010  -11.0300  -17.1360 C.ar   26  PHE26      -0.0000
     28  N         -5.2960   -8.5760   -8.1990 N.3    28  GLU28      -0.1231
     29  CA        -4.5580   -8.8070   -6.9560 C.3    28  GLU28       0.1684
     30  C         -3.3170   -9.6060   -7.2440 C.2    28  GLU28       0.2434
     31  O         -3.1810  -10.2190   -8.3100 O.2    28  GLU28      -0.2733
     32  CB        -5.4860   -9.5040   -5.9350 C.3    28  GLU28       0.0402
     33  CG        -6.7710   -8.7160   -5.7070 C.3    28  GLU28       0.1161
     34  CD        -7.5700   -9.1000   -4.4620 C.2    28  GLU28       0.3649
     35  OE1       -7.1260   -9.9630   -3.6640 O.co2  28  GLU28      -0.2457
     36  OE2       -8.6680   -8.5170   -4.2850 O.co2  28  GLU28      -0.2457
     37  N         -2.3600   -9.6410   -6.3010 N.am   29  PRO29      -0.2718
     38  CA        -1.1810  -10.4240   -6.5730 C.3    29  PRO29       0.1535
     39  C         -1.4730  -11.8880   -6.9080 C.2    29  PRO29       0.2598
     40  O         -2.4340  -12.4850   -6.3970 O.2    29  PRO29      -0.2715
     41  CB        -0.3830  -10.3090   -5.2510 C.3    29  PRO29       0.0310
     42  CG        -0.7960   -9.0140   -4.7000 C.3    29  PRO29       0.0237
     43  CD        -2.2320   -8.8500   -5.0510 C.3    29  PRO29       0.0939
     44  N         -0.6310  -12.4850   -7.7480 N.am   30  VAL30      -0.1964
     45  CA        -0.7160  -13.8960   -8.0130 C.3    30  VAL30       0.1712
     46  C         -0.5210  -14.6050   -6.6700 C.2    30  VAL30       0.2458
     47  O          0.4540  -14.3020   -5.9640 O.2    30  VAL30      -0.2730
     48  CB         0.3740  -14.3340   -8.9790 C.3    30  VAL30       0.0289
     49  CG1        0.4040  -15.8470   -9.1290 C.3    30  VAL30       0.0023
     50  CG2        0.1760  -13.6260  -10.3120 C.3    30  VAL30       0.0023
     51  N         -1.4440  -15.5020   -6.3370 N.am   31  PRO31      -0.2727
     52  CA        -1.4260  -16.0940   -4.9800 C.3    31  PRO31       0.1402
     53  C         -0.4000  -17.2130   -4.8370 C.2    31  PRO31       0.2269
     54  O         -0.5010  -18.2940   -5.4600 O.2    31  PRO31      -0.2865
     55  CB        -2.8560  -16.5530   -4.8080 C.3    31  PRO31       0.0296
     56  CG        -3.2610  -16.9340   -6.2080 C.3    31  PRO31       0.0237
     57  CD        -2.7140  -15.7970   -7.0070 C.3    31  PRO31       0.0939
     58  N         -1.3740  -20.7680   -4.1560 N.3    34  GLU34      -0.1231
     59  CA        -1.7990  -21.5630   -5.2960 C.3    34  GLU34       0.1699
     60  C         -0.6780  -21.7470   -6.2710 C.2    34  GLU34       0.2592
     61  O         -0.6620  -22.7370   -7.0010 O.2    34  GLU34      -0.2718
     62  CB        -2.9680  -20.9040   -6.0270 C.3    34  GLU34       0.0402
     63  CG        -4.2100  -20.7090   -5.1870 C.3    34  GLU34       0.1161
     64  CD        -4.8800  -22.0040   -4.8130 C.2    34  GLU34       0.3649
     65  OE1       -4.7460  -23.0050   -5.5540 O.co2  34  GLU34      -0.2457
     66  OE2       -5.5600  -22.0020   -3.7680 O.co2  34  GLU34      -0.2457
     67  N          0.2880  -20.8290   -6.2770 N.am   35  VAL35      -0.1980
     68  CA         1.3720  -20.8720   -7.2340 C.3    35  VAL35       0.1595
     69  C          2.7210  -20.8140   -6.5250 C.2    35  VAL35       0.2287
     70  O          3.4370  -19.8120   -6.5820 O.2    35  VAL35      -0.2864
     71  CB         1.2510  -19.7030   -8.2750 C.3    35  VAL35       0.0276
     72  CG1        2.1030  -20.0240   -9.4990 C.3    35  VAL35       0.0022
     73  CG2       -0.1940  -19.4750   -8.6660 C.3    35  VAL35       0.0022
     74  N          6.0530  -19.4050   -8.1540 N.3    38  TYR38      -0.1241
     75  CA         5.9860  -18.1220   -8.8860 C.3    38  TYR38       0.1605
     76  C          7.2380  -17.2380   -8.7230 C.2    38  TYR38       0.2264
     77  O          7.8000  -16.7560   -9.6850 O.2    38  TYR38      -0.2867
     78  CB         4.7240  -17.3620   -8.4490 C.3    38  TYR38       0.0534
     79  CG         4.3910  -16.1930   -9.3940 C.ar   38  TYR38      -0.0201
     80  CD1        3.9570  -16.4410  -10.6780 C.ar   38  TYR38      -0.0009
     81  CD2        4.5000  -14.8640   -8.9690 C.ar   38  TYR38      -0.0009
     82  CE1        3.6360  -15.4080  -11.5360 C.ar   38  TYR38       0.0417
     83  CE2        4.2150  -13.8110   -9.8300 C.ar   38  TYR38       0.0417
     84  CZ         3.7830  -14.0960  -11.1130 C.ar   38  TYR38       0.1957
     85  OH         3.4680  -13.0530  -11.9800 O.3    38  TYR38      -0.2866
     86  N          3.1790  -12.3060  -16.7470 N.3    77  CYS77      -0.1235
     87  CA         2.1620  -13.2950  -17.0280 C.3    77  CYS77       0.1677
     88  C          2.5390  -14.1170  -18.2650 C.2    77  CYS77       0.2270
     89  O          2.4320  -15.3330  -18.2770 O.2    77  CYS77      -0.2867
     90  CB         0.8050  -12.6570  -17.1930 C.3    77  CYS77       0.0956
     91  SG        -0.5460  -13.8150  -17.3600 S.3    77  CYS77      -0.0801
     92  N          5.6000  -16.3790  -17.1910 N.3    80  TYR80      -0.1227
     93  CA         5.3410  -17.5020  -16.2650 C.3    80  TYR80       0.1736
     94  C          4.5010  -18.6030  -16.8810 C.2    80  TYR80       0.2595
     95  O          4.8360  -19.7950  -16.7310 O.2    80  TYR80      -0.2718
     96  CB         4.7060  -17.0030  -14.9540 C.3    80  TYR80       0.0548
     97  CG         4.4480  -18.1670  -14.0100 C.ar   80  TYR80      -0.0200
     98  CD1        5.4930  -18.6940  -13.2430 C.ar   80  TYR80      -0.0009
     99  CD2        3.1900  -18.7770  -13.9610 C.ar   80  TYR80      -0.0009
    100  CE1        5.2910  -19.8100  -12.4210 C.ar   80  TYR80       0.0417
    101  CE2        2.9820  -19.8940  -13.1380 C.ar   80  TYR80       0.0417
    102  CZ         4.0570  -20.3950  -12.3790 C.ar   80  TYR80       0.1957
    103  OH         3.8220  -21.5150  -11.5800 O.3    80  TYR80      -0.2866
    104  N          3.4240  -18.2320  -17.5470 N.am   81  ASN81      -0.1974
    105  CA         2.4220  -19.1720  -18.0230 C.3    81  ASN81       0.1688
    106  C          2.7400  -19.7430  -19.4210 C.2    81  ASN81       0.2292
    107  O          3.3320  -19.0630  -20.2760 O.2    81  ASN81      -0.2864
    108  CB         1.0700  -18.5410  -18.0270 C.3    81  ASN81       0.1181
    109  CG         0.6320  -18.1560  -16.6420 C.2    81  ASN81       0.2629
    110  OD1        0.2010  -19.0120  -15.8980 O.2    81  ASN81      -0.2716
    111  ND2        0.7450  -16.8910  -16.2940 N.am   81  ASN81      -0.0877
    112  N         -5.3720  -19.9180  -20.0360 N.3    86  ILE86      -0.1231
    113  CA        -6.2240  -18.7970  -19.7970 C.3    86  ILE86       0.1692
    114  C         -5.4200  -17.5140  -19.4330 C.2    86  ILE86       0.2592
    115  O         -5.7360  -16.4190  -19.9610 O.2    86  ILE86      -0.2718
    116  CB        -7.2160  -19.1860  -18.6910 C.3    86  ILE86       0.0266
    117  CG1       -8.3180  -18.1860  -18.5660 C.3    86  ILE86       0.0019
    118  CG2       -6.5330  -19.3650  -17.3280 C.3    86  ILE86       0.0020
    119  CD1       -9.2390  -18.5890  -17.4230 C.3    86  ILE86       0.0001
    120  N         -4.3760  -17.6670  -18.6160 N.am   87  PHE87      -0.1976
    121  CA        -3.6220  -16.5390  -18.0840 C.3    87  PHE87       0.1639
    122  C         -2.8400  -15.8710  -19.2410 C.2    87  PHE87       0.2290
    123  O         -2.8670  -14.6580  -19.4010 O.2    87  PHE87      -0.2864
    124  CB        -2.6530  -16.9740  -16.9880 C.3    87  PHE87       0.0560
    125  CG        -3.3290  -17.6190  -15.7970 C.ar   87  PHE87      -0.0200
    126  CD1       -4.2140  -16.8980  -15.0330 C.ar   87  PHE87      -0.0042
    127  CD2       -3.0800  -18.9380  -15.4750 C.ar   87  PHE87      -0.0042
    128  CE1       -4.8680  -17.5000  -13.9660 C.ar   87  PHE87      -0.0003
    129  CE2       -3.7240  -19.5360  -14.3760 C.ar   87  PHE87      -0.0003
    130  CZ        -4.6090  -18.7940  -13.6520 C.ar   87  PHE87      -0.0000
@<TRIPOS>BOND
     1   107   106    2
     2   112   113    1
     3   115   114    2
     4   113   114    1
     5   113   116    1
     6   114   120   am
     7   106   105    1
     8   123   122    2
     9   122   121    1
    10   116   117    1
    11   116   118    1
    12   120   121    1
    13   117   119    1
    14    89    88    2
    15    88    87    1
    16   121   124    1
    17   108   105    1
    18   108   109    1
    19   105   104    1
    20   104    94   am
    21    91    90    1
    22    90    87    1
    23    92    93    1
    24    26    27   ar
    25    26    24   ar
    26    27    25   ar
    27    87    86    1
    28   124   125    1
    29    94    95    2
    30    94    93    1
    31   109   111   am
    32   109   110    2
    33    16    14    1
    34    93    96    1
    35    24    22   ar
    36    25    23   ar
    37   125   127   ar
    38   125   126   ar
    39   127   129   ar
    40    14    13    1
    41   126   128   ar
    42    22    23   ar
    43    22    21    1
    44    96    97    1
    45    15    13    1
    46    13    10    1
    47   129   130   ar
    48    97    99   ar
    49    97    98   ar
    50   128   130   ar
    51    99   101   ar
    52    21    18    1
    53     1     2    1
    54     9    10    1
    55     9     3   am
    56    10    11    1
    57    98   100   ar
    58   101   102   ar
    59    17    11   am
    60    17    18    1
    61    11    12    2
    62    18    19    1
    63     2     3    1
    64     2     5    1
    65   100   102   ar
    66   102   103    1
    67     3     4    2
    68     7     6    2
    69    85    84    1
    70    82    84   ar
    71    82    80   ar
    72    19    20    2
    73     6     5    1
    74     6     8   am
    75    84    83   ar
    76    80    79   ar
    77    50    48    1
    78    83    81   ar
    79    77    76    2
    80    72    71    1
    81    79    81   ar
    82    79    78    1
    83    49    48    1
    84    48    45    1
    85    75    76    1
    86    75    78    1
    87    75    74    1
    88    73    71    1
    89    31    30    2
    90    71    68    1
    91    28    29    1
    92    45    44    1
    93    45    46    1
    94    44    39   am
    95    30    29    1
    96    30    37   am
    97    68    69    1
    98    68    67    1
    99    57    51    1
   100    57    56    1
   101    61    60    2
   102    29    32    1
   103    39    38    1
   104    39    40    2
   105    46    51   am
   106    46    47    2
   107    70    69    2
   108    38    37    1
   109    38    41    1
   110    51    52    1
   111    37    43    1
   112    67    60   am
   113    60    59    1
   114    56    55    1
   115    62    59    1
   116    62    63    1
   117    32    33    1
   118    33    34    1
   119    65    64   ar
   120    54    53    2
   121    59    58    1
   122    41    42    1
   123    63    64    1
   124    43    42    1
   125    52    53    1
   126    52    55    1
   127    64    66   ar
   128    34    36   ar
   129    34    35   ar
