@<TRIPOS>MOLECULE
tmp/5fg5B00.pdb
 121 119 0 0 0
SMALL
GASTEIGER

@<TRIPOS>ATOM
      1  N         19.5350   18.0570  -17.3140 N.3    23  ASN23      -0.1225
      2  CA        18.3870   18.3280  -18.1500 C.3    23  ASN23       0.1785
      3  C         17.1850   17.5290  -17.7080 C.2    23  ASN23       0.2597
      4  O         16.4810   16.9120  -18.5510 O.2    23  ASN23      -0.2718
      5  CB        18.7730   18.0160  -19.6040 C.3    23  ASN23       0.1169
      6  CG        20.1230   18.5930  -19.9130 C.2    23  ASN23       0.2627
      7  OD1       20.1980   19.8050  -19.9680 O.2    23  ASN23      -0.2716
      8  ND2       21.2240   17.7550  -19.9430 N.am   23  ASN23      -0.0877
      9  N         16.9300   17.4950  -16.4080 N.am   24  ILE24      -0.1966
     10  CA        15.7650   16.7360  -15.9910 C.3    24  ILE24       0.1727
     11  C         14.6680   17.6240  -15.4400 C.2    24  ILE24       0.2616
     12  O         13.5720   17.0990  -15.2110 O.2    24  ILE24      -0.2715
     13  CB        16.0680   15.6410  -15.0500 C.3    24  ILE24       0.0290
     14  CG1       16.6400   16.2360  -13.8100 C.3    24  ILE24       0.0022
     15  CG2       17.0420   14.6080  -15.6380 C.3    24  ILE24       0.0023
     16  CD1       16.6340   15.2340  -12.6530 C.3    24  ILE24       0.0001
     17  N         14.8860   18.9320  -15.3700 N.am   25  PHE25      -0.1960
     18  CA        13.8770   19.8620  -14.8660 C.3    25  PHE25       0.1771
     19  C         13.3910   20.8340  -15.9090 C.2    25  PHE25       0.2620
     20  O         12.7170   21.7700  -15.5560 O.2    25  PHE25      -0.2715
     21  CB        14.4720   20.6240  -13.6480 C.3    25  PHE25       0.0574
     22  CG        14.8510   19.7250  -12.5150 C.ar   25  PHE25      -0.0200
     23  CD1       13.8670   19.0390  -11.8010 C.ar   25  PHE25      -0.0042
     24  CD2       16.1510   19.5770  -12.1620 C.ar   25  PHE25      -0.0042
     25  CE1       14.2150   18.2140  -10.7500 C.ar   25  PHE25      -0.0003
     26  CE2       16.5010   18.7510  -11.1010 C.ar   25  PHE25      -0.0003
     27  CZ        15.5130   18.0810  -10.4100 C.ar   25  PHE25      -0.0000
     28  N         13.7270   20.5780  -17.1670 N.am   26  SER26      -0.1936
     29  CA        13.5130   21.5400  -18.2520 C.3    26  SER26       0.2055
     30  C         12.2660   21.2660  -19.0870 C.2    26  SER26       0.2642
     31  O         12.0230   21.9820  -20.0700 O.2    26  SER26      -0.2714
     32  CB        14.7280   21.5320  -19.1670 C.3    26  SER26       0.2130
     33  OG        14.9020   20.2650  -19.7540 O.3    26  SER26      -0.2179
     34  N         11.5390   20.2290  -18.7760 N.am   27  GLU27      -0.1976
     35  CA        10.2310   19.9940  -19.3210 C.3    27  GLU27       0.1602
     36  C          9.3890   19.3790  -18.2230 C.2    27  GLU27       0.2287
     37  O          9.9220   18.8120  -17.2540 O.2    27  GLU27      -0.2864
     38  CB        10.3210   19.0490  -20.5410 C.3    27  GLU27       0.0415
     39  CG        10.7350   17.6010  -20.2300 C.3    27  GLU27       0.1163
     40  CD        10.8830   16.7130  -21.4830 C.2    27  GLU27       0.3649
     41  OE1       11.7900   16.9880  -22.2930 O.co2  27  GLU27      -0.2457
     42  OE2       10.1120   15.7090  -21.6030 O.co2  27  GLU27      -0.2457
     43  N          7.5770   16.7800  -15.9220 N.3    29  VAL29      -0.1231
     44  CA         7.7020   15.3460  -15.6630 C.3    29  VAL29       0.1678
     45  C          6.7210   14.6160  -16.6100 C.2    29  VAL29       0.2434
     46  O          5.5340   14.9440  -16.6300 O.2    29  VAL29      -0.2733
     47  CB         7.3870   14.9860  -14.1900 C.3    29  VAL29       0.0265
     48  CG1        7.4170   13.4860  -14.0050 C.3    29  VAL29       0.0020
     49  CG2        8.3780   15.6510  -13.2520 C.3    29  VAL29       0.0020
     50  N          7.1870   13.6700  -17.4160 N.am   30  PRO30      -0.2729
     51  CA         6.3210   13.0140  -18.4330 C.3    30  PRO30       0.1401
     52  C          5.3880   11.9910  -17.8210 C.2    30  PRO30       0.2269
     53  O          5.8260   10.9830  -17.3260 O.2    30  PRO30      -0.2865
     54  CB         7.3380   12.3800  -19.3700 C.3    30  PRO30       0.0296
     55  CG         8.5650   12.2270  -18.6020 C.3    30  PRO30       0.0237
     56  CD         8.5970   13.3120  -17.5890 C.3    30  PRO30       0.0939
     57  N          5.5940    8.3900  -18.7330 N.3    33  GLU33      -0.1231
     58  CA         6.6470    7.6040  -18.1060 C.3    33  GLU33       0.1699
     59  C          6.5240    7.4670  -16.5820 C.2    33  GLU33       0.2592
     60  O          7.1330    6.5520  -15.9800 O.2    33  GLU33      -0.2718
     61  CB         8.0130    8.2160  -18.4530 C.3    33  GLU33       0.0402
     62  CG         8.2910    8.4120  -19.9380 C.3    33  GLU33       0.1161
     63  CD         8.2140    7.1520  -20.7590 C.2    33  GLU33       0.3649
     64  OE1        8.3440    6.0460  -20.2140 O.co2  33  GLU33      -0.2457
     65  OE2        8.0450    7.2950  -21.9990 O.co2  33  GLU33      -0.2457
     66  N          5.7680    8.3820  -15.9570 N.am   34  VAL34      -0.1980
     67  CA         5.5700    8.4170  -14.5120 C.3    34  VAL34       0.1595
     68  C          4.0850    8.5210  -14.2330 C.2    34  VAL34       0.2287
     69  O          3.5320    9.5190  -13.7940 O.2    34  VAL34      -0.2864
     70  CB         6.3540    9.5930  -13.8680 C.3    34  VAL34       0.0276
     71  CG1        6.3740    9.4190  -12.3800 C.3    34  VAL34       0.0022
     72  CG2        7.7650    9.6690  -14.4570 C.3    34  VAL34       0.0022
     73  N          2.2680   10.0730  -11.1030 N.3    37  TYR37      -0.1241
     74  CA         2.8070   11.3390  -10.5790 C.3    37  TYR37       0.1605
     75  C          1.7470   12.2150   -9.9690 C.2    37  TYR37       0.2264
     76  O          1.9730   12.7770   -8.8720 O.2    37  TYR37      -0.2867
     77  CB         3.5540   12.0700  -11.7150 C.3    37  TYR37       0.0534
     78  CG         4.4440   13.2450  -11.2600 C.ar   37  TYR37      -0.0201
     79  CD1        5.5950   13.0030  -10.5430 C.ar   37  TYR37      -0.0009
     80  CD2        4.0970   14.5620  -11.5520 C.ar   37  TYR37      -0.0009
     81  CE1        6.4320   14.0450  -10.1360 C.ar   37  TYR37       0.0417
     82  CE2        4.9000   15.6130  -11.1280 C.ar   37  TYR37       0.0417
     83  CZ         6.0620   15.3470  -10.4680 C.ar   37  TYR37       0.1957
     84  OH         6.8650   16.3350   -9.9960 O.3    37  TYR37      -0.2866
     85  N         10.0410   17.1730   -6.5590 N.3    76  CYS76      -0.1235
     86  CA        10.9990   16.1080   -6.8660 C.3    76  CYS76       0.1677
     87  C         11.4110   15.3760   -5.5950 C.2    76  CYS76       0.2270
     88  O         11.4660   14.1480   -5.5820 O.2    76  CYS76      -0.2867
     89  CB        12.1710   16.6730   -7.5870 C.3    76  CYS76       0.0956
     90  SG        13.3160   15.4760   -8.2590 S.3    76  CYS76      -0.0801
     91  N          8.2600   13.1930   -4.5190 N.3    79  TYR79      -0.1227
     92  CA         7.8590   12.0330   -5.2990 C.3    79  TYR79       0.1736
     93  C          8.8850   10.9250   -5.2410 C.2    79  TYR79       0.2595
     94  O          8.5390    9.7500   -5.2200 O.2    79  TYR79      -0.2718
     95  CB         7.6350   12.4530   -6.7580 C.3    79  TYR79       0.0548
     96  CG         7.2620   11.2680   -7.5950 C.ar   79  TYR79      -0.0200
     97  CD1        5.9540   10.7540   -7.5640 C.ar   79  TYR79      -0.0009
     98  CD2        8.2210   10.5830   -8.3220 C.ar   79  TYR79      -0.0009
     99  CE1        5.6370    9.6040   -8.2940 C.ar   79  TYR79       0.0417
    100  CE2        7.9010    9.4530   -9.0800 C.ar   79  TYR79       0.0417
    101  CZ         6.6160    8.9530   -9.0030 C.ar   79  TYR79       0.1957
    102  OH         6.3830    7.7920   -9.7130 O.3    79  TYR79      -0.2866
    103  N         10.1660   11.2560   -5.2660 N.am   80  ASN80      -0.1974
    104  CA        11.2110   10.2930   -5.4780 C.3    80  ASN80       0.1688
    105  C         11.7840    9.7880   -4.1790 C.2    80  ASN80       0.2292
    106  O         11.9860   10.5640   -3.2240 O.2    80  ASN80      -0.2864
    107  CB        12.3300   10.8690   -6.3460 C.3    80  ASN80       0.1181
    108  CG        11.8470   11.2110   -7.7450 C.2    80  ASN80       0.2629
    109  OD1       11.7190   10.3380   -8.6210 O.2    80  ASN80      -0.2716
    110  ND2       11.5140   12.4800   -7.9720 N.am   80  ASN80      -0.0877
    111  N         17.0210   11.4320   -9.4210 N.3    86  PHE86      -0.1241
    112  CA        16.1300   12.6030   -9.3810 C.3    86  PHE86       0.1605
    113  C         16.2620   13.3260   -8.0390 C.2    86  PHE86       0.2264
    114  O         16.4200   14.5350   -7.9890 O.2    86  PHE86      -0.2867
    115  CB        14.6850   12.1870   -9.6180 C.3    86  PHE86       0.0534
    116  CG        14.5000   11.4670  -10.9280 C.ar   86  PHE86      -0.0203
    117  CD1       14.5870   12.1730  -12.1080 C.ar   86  PHE86      -0.0042
    118  CD2       14.3010   10.1240  -10.9730 C.ar   86  PHE86      -0.0042
    119  CE1       14.4440   11.5400  -13.3430 C.ar   86  PHE86      -0.0003
    120  CE2       14.2050    9.4700  -12.2160 C.ar   86  PHE86      -0.0003
    121  CZ        14.2640   10.2120  -13.3710 C.ar   86  PHE86      -0.0000
@<TRIPOS>BOND
     1    41    40   ar
     2    65    63   ar
     3    42    40   ar
     4    40    39    1
     5    63    64   ar
     6    63    62    1
     7    38    39    1
     8    38    35    1
     9    31    30    2
    10     7     6    2
    11     8     6   am
    12    62    61    1
    13     6     5    1
    14    33    32    1
    15     5     2    1
    16    54    55    1
    17    54    51    1
    18    35    34    1
    19    35    36    1
    20    32    29    1
    21    30    34   am
    22    30    29    1
    23    57    58    1
    24    55    56    1
    25     4     3    2
    26    61    58    1
    27    51    52    1
    28    51    50    1
    29    29    28    1
    30    36    37    2
    31     2     3    1
    32     2     1    1
    33    58    59    1
    34    52    53    2
    35     3     9   am
    36    56    50    1
    37    50    45   am
    38    28    19   am
    39    46    45    2
    40    45    44    1
    41    59    60    2
    42    59    66   am
    43     9    10    1
    44    10    11    1
    45    10    13    1
    46    66    67    1
    47    43    44    1
    48    19    20    2
    49    19    18    1
    50    44    47    1
    51    15    13    1
    52    11    17   am
    53    11    12    2
    54    17    18    1
    55    13    14    1
    56    18    21    1
    57    67    68    1
    58    67    70    1
    59    72    70    1
    60    68    69    2
    61    47    48    1
    62    47    49    1
    63    70    71    1
    64    14    16    1
    65    21    22    1
    66   121   119   ar
    67   121   120   ar
    68   119   117   ar
    69    22    24   ar
    70    22    23   ar
    71   120   118   ar
    72    24    26   ar
    73   117   116   ar
    74    23    25   ar
    75    77    78    1
    76    77    74    1
    77    80    78   ar
    78    80    82   ar
    79    78    79   ar
    80    82    83   ar
    81    73    74    1
    82    26    27   ar
    83   118   116   ar
    84   116   115    1
    85    25    27   ar
    86    74    75    1
    87    79    81   ar
    88    83    81   ar
    89    83    84    1
    90    75    76    2
    91   102   101    1
    92   115   112    1
    93   111   112    1
    94   112   113    1
    95   100   101   ar
    96   100    98   ar
    97   101    99   ar
    98   109   108    2
    99    98    96   ar
   100    99    97   ar
   101    90    89    1
   102   113   114    2
   103   110   108   am
   104   108   107    1
   105    96    97   ar
   106    96    95    1
   107    89    86    1
   108    86    85    1
   109    86    87    1
   110    95    92    1
   111   107   104    1
   112    87    88    2
   113   104   103    1
   114   104   105    1
   115    92    93    1
   116    92    91    1
   117   103    93   am
   118    93    94    2
   119   105   106    2
