@<TRIPOS>MOLECULE
tmp/5fg6A00.pdb
 124 122 0 0 0
SMALL
GASTEIGER

@<TRIPOS>ATOM
      1  N          6.5000   -9.9440  -10.4830 N.3    23  ARG23      -0.1231
      2  CA         5.5300   -9.4890   -9.4580 C.3    23  ARG23       0.1694
      3  C          4.5900  -10.6300   -9.0100 C.2    23  ARG23       0.2592
      4  O          3.4710  -10.3920   -8.5620 O.2    23  ARG23      -0.2718
      5  CB         4.7170   -8.2370   -9.9020 C.3    23  ARG23       0.0321
      6  CG         5.4260   -6.8900   -9.7670 C.3    23  ARG23       0.0489
      7  CD         4.5290   -5.7000  -10.1190 C.3    23  ARG23       0.2205
      8  NE         3.4250   -5.4840   -9.1850 N.pl3  23  ARG23      -0.0865
      9  CZ         3.5300   -4.8500   -8.0200 C.cat  23  ARG23       0.5346
     10  NH1        4.7000   -4.3720   -7.6320 N.pl3  23  ARG23       0.1354
     11  NH2        2.4680   -4.6990   -7.2370 N.pl3  23  ARG23       0.1354
     12  N          5.0660  -11.8630   -9.0710 N.am   24  ILE24      -0.1966
     13  CA         4.2750  -13.0070   -8.6650 C.3    24  ILE24       0.1727
     14  C          3.9530  -12.9640   -7.1690 C.2    24  ILE24       0.2616
     15  O          2.9030  -13.4600   -6.7450 O.2    24  ILE24      -0.2715
     16  CB         5.0000  -14.3070   -9.0860 C.3    24  ILE24       0.0290
     17  CG1        4.9000  -14.4600  -10.6160 C.3    24  ILE24       0.0022
     18  CG2        4.4250  -15.5330   -8.4010 C.3    24  ILE24       0.0023
     19  CD1        5.8470  -15.4890  -11.2130 C.3    24  ILE24       0.0001
     20  N          4.8470  -12.3750   -6.3820 N.am   25  PHE25      -0.1974
     21  CA         4.7490  -12.4000   -4.9240 C.3    25  PHE25       0.1639
     22  C          4.4570  -11.0310   -4.3290 C.2    25  PHE25       0.2290
     23  O          4.4970  -10.8510   -3.1090 O.2    25  PHE25      -0.2864
     24  CB         6.0110  -13.0140   -4.3360 C.3    25  PHE25       0.0560
     25  CG         6.2850  -14.3920   -4.8750 C.ar   25  PHE25      -0.0200
     26  CD1        5.5160  -15.4660   -4.4490 C.ar   25  PHE25      -0.0042
     27  CD2        7.2340  -14.6100   -5.8660 C.ar   25  PHE25      -0.0042
     28  CE1        5.7370  -16.7400   -4.9490 C.ar   25  PHE25      -0.0003
     29  CE2        7.4470  -15.8830   -6.3660 C.ar   25  PHE25      -0.0003
     30  CZ         6.6920  -16.9480   -5.9130 C.ar   25  PHE25      -0.0000
     31  N          1.6160   -9.1980   -4.2870 N.3    27  GLN27      -0.1231
     32  CA         0.2780   -8.9410   -3.7700 C.3    27  GLN27       0.1683
     33  C         -0.3270  -10.2770   -3.3740 C.2    27  GLN27       0.2434
     34  O          0.1230  -11.3220   -3.8530 O.2    27  GLN27      -0.2733
     35  CB        -0.6040   -8.3180   -4.8730 C.3    27  GLN27       0.0380
     36  CG        -0.1540   -6.9530   -5.3480 C.3    27  GLN27       0.0905
     37  CD        -0.3830   -5.8890   -4.3100 C.2    27  GLN27       0.2608
     38  OE1       -1.2750   -6.0130   -3.4700 O.2    27  GLN27      -0.2717
     39  NE2        0.4070   -4.8240   -4.3630 N.am   27  GLN27      -0.0878
     40  N         -1.3730  -10.2650   -2.5360 N.am   28  PRO28      -0.2718
     41  CA        -2.0140  -11.5290   -2.1740 C.3    28  PRO28       0.1535
     42  C         -2.5350  -12.3200   -3.3590 C.2    28  PRO28       0.2598
     43  O         -3.0000  -11.7470   -4.3560 O.2    28  PRO28      -0.2715
     44  CB        -3.1910  -11.0900   -1.3030 C.3    28  PRO28       0.0310
     45  CG        -2.8220   -9.7610   -0.7690 C.3    28  PRO28       0.0237
     46  CD        -1.9650   -9.1180   -1.8190 C.3    28  PRO28       0.0939
     47  N         -2.4570  -13.6380   -3.2380 N.am   29  VAL29      -0.1964
     48  CA        -3.1440  -14.5170   -4.1710 C.3    29  VAL29       0.1727
     49  C         -4.6320  -14.1800   -4.1440 C.2    29  VAL29       0.2616
     50  O         -5.2360  -14.0780   -3.0770 O.2    29  VAL29      -0.2715
     51  CB        -2.9450  -15.9980   -3.7810 C.3    29  VAL29       0.0290
     52  CG1       -3.7810  -16.9150   -4.6710 C.3    29  VAL29       0.0023
     53  CG2       -1.4690  -16.3610   -3.8360 C.3    29  VAL29       0.0023
     54  N         -5.2260  -14.0030   -5.3190 N.am   30  SER30      -0.1950
     55  CA        -6.6440  -13.6690   -5.4070 C.3    30  SER30       0.1924
     56  C         -7.5390  -14.8580   -5.0650 C.2    30  SER30       0.2314
     57  O         -7.5160  -15.8770   -5.7620 O.2    30  SER30      -0.2863
     58  CB        -7.0080  -13.1920   -6.8170 C.3    30  SER30       0.2116
     59  OG        -8.4190  -13.0850   -6.9540 O.3    30  SER30      -0.2180
     60  N        -10.0010  -15.4020   -7.9630 N.3    33  GLU33      -0.1231
     61  CA        -9.4860  -16.1780   -9.0790 C.3    33  GLU33       0.1699
     62  C         -9.1510  -17.6110   -8.6850 C.2    33  GLU33       0.2592
     63  O         -9.2520  -18.5090   -9.5210 O.2    33  GLU33      -0.2718
     64  CB        -8.2540  -15.5110   -9.6660 C.3    33  GLU33       0.0402
     65  CG        -7.9140  -16.0050  -11.0610 C.3    33  GLU33       0.1161
     66  CD        -8.9820  -15.7250  -12.0940 C.2    33  GLU33       0.3649
     67  OE1       -9.6720  -14.6810  -12.0090 O.co2  33  GLU33      -0.2457
     68  OE2       -9.1020  -16.5850  -13.0050 O.co2  33  GLU33      -0.2457
     69  N         -8.7500  -17.8230   -7.4320 N.am   34  VAL34      -0.1980
     70  CA        -8.2960  -19.1310   -6.9560 C.3    34  VAL34       0.1595
     71  C         -9.1250  -19.4630   -5.7080 C.2    34  VAL34       0.2287
     72  O         -8.6650  -19.3680   -4.5820 O.2    34  VAL34      -0.2864
     73  CB        -6.7870  -19.1350   -6.6410 C.3    34  VAL34       0.0276
     74  CG1       -6.3190  -20.5550   -6.4280 C.3    34  VAL34       0.0022
     75  CG2       -5.9970  -18.4850   -7.7590 C.3    34  VAL34       0.0022
     76  N         -7.8210  -21.5800   -2.6990 N.3    37  TYR37      -0.1241
     77  CA        -6.4630  -21.3260   -2.2000 C.3    37  TYR37       0.1605
     78  C         -6.3410  -21.5150   -0.6890 C.2    37  TYR37       0.2264
     79  O         -5.3880  -22.1110   -0.2170 O.2    37  TYR37      -0.2867
     80  CB        -5.9810  -19.9300   -2.6010 C.3    37  TYR37       0.0534
     81  CG        -4.5430  -19.6870   -2.2450 C.ar   37  TYR37      -0.0201
     82  CD1       -3.5290  -20.3710   -2.8990 C.ar   37  TYR37      -0.0009
     83  CD2       -4.2100  -18.8150   -1.2260 C.ar   37  TYR37      -0.0009
     84  CE1       -2.2070  -20.1700   -2.5590 C.ar   37  TYR37       0.0417
     85  CE2       -2.8890  -18.6120   -0.8750 C.ar   37  TYR37       0.0417
     86  CZ        -1.8900  -19.2970   -1.5420 C.ar   37  TYR37       0.1957
     87  OH        -0.5810  -19.1040   -1.1860 O.3    37  TYR37      -0.2866
     88  N          3.6220  -21.2740   -1.6320 N.3    76  CYS76      -0.1235
     89  CA         3.6290  -21.4420   -3.0780 C.3    76  CYS76       0.1677
     90  C          4.0590  -22.8550   -3.4680 C.2    76  CYS76       0.2270
     91  O          3.4610  -23.4770   -4.3510 O.2    76  CYS76      -0.2867
     92  CB         4.5190  -20.3740   -3.6920 C.3    76  CYS76       0.0956
     93  SG         4.4840  -20.3440   -5.4900 S.3    76  CYS76      -0.0801
     94  N          1.0930  -25.2530   -2.5040 N.3    79  TYR79      -0.1227
     95  CA        -0.1370  -25.1500   -3.2650 C.3    79  TYR79       0.1736
     96  C          0.0170  -25.6220   -4.7130 C.2    79  TYR79       0.2595
     97  O         -0.9060  -26.2300   -5.2770 O.2    79  TYR79      -0.2718
     98  CB        -0.6780  -23.7000   -3.2300 C.3    79  TYR79       0.0548
     99  CG        -1.9490  -23.5890   -4.0180 C.ar   79  TYR79      -0.0200
    100  CD1       -3.1480  -24.0650   -3.4880 C.ar   79  TYR79      -0.0009
    101  CD2       -1.9500  -23.1050   -5.3230 C.ar   79  TYR79      -0.0009
    102  CE1       -4.3110  -24.0580   -4.2360 C.ar   79  TYR79       0.0417
    103  CE2       -3.1030  -23.0830   -6.0720 C.ar   79  TYR79       0.0417
    104  CZ        -4.2960  -23.5550   -5.5260 C.ar   79  TYR79       0.1957
    105  OH        -5.4200  -23.5710   -6.3110 O.3    79  TYR79      -0.2866
    106  N          1.1470  -25.2910   -5.3380 N.am   80  ASN80      -0.1974
    107  CA         1.3440  -25.5150   -6.7580 C.3    80  ASN80       0.1688
    108  C          2.1290  -26.7860   -7.0210 C.2    80  ASN80       0.2292
    109  O          3.0390  -27.1390   -6.2710 O.2    80  ASN80      -0.2864
    110  CB         2.0940  -24.3300   -7.3560 C.3    80  ASN80       0.1181
    111  CG         1.3040  -23.0550   -7.2660 C.2    80  ASN80       0.2629
    112  OD1        0.3760  -22.8340   -8.0350 O.2    80  ASN80      -0.2716
    113  ND2        1.6280  -22.2310   -6.2860 N.am   80  ASN80      -0.0877
    114  N          4.6050  -21.0710  -11.1330 N.3    86  PHE86      -0.1241
    115  CA         4.5740  -20.6080   -9.7490 C.3    86  PHE86       0.1605
    116  C          5.6070  -21.3180   -8.8950 C.2    86  PHE86       0.2264
    117  O          6.3720  -20.6780   -8.1800 O.2    86  PHE86      -0.2867
    118  CB         3.1900  -20.8370   -9.1480 C.3    86  PHE86       0.0534
    119  CG         2.1240  -19.9730   -9.7460 C.ar   86  PHE86      -0.0203
    120  CD1        2.0810  -18.6250   -9.4640 C.ar   86  PHE86      -0.0042
    121  CD2        1.1490  -20.5180  -10.5680 C.ar   86  PHE86      -0.0042
    122  CE1        1.0980  -17.8230  -10.0120 C.ar   86  PHE86      -0.0003
    123  CE2        0.1670  -19.7230  -11.1220 C.ar   86  PHE86      -0.0003
    124  CZ         0.1380  -18.3780  -10.8470 C.ar   86  PHE86      -0.0000
@<TRIPOS>BOND
     1    68    66   ar
     2    66    67   ar
     3    66    65    1
     4    19    17    1
     5   114   115    1
     6   123   124   ar
     7   123   121   ar
     8    65    64    1
     9   124   122   ar
    10    17    16    1
    11   121   119   ar
    12     1     2    1
    13     7     6    1
    14     7     8    1
    15   122   120   ar
    16     5     6    1
    17     5     2    1
    18   115   118    1
    19   115   116    1
    20   119   120   ar
    21   119   118    1
    22    64    61    1
    23    63    62    2
    24     2     3    1
    25     8     9    2
    26    16    13    1
    27    16    18    1
    28    61    62    1
    29    61    60    1
    30    12     3   am
    31    12    13    1
    32     3     4    2
    33   116   117    2
    34    62    69   am
    35    13    14    1
    36   112   111    2
    37     9    10    1
    38     9    11    1
    39    75    73    1
    40    69    70    1
    41   110   111    1
    42   110   107    1
    43   111   113   am
    44    14    15    2
    45    14    20   am
    46   108   107    1
    47   108   109    2
    48    70    73    1
    49    70    71    1
    50    59    58    1
    51    58    55    1
    52   107   106    1
    53    73    74    1
    54    20    21    1
    55    29    30   ar
    56    29    27   ar
    57   105   104    1
    58   103   104   ar
    59   103   101   ar
    60    30    28   ar
    61    27    25   ar
    62    57    56    2
    63    71    72    2
    64   104   102   ar
    65    93    92    1
    66    55    54    1
    67    55    56    1
    68    36    35    1
    69    36    37    1
    70   106    96   am
    71   101    99   ar
    72    54    49   am
    73    97    96    2
    74    28    26   ar
    75    21    24    1
    76    21    22    1
    77    25    26   ar
    78    25    24    1
    79    35    32    1
    80    96    95    1
    81    52    51    1
    82    39    37   am
    83    43    42    2
    84    91    90    2
    85    22    23    2
    86    37    38    2
    87    31    32    1
    88   102   100   ar
    89    48    49    1
    90    48    51    1
    91    48    47    1
    92    49    50    2
    93    99   100   ar
    94    99    98    1
    95    34    33    2
    96    53    51    1
    97    32    33    1
    98    92    89    1
    99    90    89    1
   100    33    40   am
   101    42    47   am
   102    42    41    1
   103    95    98    1
   104    95    94    1
   105    89    88    1
   106    82    84   ar
   107    82    81   ar
   108    76    77    1
   109    80    81    1
   110    80    77    1
   111    84    86   ar
   112    40    41    1
   113    40    46    1
   114    81    83   ar
   115    77    78    1
   116    41    44    1
   117    46    45    1
   118    86    87    1
   119    86    85   ar
   120    44    45    1
   121    83    85   ar
   122    78    79    2
