@<TRIPOS>MOLECULE
tmp/5fg8A00.pdb
 173 163 0 0 0
SMALL
GASTEIGER

@<TRIPOS>ATOM
      1  N         10.6050    2.7510   -7.0640 N.3    14  LEU14      -0.1231
      2  CA         9.4530    2.3370   -7.8510 C.3    14  LEU14       0.1693
      3  C          9.4540    3.0230   -9.2150 C.2    14  LEU14       0.2593
      4  O          8.9440    2.4830  -10.2020 O.2    14  LEU14      -0.2718
      5  CB         8.1670    2.7090   -7.1160 C.3    14  LEU14       0.0284
      6  CG         7.9410    2.0500   -5.7600 C.3    14  LEU14       0.0019
      7  CD1        6.7440    2.6730   -5.0560 C.3    14  LEU14       0.0001
      8  CD2        7.7430    0.5540   -5.9520 C.3    14  LEU14       0.0001
      9  N         10.0190    4.2260   -9.2630 N.am   15  GLY15      -0.1942
     10  CA        10.0840    4.9910  -10.4930 C.3    15  GLY15       0.2014
     11  C         10.6850    6.3680  -10.2770 C.2    15  GLY15       0.2639
     12  O         11.0330    6.7320   -9.1530 O.2    15  GLY15      -0.2714
     13  N         10.7970    7.1350  -11.3600 N.am   16  LYS16      -0.1963
     14  CA        11.4070    8.4520  -11.3140 C.3    16  LYS16       0.1728
     15  C         10.6900    9.4250  -12.2440 C.2    16  LYS16       0.2617
     16  O         10.2900    9.0580  -13.3540 O.2    16  LYS16      -0.2715
     17  CB        12.8770    8.3640  -11.7360 C.3    16  LYS16       0.0311
     18  CG        13.8440    8.0290  -10.6150 C.3    16  LYS16       0.0038
     19  CD        15.2960    8.2820  -11.0350 C.3    16  LYS16       0.0206
     20  CE        15.8230    7.2130  -11.9820 C.3    16  LYS16       0.1093
     21  NZ        17.2120    7.5160  -12.4610 N.3    16  LYS16      -0.1314
     22  N         10.5500   10.6700  -11.7900 N.am   17  GLY17      -0.1940
     23  CA        10.0210   11.7480  -12.6070 C.3    17  GLY17       0.2014
     24  C         11.1460   12.6910  -12.9690 C.2    17  GLY17       0.2639
     25  O         12.3100   12.3450  -12.7880 O.2    17  GLY17      -0.2714
     26  N         10.8130   13.8780  -13.4700 N.am   18  ALA18      -0.1963
     27  CA        11.8350   14.8070  -13.9500 C.3    18  ALA18       0.1728
     28  C         12.8570   15.1560  -12.8610 C.2    18  ALA18       0.2616
     29  O         14.0590   15.1770  -13.1230 O.2    18  ALA18      -0.2715
     30  CB        11.1960   16.0650  -14.5170 C.3    18  ALA18       0.0334
     31  N         12.3880   15.4200  -11.6450 N.am   19  PHE19      -0.1960
     32  CA        13.2990   15.6560  -10.5230 C.3    19  PHE19       0.1771
     33  C         12.6960   15.1910   -9.1970 C.2    19  PHE19       0.2620
     34  O         12.9070   15.7920   -8.1390 O.2    19  PHE19      -0.2715
     35  CB        13.7480   17.1240  -10.4660 C.3    19  PHE19       0.0574
     36  CG        12.6220   18.1170  -10.4880 C.ar   19  PHE19      -0.0200
     37  CD1       11.9490   18.4520   -9.3210 C.ar   19  PHE19      -0.0042
     38  CD2       12.2530   18.7360  -11.6700 C.ar   19  PHE19      -0.0042
     39  CE1       10.9200   19.3760   -9.3400 C.ar   19  PHE19      -0.0003
     40  CE2       11.2260   19.6610  -11.6950 C.ar   19  PHE19      -0.0003
     41  CZ        10.5590   19.9830  -10.5300 C.ar   19  PHE19      -0.0000
     42  N         11.9450   14.1000   -9.2740 N.am   20  SER20      -0.1950
     43  CA        11.5030   13.3920   -8.0880 C.3    20  SER20       0.1924
     44  C         11.8620   11.9240   -8.2360 C.2    20  SER20       0.2314
     45  O         12.0690   11.4230   -9.3410 O.2    20  SER20      -0.2863
     46  CB         9.9940   13.5350   -7.8890 C.3    20  SER20       0.2116
     47  OG         9.2960   12.5110   -8.5810 O.3    20  SER20      -0.2180
     48  N         10.3930    8.1800   -6.6540 N.3    22  VAL22      -0.1245
     49  CA         9.3210    7.5530   -5.8810 C.3    22  VAL22       0.1561
     50  C          9.8190    6.2230   -5.3310 C.2    22  VAL22       0.2260
     51  O         10.2850    5.3760   -6.0870 O.2    22  VAL22      -0.2867
     52  CB         8.0530    7.3720   -6.7420 C.3    22  VAL22       0.0252
     53  CG1        6.9160    6.7650   -5.9260 C.3    22  VAL22       0.0019
     54  CG2        7.6240    8.7360   -7.3320 C.3    22  VAL22       0.0019
     55  N          3.6680    4.3970   -1.2580 N.3    35  ALA35      -0.1245
     56  CA         4.6390    4.9820   -2.1860 C.3    35  ALA35       0.1562
     57  C          4.9870    6.4120   -1.7590 C.2    35  ALA35       0.2260
     58  O          4.1160    7.2730   -1.6820 O.2    35  ALA35      -0.2867
     59  CB         4.0750    4.9740   -3.5830 C.3    35  ALA35       0.0290
     60  N          6.7340    9.8020   -2.7620 N.3    37  LYS37      -0.1245
     61  CA         7.3490   10.6270   -3.7890 C.3    37  LYS37       0.1561
     62  C          8.2250   11.6510   -3.0880 C.2    37  LYS37       0.2260
     63  O          7.7440   12.4900   -2.3270 O.2    37  LYS37      -0.2867
     64  CB         6.2930   11.3200   -4.6310 C.3    37  LYS37       0.0271
     65  CG         6.8780   12.1240   -5.7730 C.3    37  LYS37       0.0035
     66  CD         5.9890   13.2770   -6.1390 C.3    37  LYS37       0.0206
     67  CE         4.8810   12.8780   -7.0710 C.3    37  LYS37       0.1093
     68  NZ         4.8920   13.8260   -8.2360 N.3    37  LYS37      -0.1314
     69  N          0.1170   20.6710   -5.9250 N.3    55  GLU55      -0.1245
     70  CA         0.0090   19.2450   -6.2420 C.3    55  GLU55       0.1567
     71  C         -0.7080   18.5180   -5.0990 C.2    55  GLU55       0.2260
     72  O         -1.7230   17.8760   -5.3160 O.2    55  GLU55      -0.2867
     73  CB         1.3880   18.6210   -6.5170 C.3    55  GLU55       0.0388
     74  CG         1.3160   17.0850   -6.7860 C.3    55  GLU55       0.1160
     75  CD         2.6500   16.4580   -7.1310 C.2    55  GLU55       0.3649
     76  OE1        3.6300   17.1810   -7.4060 O.co2  55  GLU55      -0.2457
     77  OE2        2.7140   15.2120   -7.1580 O.co2  55  GLU55      -0.2457
     78  N         -4.8650    8.1370   -7.9050 N.3    68  VAL68      -0.1245
     79  CA        -4.0170    7.7840   -6.7760 C.3    68  VAL68       0.1561
     80  C         -4.4040    8.6060   -5.5500 C.2    68  VAL68       0.2260
     81  O         -4.8050    9.7580   -5.6790 O.2    68  VAL68      -0.2867
     82  CB        -2.5370    8.0080   -7.0890 C.3    68  VAL68       0.0252
     83  CG1       -2.1110    7.1300   -8.2360 C.3    68  VAL68       0.0019
     84  CG2       -2.2570    9.4960   -7.3850 C.3    68  VAL68       0.0019
     85  N          1.6740    8.4030   -0.9290 N.3    84  PHE84      -0.1227
     86  CA         0.4870    7.9640   -1.6700 C.3    84  PHE84       0.1736
     87  C          0.2070    6.4750   -1.3990 C.2    84  PHE84       0.2595
     88  O          1.1120    5.7660   -1.0170 O.2    84  PHE84      -0.2718
     89  CB         0.7360    8.0770   -3.1670 C.3    84  PHE84       0.0547
     90  CG         0.9720    9.4670   -3.6650 C.ar   84  PHE84      -0.0202
     91  CD1       -0.0900   10.2580   -4.0510 C.ar   84  PHE84      -0.0042
     92  CD2        2.2520    9.9720   -3.7700 C.ar   84  PHE84      -0.0042
     93  CE1        0.1210   11.5340   -4.5330 C.ar   84  PHE84      -0.0003
     94  CE2        2.4670   11.2380   -4.2550 C.ar   84  PHE84      -0.0003
     95  CZ         1.4040   12.0230   -4.6280 C.ar   84  PHE84      -0.0000
     96  N         -1.0080    5.9910   -1.6420 N.am   85  ASP85      -0.1960
     97  CA        -1.2160    4.5380   -1.6050 C.3    85  ASP85       0.1840
     98  C         -0.3790    3.8810   -2.6900 C.2    85  ASP85       0.2622
     99  O         -0.2090    4.4280   -3.7800 O.2    85  ASP85      -0.2715
    100  CB        -2.6870    4.1310   -1.7460 C.3    85  ASP85       0.1450
    101  CG        -3.4380    4.1660   -0.4150 C.2    85  ASP85       0.3671
    102  OD1       -3.2050    3.3210    0.5010 O.co2  85  ASP85      -0.2456
    103  OD2       -4.3110    5.0360   -0.2700 O.co2  85  ASP85      -0.2456
    104  N          0.1420    2.6970   -2.3720 N.am   86  LEU86      -0.1963
    105  CA         1.0120    1.9730   -3.2850 C.3    86  LEU86       0.1728
    106  C          0.1920    1.2830   -4.3860 C.2    86  LEU86       0.2616
    107  O         -0.7810    0.5730   -4.1190 O.2    86  LEU86      -0.2715
    108  CB         1.8270    0.9320   -2.5050 C.3    86  LEU86       0.0311
    109  CG         2.8430    0.1050   -3.2880 C.3    86  LEU86       0.0022
    110  CD1        3.9630    0.9690   -3.8230 C.3    86  LEU86       0.0001
    111  CD2        3.3930   -1.0060   -2.3890 C.3    86  LEU86       0.0001
    112  N          0.5950    1.5190   -5.6210 N.am   87  VAL87      -0.1977
    113  CA         0.0040    0.8960   -6.7960 C.3    87  VAL87       0.1596
    114  C          1.1130    0.0030   -7.3330 C.2    87  VAL87       0.2287
    115  O          2.1760    0.5070   -7.6770 O.2    87  VAL87      -0.2864
    116  CB        -0.3710    1.9740   -7.8470 C.3    87  VAL87       0.0276
    117  CG1       -1.0240    1.3500   -9.0610 C.3    87  VAL87       0.0022
    118  CG2       -1.3010    2.9930   -7.2340 C.3    87  VAL87       0.0022
    119  N          3.1170   -1.2410  -11.7820 N.3    90  GLY90      -0.1210
    120  CA         4.0140   -0.4870  -12.6400 C.3    90  GLY90       0.1956
    121  C          3.2470    0.5000  -13.5070 C.2    90  GLY90       0.2611
    122  O          2.0290    0.6570  -13.3680 O.2    90  GLY90      -0.2717
    123  N          3.9560    1.1840  -14.3970 N.am   91  GLU91      -0.1979
    124  CA         3.3210    2.1640  -15.2660 C.3    91  GLU91       0.1602
    125  C          2.6640    1.4650  -16.4390 C.2    91  GLU91       0.2287
    126  O          3.1890    0.4850  -16.9560 O.2    91  GLU91      -0.2864
    127  CB         4.3490    3.1470  -15.8190 C.3    91  GLU91       0.0415
    128  CG         5.1380    3.9240  -14.7760 C.3    91  GLU91       0.1163
    129  CD         6.3560    4.6040  -15.3810 C.2    91  GLU91       0.3649
    130  OE1        6.6740    4.3010  -16.5440 O.co2  91  GLU91      -0.2457
    131  OE2        7.0070    5.4570  -14.7240 O.co2  91  GLU91      -0.2457
    132  N          3.2300    7.1130  -18.8540 N.3   134  GLU134     -0.1231
    133  CA         4.1080    7.1270  -17.6900 C.3   134  GLU134      0.1699
    134  C          3.4100    7.5980  -16.4160 C.2   134  GLU134      0.2592
    135  O          3.8820    7.3120  -15.3140 O.2   134  GLU134     -0.2718
    136  CB         5.3310    7.9890  -17.9560 C.3   134  GLU134      0.0402
    137  CG         6.1220    7.5550  -19.1690 C.3   134  GLU134      0.1161
    138  CD         5.7080    8.2610  -20.4350 C.2   134  GLU134      0.3649
    139  OE1        4.4970    8.4150  -20.7000 O.co2 134  GLU134     -0.2457
    140  OE2        6.6000    8.6690  -21.2020 O.co2 134  GLU134     -0.2457
    141  N          2.2810    8.2960  -16.5520 N.am  135  ASN135     -0.1974
    142  CA         1.5780    8.8720  -15.3980 C.3   135  ASN135      0.1688
    143  C          0.2760    8.1490  -15.1180 C.2   135  ASN135      0.2292
    144  O         -0.5860    8.6400  -14.3970 O.2   135  ASN135     -0.2864
    145  CB         1.2900   10.3570  -15.6130 C.3   135  ASN135      0.1181
    146  CG         2.5360   11.2120  -15.5280 C.2   135  ASN135      0.2629
    147  OD1        3.5550   10.7920  -14.9810 O.2   135  ASN135     -0.2716
    148  ND2        2.4620   12.4220  -16.0660 N.am  135  ASN135     -0.0877
    149  N         -0.9040    4.3460  -13.7450 N.3   137  LEU137     -0.1245
    150  CA        -0.3210    3.2080  -13.0470 C.3   137  LEU137      0.1561
    151  C         -1.3460    2.1080  -12.9810 C.2   137  LEU137      0.2260
    152  O         -2.5480    2.3710  -12.9160 O.2   137  LEU137     -0.2867
    153  CB         0.1160    3.6070  -11.6350 C.3   137  LEU137      0.0270
    154  CG         0.8920    4.9260  -11.4990 C.3   137  LEU137      0.0019
    155  CD1        1.2570    5.1720  -10.0640 C.3   137  LEU137      0.0001
    156  CD2        2.1330    4.9970  -12.3710 C.3   137  LEU137      0.0001
    157  N         -2.0270    9.2340  -12.0070 N.3   150  ALA150     -0.1231
    158  CA        -1.0490    9.7740  -11.0960 C.3   150  ALA150      0.1694
    159  C         -0.5010   11.1260  -11.5770 C.2   150  ALA150      0.2592
    160  O         -0.8730   11.6520  -12.6320 O.2   150  ALA150     -0.2718
    161  CB         0.0920    8.8030  -10.9610 C.3   150  ALA150      0.0304
    162  N          0.4100   11.6570  -10.7810 N.am  151  ASP151     -0.1974
    163  CA         1.2180   12.7930  -11.1440 C.3   151  ASP151      0.1709
    164  C          0.4040   14.0740  -11.3580 C.2   151  ASP151      0.2293
    165  O          0.1710   14.5050  -12.4830 O.2   151  ASP151     -0.2864
    166  CB         2.0520   12.4880  -12.3690 C.3   151  ASP151      0.1436
    167  CG         3.1630   13.4750  -12.5380 C.2   151  ASP151      0.3671
    168  OD1        3.1540   14.4820  -11.8050 O.co2 151  ASP151     -0.2456
    169  OD2        4.0600   13.2530  -13.3650 O.co2 151  ASP151     -0.2456
    170  N          1.4150   16.9800  -10.6320 N.3   153  GLY153     -0.1225
    171  CA         2.4320   18.0130  -10.5670 C.3   153  GLY153      0.1811
    172  C          2.1170   19.2440  -11.4010 C.2   153  GLY153      0.2280
    173  O          2.5650   20.3400  -11.0740 O.2   153  GLY153     -0.2866
@<TRIPOS>BOND
     1   140   138   ar
     2   139   138   ar
     3   138   137    1
     4   137   136    1
     5   132   133    1
     6   136   133    1
     7   133   134    1
     8   126   125    2
     9   141   134   am
    10   141   142    1
    11   130   129   ar
    12   125   124    1
    13   134   135    2
    14   148   146   am
    15   127   124    1
    16   127   128    1
    17   145   146    1
    18   145   142    1
    19   146   147    2
    20   142   143    1
    21   129   128    1
    22   129   131   ar
    23   124   123    1
    24   143   144    2
    25    30    27    1
    26   123   121   am
    27    27    26    1
    28    27    28    1
    29   149   150    1
    30   121   122    2
    31   121   120    1
    32    26    24   am
    33   169   167   ar
    34    16    15    2
    35    29    28    2
    36   150   151    1
    37   150   153    1
    38   151   152    2
    39    24    25    2
    40    24    23    1
    41    28    31   am
    42   120   119    1
    43   160   159    2
    44    23    22    1
    45   167   166    1
    46   167   168   ar
    47   165   164    2
    48    21    20    1
    49   156   154    1
    50   166   163    1
    51    15    22   am
    52    15    14    1
    53   157   158    1
    54    20    19    1
    55    17    14    1
    56    17    18    1
    57    40    38   ar
    58    40    41   ar
    59    38    36   ar
    60    31    32    1
    61   153   154    1
    62   159   158    1
    63   159   162   am
    64   154   155    1
    65   172   173    2
    66   172   171    1
    67    13    14    1
    68    13    11   am
    69   164   163    1
    70   163   162    1
    71   158   161    1
    72    19    18    1
    73   170   171    1
    74    41    39   ar
    75    32    35    1
    76    32    33    1
    77    10    11    1
    78    10     9    1
    79    36    35    1
    80    36    37   ar
    81    11    12    2
    82     4     3    2
    83    45    44    2
    84    39    37   ar
    85    42    33   am
    86    42    43    1
    87     9     3   am
    88     3     2    1
    89    33    34    2
    90   117   116    1
    91    47    46    1
    92    44    43    1
    93    83    82    1
    94    68    67    1
    95    43    46    1
    96    78    79    1
    97     2     5    1
    98     2     1    1
    99   116   118    1
   100   116   113    1
   101   115   114    2
   102    76    75   ar
   103    84    82    1
   104   114   113    1
   105    54    52    1
   106    77    75   ar
   107    75    74    1
   108     5     6    1
   109    82    79    1
   110    67    66    1
   111   113   112    1
   112    74    73    1
   113    79    80    1
   114    52    53    1
   115    52    49    1
   116    48    49    1
   117    73    70    1
   118    70    69    1
   119    70    71    1
   120    66    65    1
   121    51    50    2
   122     8     6    1
   123    49    50    1
   124    65    64    1
   125     6     7    1
   126    81    80    2
   127   112   106   am
   128    72    71    2
   129    64    61    1
   130    95    93   ar
   131    95    94   ar
   132    93    91   ar
   133   106   107    2
   134   106   105    1
   135    94    92   ar
   136    91    90   ar
   137   110   109    1
   138    61    62    1
   139    61    60    1
   140    99    98    2
   141    92    90   ar
   142    90    89    1
   143    59    56    1
   144   109   108    1
   145   109   111    1
   146   105   108    1
   147   105   104    1
   148    89    86    1
   149    62    63    2
   150    98   104   am
   151    98    97    1
   152    56    57    1
   153    56    55    1
   154    57    58    2
   155   100    97    1
   156   100   101    1
   157    86    87    1
   158    86    85    1
   159    96    97    1
   160    96    87   am
   161    87    88    2
   162   101   103   ar
   163   101   102   ar
