@<TRIPOS>MOLECULE
tmp/5fgbC00.pdb
 133 128 0 0 0
SMALL
GASTEIGER

@<TRIPOS>ATOM
      1  N        -31.2070   35.7100   30.3090 N.3    30  SER30      -0.1202
      2  CA       -31.6260   37.0370   30.7830 C.3    30  SER30       0.2020
      3  C        -33.1300   37.1780   31.0870 C.2    30  SER30       0.2619
      4  O        -33.5220   38.1700   31.7170 O.2    30  SER30      -0.2717
      5  CB       -31.1880   38.1180   29.7870 C.3    30  SER30       0.2103
      6  OG       -31.8200   37.9190   28.5320 O.3    30  SER30      -0.2182
      7  N        -33.9630   36.2430   30.6100 N.am   31  SER31      -0.1951
      8  CA       -35.4060   36.2680   30.8540 C.3    31  SER31       0.1924
      9  C        -35.8000   35.7270   32.2400 C.2    31  SER31       0.2314
     10  O        -36.9710   35.8500   32.6340 O.2    31  SER31      -0.2863
     11  CB       -36.1430   35.4730   29.7750 C.3    31  SER31       0.2116
     12  OG       -36.0200   36.1460   28.5330 O.3    31  SER31      -0.2180
     13  N        -35.0650   35.2280   36.5290 N.3    33  ALA33      -0.1231
     14  CA       -34.4140   35.5060   37.8150 C.3    33  ALA33       0.1694
     15  C        -33.7280   34.1970   38.1890 C.2    33  ALA33       0.2592
     16  O        -34.1870   33.1070   37.7980 O.2    33  ALA33      -0.2718
     17  CB       -35.4370   35.8590   38.8830 C.3    33  ALA33       0.0304
     18  N        -32.6370   34.2900   38.9270 N.am   34  MET34      -0.1965
     19  CA       -31.8800   33.0810   39.3100 C.3    34  MET34       0.1736
     20  C        -31.6580   33.1140   40.7910 C.2    34  MET34       0.2617
     21  O        -31.6620   34.1900   41.3810 O.2    34  MET34      -0.2715
     22  CB       -30.5340   33.0540   38.5770 C.3    34  MET34       0.0427
     23  CG       -30.6350   32.9270   37.0560 C.3    34  MET34       0.0599
     24  SD       -31.2640   31.3130   36.4370 S.3    34  MET34      -0.1393
     25  CE       -30.0990   30.1580   37.1790 C.3    34  MET34       0.0692
     26  N        -31.4250   31.9500   41.4230 N.am   35  SER35      -0.1950
     27  CA       -31.2540   31.9360   42.8610 C.3    35  SER35       0.1924
     28  C        -30.2670   30.8890   43.3210 C.2    35  SER35       0.2314
     29  O        -29.9750   29.9350   42.5730 O.2    35  SER35      -0.2863
     30  CB       -32.6130   31.7200   43.5300 C.3    35  SER35       0.2116
     31  OG       -32.5050   31.5620   44.9310 O.3    35  SER35      -0.2180
     32  N        -33.4550   29.1510   51.2350 N.3    47  TRP47      -0.1241
     33  CA       -33.1620   30.1050   50.1820 C.3    47  TRP47       0.1605
     34  C        -32.0420   31.0640   50.6770 C.2    47  TRP47       0.2264
     35  O        -32.0620   31.5270   51.8300 O.2    47  TRP47      -0.2867
     36  CB       -34.4310   30.8660   49.7940 C.3    47  TRP47       0.0550
     37  CG       -34.1670   31.9900   48.8470 C.ar   47  TRP47       0.0003
     38  CD1      -33.9210   31.9090   47.5050 C.ar   47  TRP47       0.0946
     39  CD2      -34.1110   33.3750   49.1850 C.ar   47  TRP47       0.0152
     40  NE1      -33.6900   33.1680   46.9910 N.ar   47  TRP47      -0.2442
     41  CE2      -33.8260   34.0890   47.9980 C.ar   47  TRP47       0.0810
     42  CE3      -34.2690   34.0850   50.3870 C.ar   47  TRP47       0.0012
     43  CZ2      -33.7130   35.4840   47.9730 C.ar   47  TRP47       0.0191
     44  CZ3      -34.1520   35.4670   50.3600 C.ar   47  TRP47       0.0001
     45  CH2      -33.8570   36.1490   49.1680 C.ar   47  TRP47       0.0015
     46  N        -31.0790   35.8550   45.5150 N.3    50  ALA50      -0.1245
     47  CA       -31.6590   35.9010   44.1670 C.3    50  ALA50       0.1562
     48  C        -31.1810   37.1360   43.4160 C.2    50  ALA50       0.2260
     49  O        -30.7930   38.1390   44.0130 O.2    50  ALA50      -0.2867
     50  CB       -33.1810   35.8910   44.2080 C.3    50  ALA50       0.0290
     51  N        -32.4260   39.3930   39.7830 N.3    52  SER52      -0.1202
     52  CA       -33.3780   39.5060   38.6700 C.3    52  SER52       0.2020
     53  C        -32.7070   39.1850   37.3430 C.2    52  SER52       0.2619
     54  O        -31.4740   39.1850   37.2530 O.2    52  SER52      -0.2717
     55  CB       -33.9400   40.9200   38.6210 C.3    52  SER52       0.2103
     56  OG       -32.8530   41.8090   38.3790 O.3    52  SER52      -0.2182
     57  N        -33.5270   38.9260   36.3140 N.am   53  GLY53      -0.1942
     58  CA       -33.0370   38.6060   34.9790 C.3    53  GLY53       0.2014
     59  C        -32.0010   39.5850   34.4460 C.2    53  GLY53       0.2639
     60  O        -30.9710   39.1670   33.9090 O.2    53  GLY53      -0.2714
     61  N        -32.2860   40.8800   34.5680 N.am   54  SER54      -0.1949
     62  CA       -31.4120   41.9540   34.0660 C.3    54  SER54       0.1924
     63  C        -30.1610   42.1340   34.9320 C.2    54  SER54       0.2314
     64  O        -29.2480   42.8650   34.5320 O.2    54  SER54      -0.2863
     65  CB       -32.1850   43.2750   34.0830 C.3    54  SER54       0.2116
     66  OG       -32.3990   43.6810   35.4340 O.3    54  SER54      -0.2180
     67  N        -31.1370   40.1480   46.1300 N.3    59  TYR59      -0.1241
     68  CA       -31.8760   39.8800   47.3750 C.3    59  TYR59       0.1605
     69  C        -31.1350   38.8140   48.1390 C.2    59  TYR59       0.2264
     70  O        -30.5330   37.9230   47.5320 O.2    59  TYR59      -0.2867
     71  CB       -33.2820   39.3420   47.0220 C.3    59  TYR59       0.0534
     72  CG       -34.0310   40.2600   46.0840 C.ar   59  TYR59      -0.0201
     73  CD1      -33.8450   40.1820   44.7020 C.ar   59  TYR59      -0.0009
     74  CD2      -34.8900   41.2410   46.5790 C.ar   59  TYR59      -0.0009
     75  CE1      -34.4750   41.0840   43.8360 C.ar   59  TYR59       0.0417
     76  CE2      -35.5330   42.1420   45.7230 C.ar   59  TYR59       0.0417
     77  CZ       -35.3470   42.0360   44.3540 C.ar   59  TYR59       0.1957
     78  OH       -36.0080   42.9060   43.5260 O.3    59  TYR59      -0.2866
     79  N        -35.5110   30.5060   38.5870 N.3    99  ALA99      -0.1245
     80  CA       -36.7410   30.8780   39.2680 C.3    99  ALA99       0.1562
     81  C        -37.7840   31.3710   38.2910 C.2    99  ALA99       0.2260
     82  O        -37.4670   32.0530   37.3200 O.2    99  ALA99      -0.2867
     83  CB       -36.4490   31.9710   40.2990 C.3    99  ALA99       0.0290
     84  N        -41.1880   33.6270   38.4300 N.3   101  VAL101     -0.1231
     85  CA       -41.8430   34.5870   39.3180 C.3   101  VAL101      0.1692
     86  C        -43.0140   35.2010   38.5750 C.2   101  VAL101      0.2592
     87  O        -42.8250   35.7400   37.4830 O.2   101  VAL101     -0.2718
     88  CB       -40.8720   35.6930   39.8750 C.3   101  VAL101      0.0266
     89  CG1      -41.6060   36.6720   40.8000 C.3   101  VAL101      0.0020
     90  CG2      -39.6820   35.0840   40.6130 C.3   101  VAL101      0.0020
     91  N        -44.2030   35.1810   39.2180 N.am  102  PHE102     -0.1976
     92  CA       -45.4600   35.8040   38.7390 C.3   102  PHE102      0.1639
     93  C        -46.1160   36.6330   39.8530 C.2   102  PHE102      0.2290
     94  O        -45.8940   36.3770   41.0410 O.2   102  PHE102     -0.2864
     95  CB       -46.4560   34.7570   38.2100 C.3   102  PHE102      0.0560
     96  CG       -46.0490   34.1390   36.8910 C.ar  102  PHE102     -0.0200
     97  CD1      -46.1790   34.8500   35.6980 C.ar  102  PHE102     -0.0042
     98  CD2      -45.5140   32.8580   36.8390 C.ar  102  PHE102     -0.0042
     99  CE1      -45.7750   34.2850   34.4790 C.ar  102  PHE102     -0.0003
    100  CE2      -45.1500   32.2830   35.6150 C.ar  102  PHE102     -0.0003
    101  CZ       -45.2520   33.0090   34.4500 C.ar  102  PHE102     -0.0000
    102  N        -44.5110   38.6100   42.5030 N.3   103  TYR103     -0.1241
    103  CA       -43.9670   38.1780   43.7880 C.3   103  TYR103      0.1605
    104  C        -44.8600   37.1670   44.5190 C.2   103  TYR103      0.2264
    105  O        -44.3930   36.5120   45.4520 O.2   103  TYR103     -0.2867
    106  CB       -43.6100   39.3820   44.6880 C.3   103  TYR103      0.0534
    107  CG       -44.7680   40.3070   45.0070 C.ar  103  TYR103     -0.0201
    108  CD1      -45.6290   40.0390   46.0680 C.ar  103  TYR103     -0.0009
    109  CD2      -44.9680   41.4790   44.2850 C.ar  103  TYR103     -0.0009
    110  CE1      -46.6860   40.8950   46.3790 C.ar  103  TYR103      0.0417
    111  CE2      -46.0220   42.3450   44.5860 C.ar  103  TYR103      0.0417
    112  CZ       -46.8800   42.0480   45.6350 C.ar  103  TYR103      0.1957
    113  OH       -47.9240   42.8910   45.9350 O.3   103  TYR103     -0.2866
    114  N        -43.5530   32.2560   43.4070 N.3   106  LYS106     -0.1245
    115  CA       -42.1160   32.1110   43.1610 C.3   106  LYS106      0.1561
    116  C        -41.8090   30.6480   43.3410 C.2   106  LYS106      0.2260
    117  O        -42.1570   30.0690   44.3850 O.2   106  LYS106     -0.2867
    118  CB       -41.2300   32.9220   44.1390 C.3   106  LYS106      0.0271
    119  CG       -41.4390   34.4250   44.0730 C.3   106  LYS106      0.0035
    120  CD       -40.2950   35.1810   44.7490 C.3   106  LYS106      0.0206
    121  CE       -40.6960   36.6320   44.9030 C.3   106  LYS106      0.1093
    122  NZ       -39.6400   37.4340   45.5820 N.3   106  LYS106     -0.1314
    123  N        -38.8350   27.2830   41.8460 N.3   108  PHE108     -0.1241
    124  CA       -37.5770   26.9330   41.1690 C.3   108  PHE108      0.1605
    125  C        -37.8010   25.7100   40.2890 C.2   108  PHE108      0.2264
    126  O        -37.9740   24.6190   40.8190 O.2   108  PHE108     -0.2867
    127  CB       -36.4640   26.6870   42.2170 C.3   108  PHE108      0.0534
    128  CG       -36.2850   27.8270   43.1990 C.ar  108  PHE108     -0.0203
    129  CD1      -35.8990   29.0960   42.7620 C.ar  108  PHE108     -0.0042
    130  CD2      -36.5160   27.6350   44.5540 C.ar  108  PHE108     -0.0042
    131  CE1      -35.7230   30.1400   43.6690 C.ar  108  PHE108     -0.0003
    132  CE2      -36.3560   28.6880   45.4610 C.ar  108  PHE108     -0.0003
    133  CZ       -35.9560   29.9340   45.0100 C.ar  108  PHE108     -0.0000
@<TRIPOS>BOND
     1     6     5    1
     2    12    11    1
     3    11     8    1
     4     5     2    1
     5     1     2    1
     6     7     8    1
     7     7     3   am
     8     2     3    1
     9     8     9    1
    10     3     4    2
    11     9    10    2
    12    60    59    2
    13    62    65    1
    14    62    61    1
    15    62    63    1
    16    65    66    1
    17    59    61   am
    18    59    58    1
    19   101    99   ar
    20   101   100   ar
    21    99    97   ar
    22    64    63    2
    23    58    57    1
    24   100    98   ar
    25    97    96   ar
    26    57    53   am
    27    24    23    1
    28    24    25    1
    29    13    14    1
    30    98    96   ar
    31    96    95    1
    32    23    22    1
    33    54    53    2
    34    82    81    2
    35    53    52    1
    36    87    86    2
    37    16    15    2
    38    14    15    1
    39    14    17    1
    40    15    18   am
    41    95    92    1
    42    81    80    1
    43    56    55    1
    44    84    85    1
    45    86    91   am
    46    86    85    1
    47    22    19    1
    48    79    80    1
    49    55    52    1
    50    52    51    1
    51    92    91    1
    52    92    93    1
    53    18    19    1
    54    80    83    1
    55    19    20    1
    56    85    88    1
    57    93    94    2
    58    88    90    1
    59    88    89    1
    60   125   126    2
    61   125   124    1
    62    20    21    2
    63    20    26   am
    64   124   123    1
    65   124   127    1
    66    26    27    1
    67   127   128    1
    68   102   103    1
    69    29    28    2
    70   129   128   ar
    71   129   131   ar
    72    27    28    1
    73    27    30    1
    74   115   116    1
    75   115   114    1
    76   115   118    1
    77   128   130   ar
    78   116   117    2
    79    48    49    2
    80    48    47    1
    81    78    77    1
    82    30    31    1
    83   131   133   ar
    84   103   104    1
    85   103   106    1
    86    75    77   ar
    87    75    73   ar
    88   119   118    1
    89   119   120    1
    90    47    50    1
    91    47    46    1
    92   109   111   ar
    93   109   107   ar
    94    77    76   ar
    95   104   105    2
    96   130   132   ar
    97   111   112   ar
    98   106   107    1
    99    73    72   ar
   100   120   121    1
   101   121   122    1
   102   107   108   ar
   103   133   132   ar
   104   112   113    1
   105   112   110   ar
   106    76    74   ar
   107   108   110   ar
   108    72    74   ar
   109    72    71    1
   110    67    68    1
   111    40    38   ar
   112    40    41   ar
   113    71    68    1
   114    68    69    1
   115    38    37   ar
   116    70    69    2
   117    43    41   ar
   118    43    45   ar
   119    41    39   ar
   120    37    39   ar
   121    37    36    1
   122    45    44   ar
   123    39    42   ar
   124    36    33    1
   125    33    34    1
   126    33    32    1
   127    44    42   ar
   128    34    35    2
