@<TRIPOS>MOLECULE
tmp/5fgbD00.pdb
 116 112 0 0 0
SMALL
GASTEIGER

@<TRIPOS>ATOM
      1  N        -30.8070  -25.3260   40.8840 N.3    30  SER30      -0.1202
      2  CA       -31.2020  -26.6650   40.4210 C.3    30  SER30       0.2020
      3  C        -32.7010  -26.8430   40.1580 C.2    30  SER30       0.2619
      4  O        -33.0840  -27.8280   39.5220 O.2    30  SER30      -0.2717
      5  CB       -30.7040  -27.7340   41.3970 C.3    30  SER30       0.2103
      6  OG       -31.2980  -27.5560   42.6720 O.3    30  SER30      -0.2182
      7  N        -33.5530  -25.9300   40.6660 N.am   31  SER31      -0.1937
      8  CA       -35.0110  -25.9850   40.4650 C.3    31  SER31       0.2055
      9  C        -35.4520  -25.4320   39.1010 C.2    31  SER31       0.2643
     10  O        -36.6390  -25.5390   38.7510 O.2    31  SER31      -0.2714
     11  CB       -35.7260  -25.2070   41.5650 C.3    31  SER31       0.2130
     12  OG       -35.5590  -25.8720   42.8020 O.3    31  SER31      -0.2179
     13  N        -34.5250  -24.8190   38.3490 N.am   32  TYR32      -0.1959
     14  CA       -34.8630  -24.1740   37.0890 C.3    32  TYR32       0.1771
     15  C        -34.1230  -24.7030   35.9100 C.2    32  TYR32       0.2619
     16  O        -32.8990  -24.8560   35.9540 O.2    32  TYR32      -0.2715
     17  CB       -34.5970  -22.6500   37.1700 C.3    32  TYR32       0.0574
     18  CG       -35.5560  -21.9190   38.0740 C.ar   32  TYR32      -0.0198
     19  CD1      -35.3660  -21.8980   39.4540 C.ar   32  TYR32      -0.0009
     20  CD2      -36.6830  -21.2810   37.5550 C.ar   32  TYR32      -0.0009
     21  CE1      -36.2680  -21.2450   40.2980 C.ar   32  TYR32       0.0417
     22  CE2      -37.5820  -20.6170   38.3850 C.ar   32  TYR32       0.0417
     23  CZ       -37.3640  -20.5920   39.7540 C.ar   32  TYR32       0.1957
     24  OH       -38.2600  -19.9330   40.5630 O.3    32  TYR32      -0.2866
     25  N        -34.8660  -24.8780   34.8030 N.am   33  ALA33      -0.1977
     26  CA       -34.2610  -25.1690   33.5210 C.3    33  ALA33       0.1597
     27  C        -33.6090  -23.8230   33.1270 C.2    33  ALA33       0.2287
     28  O        -34.0580  -22.7380   33.5500 O.2    33  ALA33      -0.2864
     29  CB       -35.3250  -25.5500   32.4880 C.3    33  ALA33       0.0319
     30  N        -31.4140  -21.5080   29.8320 N.3    35  SER35      -0.1217
     31  CA       -31.2440  -21.4640   28.3900 C.3    35  SER35       0.1889
     32  C        -30.2380  -20.4160   27.9390 C.2    35  SER35       0.2288
     33  O        -29.9350  -19.4950   28.6900 O.2    35  SER35      -0.2866
     34  CB       -32.5930  -21.2270   27.7230 C.3    35  SER35       0.2089
     35  OG       -32.4770  -21.0490   26.3240 O.3    35  SER35      -0.2183
     36  N        -33.3790  -18.5960   20.0260 N.3    47  TRP47      -0.1241
     37  CA       -33.0970  -19.5570   21.0900 C.3    47  TRP47       0.1605
     38  C        -31.9770  -20.5110   20.5820 C.2    47  TRP47       0.2264
     39  O        -32.0130  -20.9610   19.4220 O.2    47  TRP47      -0.2867
     40  CB       -34.3730  -20.3170   21.4640 C.3    47  TRP47       0.0550
     41  CG       -34.1070  -21.4560   22.3910 C.ar   47  TRP47       0.0003
     42  CD1      -33.9030  -21.3900   23.7390 C.ar   47  TRP47       0.0946
     43  CD2      -34.0380  -22.8510   22.0360 C.ar   47  TRP47       0.0152
     44  NE1      -33.6600  -22.6580   24.2400 N.ar   47  TRP47      -0.2442
     45  CE2      -33.7690  -23.5720   23.2200 C.ar   47  TRP47       0.0810
     46  CE3      -34.1630  -23.5560   20.8190 C.ar   47  TRP47       0.0012
     47  CZ2      -33.6290  -24.9710   23.2310 C.ar   47  TRP47       0.0191
     48  CZ3      -34.0390  -24.9420   20.8290 C.ar   47  TRP47       0.0001
     49  CH2      -33.7440  -25.6330   22.0170 C.ar   47  TRP47       0.0015
     50  N        -31.0100  -25.3270   25.6810 N.3    50  ALA50      -0.1231
     51  CA       -31.6340  -25.4010   26.9980 C.3    50  ALA50       0.1694
     52  C        -31.1690  -26.6400   27.7140 C.2    50  ALA50       0.2592
     53  O        -30.7280  -27.6040   27.0840 O.2    50  ALA50      -0.2718
     54  CB       -33.1450  -25.4270   26.8830 C.3    50  ALA50       0.0304
     55  N        -31.2840  -26.6060   29.0400 N.am   51  ILE51      -0.1966
     56  CA       -30.8750  -27.6940   29.9140 C.3    51  ILE51       0.1727
     57  C        -31.8380  -27.8040   31.0780 C.2    51  ILE51       0.2617
     58  O        -32.2900  -26.7830   31.6220 O.2    51  ILE51      -0.2715
     59  CB       -29.3970  -27.4960   30.3700 C.3    51  ILE51       0.0290
     60  CG1      -28.8640  -28.7420   31.0870 C.3    51  ILE51       0.0022
     61  CG2      -29.1810  -26.1960   31.2050 C.3    51  ILE51       0.0023
     62  CD1      -27.2940  -28.7670   31.2070 C.3    51  ILE51       0.0001
     63  N        -32.1920  -29.0430   31.4320 N.am   52  SER52      -0.1936
     64  CA       -33.0880  -29.2790   32.5560 C.3    52  SER52       0.2055
     65  C        -32.3790  -28.8890   33.8670 C.2    52  SER52       0.2643
     66  O        -31.1460  -28.8440   33.8870 O.2    52  SER52      -0.2714
     67  CB       -33.4830  -30.7540   32.6010 C.3    52  SER52       0.2130
     68  OG       -32.3340  -31.5740   32.7800 O.3    52  SER52      -0.2179
     69  N        -33.1630  -28.6290   34.9340 N.am   53  GLY53      -0.1954
     70  CA       -32.6600  -28.3080   36.2730 C.3    53  GLY53       0.1869
     71  C        -31.5670  -29.2710   36.7500 C.2    53  GLY53       0.2309
     72  O        -30.5520  -28.8350   37.3040 O.2    53  GLY53      -0.2863
     73  N        -30.8950  -29.6460   25.0340 N.3    59  TYR59      -0.1241
     74  CA       -31.6690  -29.3610   23.8160 C.3    59  TYR59       0.1605
     75  C        -30.9630  -28.2780   23.0400 C.2    59  TYR59       0.2264
     76  O        -30.4130  -27.3590   23.6420 O.2    59  TYR59      -0.2867
     77  CB       -33.0850  -28.8790   24.2000 C.3    59  TYR59       0.0534
     78  CG       -33.7880  -29.8190   25.1510 C.ar   59  TYR59      -0.0201
     79  CD1      -33.5560  -29.7570   26.5250 C.ar   59  TYR59      -0.0009
     80  CD2      -34.7070  -30.7590   24.6830 C.ar   59  TYR59      -0.0009
     81  CE1      -34.1540  -30.6630   27.4020 C.ar   59  TYR59       0.0417
     82  CE2      -35.3180  -31.6670   25.5530 C.ar   59  TYR59       0.0417
     83  CZ       -35.0280  -31.6190   26.9110 C.ar   59  TYR59       0.1957
     84  OH       -35.6120  -32.5150   27.7770 O.3    59  TYR59      -0.2866
     85  N        -35.3830  -20.1360   32.7370 N.3    99  ALA99      -0.1245
     86  CA       -36.6490  -20.5210   32.1070 C.3    99  ALA99       0.1562
     87  C        -37.6770  -20.9340   33.1360 C.2    99  ALA99       0.2260
     88  O        -37.3350  -21.5590   34.1420 O.2    99  ALA99      -0.2867
     89  CB       -36.4210  -21.6730   31.1230 C.3    99  ALA99       0.0290
     90  N        -41.0620  -23.1470   33.1100 N.3   101  VAL101     -0.1245
     91  CA       -41.7680  -24.1250   32.2810 C.3   101  VAL101      0.1561
     92  C        -42.8990  -24.6600   33.1690 C.2   101  VAL101      0.2260
     93  O        -42.6310  -25.2500   34.2140 O.2   101  VAL101     -0.2867
     94  CB       -40.8360  -25.2470   31.7250 C.3   101  VAL101      0.0252
     95  CG1      -41.6130  -26.2170   30.8400 C.3   101  VAL101      0.0019
     96  CG2      -39.6450  -24.6560   30.9560 C.3   101  VAL101      0.0019
     97  N        -43.6300  -21.8280   28.2370 N.3   104  LYS104     -0.1245
     98  CA       -42.1840  -21.6930   28.4190 C.3   104  LYS104      0.1561
     99  C        -41.8380  -20.2320   28.1870 C.2   104  LYS104      0.2260
    100  O        -42.1980  -19.6790   27.1480 O.2   104  LYS104     -0.2867
    101  CB       -41.3840  -22.5370   27.4130 C.3   104  LYS104      0.0271
    102  CG       -41.5510  -24.0320   27.5450 C.3   104  LYS104      0.0035
    103  CD       -40.3970  -24.7520   26.8480 C.3   104  LYS104      0.0206
    104  CE       -40.6980  -26.2170   26.7230 C.3   104  LYS104      0.1093
    105  NZ       -39.5950  -26.9350   26.0260 N.3   104  LYS104     -0.1314
    106  N        -38.7920  -16.8540   29.5710 N.3   106  PHE106     -0.1241
    107  CA       -37.5250  -16.5030   30.2420 C.3   106  PHE106      0.1605
    108  C        -37.7310  -15.2790   31.1360 C.2   106  PHE106      0.2264
    109  O        -37.9350  -14.1840   30.6180 O.2   106  PHE106     -0.2867
    110  CB       -36.4280  -16.2570   29.1850 C.3   106  PHE106      0.0534
    111  CG       -36.2770  -17.3810   28.1860 C.ar  106  PHE106     -0.0203
    112  CD1      -35.8680  -18.6500   28.5960 C.ar  106  PHE106     -0.0042
    113  CD2      -36.5110  -17.1680   26.8310 C.ar  106  PHE106     -0.0042
    114  CE1      -35.7070  -19.6780   27.6620 C.ar  106  PHE106     -0.0003
    115  CE2      -36.3370  -18.2000   25.8970 C.ar  106  PHE106     -0.0003
    116  CZ       -35.9380  -19.4470   26.3210 C.ar  106  PHE106     -0.0000
@<TRIPOS>BOND
     1    39    38    2
     2    36    37    1
     3    38    37    1
     4    46    48   ar
     5    46    43   ar
     6    48    49   ar
     7    37    40    1
     8    40    41    1
     9    49    47   ar
    10    43    41   ar
    11    43    45   ar
    12    41    42   ar
    13    75    76    2
    14    75    74    1
    15    45    47   ar
    16    45    44   ar
    17    42    44   ar
    18    74    77    1
    19    74    73    1
    20    77    78    1
    21    80    78   ar
    22    80    82   ar
    23    78    79   ar
    24    82    83   ar
    25    50    51    1
    26   115   116   ar
    27   115   113   ar
    28   105   104    1
    29   116   114   ar
    30    35    34    1
    31    79    81   ar
    32   104   103    1
    33   113   111   ar
    34   103   102    1
    35    54    51    1
    36    83    81   ar
    37    83    84    1
    38    51    52    1
    39    53    52    2
    40   100    99    2
    41   101   102    1
    42   101    98    1
    43   114   112   ar
    44    52    55   am
    45    34    31    1
    46    32    31    1
    47    32    33    2
    48   111   112   ar
    49   111   110    1
    50    99    98    1
    51    97    98    1
    52    31    30    1
    53    55    56    1
    54   110   107    1
    55   106   107    1
    56    56    59    1
    57    56    57    1
    58   107   108    1
    59    59    60    1
    60    59    61    1
    61   109   108    2
    62    95    94    1
    63    96    94    1
    64    57    63   am
    65    57    58    2
    66    60    62    1
    67    89    86    1
    68    63    64    1
    69    94    91    1
    70    86    85    1
    71    86    87    1
    72    91    90    1
    73    91    92    1
    74    29    26    1
    75    64    67    1
    76    64    65    1
    77    67    68    1
    78    27    26    1
    79    27    28    2
    80    87    88    2
    81    92    93    2
    82    26    25    1
    83    65    66    2
    84    65    69   am
    85    25    15   am
    86    69    70    1
    87    15    16    2
    88    15    14    1
    89    70    71    1
    90    71    72    2
    91    14    17    1
    92    14    13    1
    93    17    18    1
    94    20    18   ar
    95    20    22   ar
    96    18    19   ar
    97    13     9   am
    98    22    23   ar
    99    10     9    2
   100     9     8    1
   101    19    21   ar
   102     4     3    2
   103    23    21   ar
   104    23    24    1
   105     3     2    1
   106     3     7   am
   107     2     1    1
   108     2     5    1
   109     8     7    1
   110     8    11    1
   111     5     6    1
   112    11    12    1
