@<TRIPOS>MOLECULE
tmp/5fgcC00.pdb
 182 178 0 0 0
SMALL
GASTEIGER

@<TRIPOS>ATOM
      1  N         -1.4460   -4.9470   34.9920 N.3    30  TYR30      -0.1227
      2  CA        -0.7470   -4.5690   33.7610 C.3    30  TYR30       0.1736
      3  C         -0.1420   -3.1580   33.8520 C.2    30  TYR30       0.2596
      4  O          0.8050   -2.8630   33.1250 O.2    30  TYR30      -0.2718
      5  CB        -1.6990   -4.6610   32.5430 C.3    30  TYR30       0.0548
      6  CG        -1.7580   -6.0260   31.8880 C.ar   30  TYR30      -0.0200
      7  CD1       -2.4990   -7.0620   32.4540 C.ar   30  TYR30      -0.0009
      8  CD2       -1.1250   -6.2640   30.6710 C.ar   30  TYR30      -0.0009
      9  CE1       -2.5750   -8.3160   31.8430 C.ar   30  TYR30       0.0417
     10  CE2       -1.1990   -7.5100   30.0470 C.ar   30  TYR30       0.0417
     11  CZ        -1.9270   -8.5330   30.6360 C.ar   30  TYR30       0.1957
     12  OH        -1.9810   -9.7650   30.0310 O.3    30  TYR30      -0.2866
     13  N         -0.6880   -2.2780   34.7310 N.am   31  THR31      -0.1939
     14  CA        -0.1790   -0.8990   34.8930 C.3    31  THR31       0.2028
     15  C          0.6560   -0.6650   36.1490 C.2    31  THR31       0.2642
     16  O          0.9730    0.4950   36.4700 O.2    31  THR31      -0.2714
     17  CB        -1.3140    0.1410   34.8660 C.3    31  THR31       0.1808
     18  OG1       -2.2360   -0.1520   35.9100 O.3    31  THR31      -0.2208
     19  CG2       -2.0050    0.2470   33.5210 C.3    31  THR31       0.0379
     20  N          1.0110   -1.7320   36.8710 N.am   32  TYR32      -0.1959
     21  CA         1.7540   -1.5270   38.1110 C.3    32  TYR32       0.1771
     22  C          3.0470   -2.2880   38.2020 C.2    32  TYR32       0.2619
     23  O          3.0890   -3.4840   37.8760 O.2    32  TYR32      -0.2715
     24  CB         0.8730   -1.8860   39.3440 C.3    32  TYR32       0.0574
     25  CG        -0.1950   -0.8690   39.6760 C.ar   32  TYR32      -0.0198
     26  CD1        0.0910    0.2400   40.4690 C.ar   32  TYR32      -0.0009
     27  CD2       -1.5050   -1.0380   39.2410 C.ar   32  TYR32      -0.0009
     28  CE1       -0.8870    1.1890   40.7660 C.ar   32  TYR32       0.0417
     29  CE2       -2.4890   -0.0930   39.5250 C.ar   32  TYR32       0.0417
     30  CZ        -2.1830    1.0080   40.3100 C.ar   32  TYR32       0.1957
     31  OH        -3.1560    1.9340   40.6230 O.3    32  TYR32      -0.2866
     32  N          4.0950   -1.6160   38.7250 N.am   33  ALA33      -0.1977
     33  CA         5.3440   -2.2950   39.0740 C.3    33  ALA33       0.1597
     34  C          4.9810   -3.0900   40.3450 C.2    33  ALA33       0.2287
     35  O          4.1260   -2.6430   41.1280 O.2    33  ALA33      -0.2864
     36  CB         6.4620   -1.3010   39.3830 C.3    33  ALA33       0.0319
     37  N          6.6560   -5.4900   43.6290 N.3    35  THR35      -0.1218
     38  CA         7.8890   -5.5830   44.4030 C.3    35  THR35       0.1862
     39  C          7.8770   -6.6090   45.5440 C.2    35  THR35       0.2287
     40  O          6.8030   -7.0730   45.9660 O.2    35  THR35      -0.2866
     41  CB         8.1830   -4.1340   44.8700 C.3    35  THR35       0.1770
     42  OG1        8.5510   -3.3480   43.7430 O.3    35  THR35      -0.2211
     43  CG2        9.2380   -4.0270   45.9310 C.3    35  THR35       0.0375
     44  N         14.1660   -3.0280   50.8320 N.3    47  TRP47      -0.1241
     45  CA        13.6900   -3.3260   49.4840 C.3    47  TRP47       0.1605
     46  C         14.5820   -4.4140   48.8810 C.2    47  TRP47       0.2264
     47  O         15.8100   -4.3470   48.9960 O.2    47  TRP47      -0.2867
     48  CB        13.7000   -2.0720   48.6110 C.3    47  TRP47       0.0550
     49  CG        13.4370   -2.3680   47.1720 C.ar   47  TRP47       0.0003
     50  CD1       12.2510   -2.7340   46.6160 C.ar   47  TRP47       0.0946
     51  CD2       14.4170   -2.4570   46.1370 C.ar   47  TRP47       0.0152
     52  NE1       12.4280   -3.0300   45.2860 N.ar   47  TRP47      -0.2442
     53  CE2       13.7390   -2.8060   44.9490 C.ar   47  TRP47       0.0810
     54  CE3       15.7960   -2.1720   46.0690 C.ar   47  TRP47       0.0012
     55  CZ2       14.3950   -2.9100   43.7080 C.ar   47  TRP47       0.0191
     56  CZ3       16.4440   -2.2970   44.8430 C.ar   47  TRP47       0.0001
     57  CH2       15.7450   -2.6700   43.6850 C.ar   47  TRP47       0.0015
     58  N         12.2800   -5.5170   42.2780 N.3    50  ALA50      -0.1245
     59  CA        11.1390   -4.9880   41.5250 C.3    50  ALA50       0.1562
     60  C         11.0740   -5.5250   40.0960 C.2    50  ALA50       0.2260
     61  O         12.0960   -5.8630   39.5040 O.2    50  ALA50      -0.2867
     62  CB        11.1350   -3.4710   41.5210 C.3    50  ALA50       0.0290
     63  N          9.0470   -4.4280   36.4160 N.3    52  SER52      -0.1202
     64  CA         8.2360   -3.4020   35.7530 C.3    52  SER52       0.2020
     65  C          6.9850   -4.0760   35.1580 C.2    52  SER52       0.2619
     66  O          7.0100   -5.2730   34.8960 O.2    52  SER52      -0.2717
     67  CB         9.0300   -2.6680   34.6640 C.3    52  SER52       0.2103
     68  OG         9.9650   -1.7900   35.2760 O.3    52  SER52      -0.2182
     69  N          5.9160   -3.3150   34.9160 N.am   53  SER53      -0.1951
     70  CA         4.6380   -3.8670   34.4610 C.3    53  SER53       0.1924
     71  C          4.5490   -4.5930   33.1300 C.2    53  SER53       0.2314
     72  O          3.8080   -5.5780   33.0720 O.2    53  SER53      -0.2863
     73  CB         3.5260   -2.8440   34.5870 C.3    53  SER53       0.2116
     74  OG         3.7720   -1.7940   33.6740 O.3    53  SER53      -0.2180
     75  N          7.5510   -4.2380   30.2070 N.3    55  ASP55      -0.1239
     76  CA         8.7950   -4.3800   29.4180 C.3    55  ASP55       0.1674
     77  C          9.7670   -5.5210   29.8030 C.2    55  ASP55       0.2266
     78  O         10.8180   -5.6690   29.1660 O.2    55  ASP55      -0.2867
     79  CB         9.5160   -3.0230   29.2550 C.3    55  ASP55       0.1410
     80  CG        10.2390   -2.4990   30.4890 C.2    55  ASP55       0.3668
     81  OD1       10.1980   -3.1730   31.5430 O.co2  55  ASP55      -0.2456
     82  OD2       10.8810   -1.4420   30.3890 O.co2  55  ASP55      -0.2456
     83  N         14.8720   -5.4940   38.7470 N.3    59  TYR59      -0.1241
     84  CA        15.7410   -4.6720   39.5980 C.3    59  TYR59       0.1605
     85  C         15.9890   -5.3410   40.9350 C.2    59  TYR59       0.2264
     86  O         15.0870   -5.9790   41.4800 O.2    59  TYR59      -0.2867
     87  CB        15.1280   -3.2650   39.7720 C.3    59  TYR59       0.0534
     88  CG        14.6820   -2.6520   38.4480 C.ar   59  TYR59      -0.0201
     89  CD1       13.4450   -2.9710   37.8890 C.ar   59  TYR59      -0.0009
     90  CD2       15.4900   -1.7460   37.7670 C.ar   59  TYR59      -0.0009
     91  CE1       13.0520   -2.4550   36.6500 C.ar   59  TYR59       0.0417
     92  CE2       15.1010   -1.2070   36.5300 C.ar   59  TYR59       0.0417
     93  CZ        13.8670   -1.5450   35.9910 C.ar   59  TYR59       0.1957
     94  OH        13.4450   -0.9990   34.8050 O.3    59  TYR59      -0.2866
     95  N          3.7900   -1.2120   43.8310 N.3    99  ALA99      -0.1231
     96  CA         4.4770    0.0660   43.8590 C.3    99  ALA99       0.1694
     97  C          3.8990    1.0740   42.9080 C.2    99  ALA99       0.2592
     98  O          3.2690    0.7230   41.9030 O.2    99  ALA99      -0.2718
     99  CB         5.9570   -0.1180   43.5940 C.3    99  ALA99       0.0304
    100  N          4.1120    2.3600   43.2450 N.am  100  VAL100     -0.1966
    101  CA         3.7070    3.4940   42.4230 C.3   100  VAL100      0.1727
    102  C          4.9980    4.2850   42.1010 C.2   100  VAL100      0.2616
    103  O          5.7160    4.6930   43.0220 O.2   100  VAL100     -0.2715
    104  CB         2.5990    4.3520   43.1000 C.3   100  VAL100      0.0290
    105  CG1        2.0750    5.4120   42.1390 C.3   100  VAL100      0.0023
    106  CG2        1.4440    3.4780   43.5870 C.3   100  VAL100      0.0023
    107  N          5.3130    4.4440   40.7840 N.am  101  VAL101     -0.1963
    108  CA         6.5170    5.1240   40.2850 C.3   101  VAL101      0.1727
    109  C          6.0580    6.3330   39.4540 C.2   101  VAL101      0.2616
    110  O          5.2400    6.1530   38.5510 O.2   101  VAL101     -0.2715
    111  CB         7.4510    4.1570   39.4950 C.3   101  VAL101      0.0290
    112  CG1        8.7330    4.8620   39.0660 C.3   101  VAL101      0.0023
    113  CG2        7.7870    2.9130   40.3180 C.3   101  VAL101      0.0023
    114  N          6.5500    7.5590   39.7700 N.am  102  PHE102     -0.1960
    115  CA         6.0400    8.7680   39.1120 C.3   102  PHE102      0.1771
    116  C          6.8000    9.5890   38.0910 C.2   102  PHE102      0.2620
    117  O          8.0110    9.8010   38.1910 O.2   102  PHE102     -0.2715
    118  CB         5.3720    9.7010   40.1050 C.3   102  PHE102      0.0574
    119  CG         3.8760    9.5160   40.1470 C.ar  102  PHE102     -0.0200
    120  CD1        3.0460   10.2230   39.2820 C.ar  102  PHE102     -0.0042
    121  CD2        3.2930    8.6580   41.0710 C.ar  102  PHE102     -0.0042
    122  CE1        1.6580   10.0550   39.3250 C.ar  102  PHE102     -0.0003
    123  CE2        1.9040    8.5150   41.1330 C.ar  102  PHE102     -0.0003
    124  CZ         1.0980    9.1920   40.2420 C.ar  102  PHE102     -0.0000
    125  N          5.9710   10.1360   37.1480 N.am  103  THR103     -0.1937
    126  CA         6.1550   11.0530   36.0310 C.3   103  THR103      0.2028
    127  C          7.2180   12.1250   36.2750 C.2   103  THR103      0.2642
    128  O          6.9780   13.1350   36.9490 O.2   103  THR103     -0.2714
    129  CB         4.7890   11.6890   35.6650 C.3   103  THR103      0.1808
    130  OG1        3.7310   10.7720   35.9760 O.3   103  THR103     -0.2208
    131  CG2        4.7150   12.1350   34.1910 C.3   103  THR103      0.0379
    132  N          8.3840   11.8900   35.6770 N.am  104  ASP104     -0.1971
    133  CA         9.5780   12.7240   35.7330 C.3   104  ASP104      0.1709
    134  C         10.0880   13.0170   34.2900 C.2   104  ASP104      0.2293
    135  O         10.3120   12.0790   33.5210 O.2   104  ASP104     -0.2864
    136  CB        10.6480   12.0530   36.6440 C.3   104  ASP104      0.1436
    137  CG        10.8360   10.5250   36.5540 C.2   104  ASP104      0.3671
    138  OD1        9.9700    9.8400   35.9520 O.co2 104  ASP104     -0.2456
    139  OD2       11.8460   10.0210   37.0820 O.co2 104  ASP104     -0.2456
    140  N         12.9320   14.0160   32.9780 N.3   106  SER106     -0.1202
    141  CA        14.1950   13.2910   32.8390 C.3   106  SER106      0.2020
    142  C         14.2620   12.3690   34.0860 C.2   106  SER106      0.2618
    143  O         13.2920   12.3240   34.8440 O.2   106  SER106     -0.2717
    144  CB        15.3700   14.2690   32.8180 C.3   106  SER106      0.2103
    145  OG        15.2460   15.2310   31.7840 O.3   106  SER106     -0.2182
    146  N         15.3750   11.6430   34.3090 N.am  107  ALA107     -0.1979
    147  CA        15.5180   10.7850   35.4920 C.3   107  ALA107      0.1597
    148  C         16.0320   11.6340   36.6870 C.2   107  ALA107      0.2287
    149  O         15.6580   12.8080   36.7820 O.2   107  ALA107     -0.2864
    150  CB        16.4560    9.6200   35.1880 C.3   107  ALA107      0.0319
    151  N         12.8330   11.0030   41.5710 N.3   110  TYR110     -0.1241
    152  CA        11.9200    9.8520   41.6650 C.3   110  TYR110      0.1605
    153  C         11.0390    9.8200   42.8930 C.2   110  TYR110      0.2264
    154  O         11.4940   10.1080   44.0030 O.2   110  TYR110     -0.2867
    155  CB        12.6810    8.5220   41.5770 C.3   110  TYR110      0.0534
    156  CG        12.9620    8.0480   40.1720 C.ar  110  TYR110     -0.0201
    157  CD1       12.0370    7.2740   39.4790 C.ar  110  TYR110     -0.0009
    158  CD2       14.1720    8.3370   39.5470 C.ar  110  TYR110     -0.0009
    159  CE1       12.3020    6.8120   38.1890 C.ar  110  TYR110      0.0417
    160  CE2       14.4530    7.8710   38.2620 C.ar  110  TYR110      0.0417
    161  CZ        13.5130    7.1120   37.5850 C.ar  110  TYR110      0.1957
    162  OH        13.7840    6.6610   36.3140 O.3   110  TYR110     -0.2866
    163  N          8.8730    6.8430   44.4110 N.3   112  LYS112     -0.1245
    164  CA         8.4830    5.4360   44.4430 C.3   112  LYS112      0.1561
    165  C          7.9420    5.1330   45.8260 C.2   112  LYS112      0.2260
    166  O          8.6070    5.4240   46.8220 O.2   112  LYS112     -0.2867
    167  CB         9.6540    4.4900   44.1180 C.3   112  LYS112      0.0271
    168  CG        10.2180    4.6370   42.7150 C.3   112  LYS112      0.0035
    169  CD        11.2760    3.5880   42.4370 C.3   112  LYS112      0.0206
    170  CE        12.1490    4.0000   41.2800 C.3   112  LYS112      0.1093
    171  NZ        13.2370    3.0210   41.0510 N.3   112  LYS112     -0.1314
    172  N          5.0740    2.2010   48.1480 N.3   114  PHE114     -0.1241
    173  CA         4.3660    0.9090   48.2230 C.3   114  PHE114      0.1605
    174  C          3.0100    1.1470   48.8770 C.2   114  PHE114      0.2264
    175  O          2.9340    1.3710   50.0900 O.2   114  PHE114     -0.2867
    176  CB         5.1960   -0.1420   48.9890 C.3   114  PHE114      0.0534
    177  CG         6.6350   -0.2360   48.5410 C.ar  114  PHE114     -0.0203
    178  CD1        6.9830   -0.9720   47.4180 C.ar  114  PHE114     -0.0042
    179  CD2        7.6420    0.4220   49.2340 C.ar  114  PHE114     -0.0042
    180  CE1        8.3140   -1.0530   47.0080 C.ar  114  PHE114     -0.0003
    181  CE2        8.9720    0.3530   48.8060 C.ar  114  PHE114     -0.0003
    182  CZ         9.2990   -0.4000   47.7080 C.ar  114  PHE114     -0.0000
@<TRIPOS>BOND
     1    78    77    2
     2    79    76    1
     3    79    80    1
     4    76    77    1
     5    76    75    1
     6    12    11    1
     7    10    11   ar
     8    10     8   ar
     9    82    80   ar
    10    80    81   ar
    11    11     9   ar
    12     8     6   ar
    13   145   144    1
    14     9     7   ar
    15     6     7   ar
    16     6     5    1
    17     5     2    1
    18   144   141    1
    19   141   140    1
    20   141   142    1
    21    72    71    2
    22     4     3    2
    23    71    70    1
    24    19    17    1
    25   135   134    2
    26    74    73    1
    27     2     3    1
    28     2     1    1
    29     3    13   am
    30   142   146   am
    31   142   143    2
    32   131   129    1
    33   134   133    1
    34   146   147    1
    35    70    73    1
    36    70    69    1
    37    67    68    1
    38    67    64    1
    39    13    14    1
    40    94    93    1
    41    17    14    1
    42    17    18    1
    43    14    15    1
    44    66    65    2
    45    69    65   am
    46    65    64    1
    47   150   147    1
    48   147   148    1
    49   129   130    1
    50   129   126    1
    51   132   133    1
    52   132   127   am
    53   133   136    1
    54    64    63    1
    55   138   137   ar
    56    93    92   ar
    57    93    91   ar
    58   126   127    1
    59   126   125    1
    60    15    16    2
    61    15    20   am
    62   127   128    2
    63   162   161    1
    64    92    90   ar
    65   137   136    1
    66   137   139   ar
    67    91    89   ar
    68   148   149    2
    69    20    21    1
    70   125   116   am
    71   161   159   ar
    72   161   160   ar
    73    90    88   ar
    74    23    22    2
    75    89    88   ar
    76   116   117    2
    77   116   115    1
    78    21    22    1
    79    21    24    1
    80   159   157   ar
    81    22    32   am
    82   160   158   ar
    83    88    87    1
    84   110   109    2
    85    32    33    1
    86    83    84    1
    87   112   111    1
    88    33    36    1
    89    33    34    1
    90   115   114    1
    91   115   118    1
    92    27    29   ar
    93    27    25   ar
    94   120   122   ar
    95   120   119   ar
    96   122   124   ar
    97    24    25    1
    98   109   114   am
    99   109   108    1
   100   157   156   ar
   101   111   108    1
   102   111   113    1
   103    61    60    2
   104    29    30   ar
   105   158   156   ar
   106    84    87    1
   107    84    85    1
   108    25    26   ar
   109    60    59    1
   110   118   119    1
   111   119   121   ar
   112   156   155    1
   113   124   123   ar
   114   108   107    1
   115    30    31    1
   116    30    28   ar
   117    34    35    2
   118    26    28   ar
   119   107   102   am
   120    85    86    2
   121   171   170    1
   122   121   123   ar
   123   170   169    1
   124    62    59    1
   125    59    58    1
   126   151   152    1
   127   155   152    1
   128   152   153    1
   129    98    97    2
   130   102   101    1
   131   102   103    2
   132   105   104    1
   133   101   104    1
   134   101   100    1
   135   169   168    1
   136   168   167    1
   137   153   154    2
   138    97   100   am
   139    97    96    1
   140   104   106    1
   141    99    96    1
   142    37    38    1
   143    57    55   ar
   144    57    56   ar
   145    55    53   ar
   146    42    41    1
   147    95    96    1
   148   167   164    1
   149    38    41    1
   150    38    39    1
   151   163   164    1
   152   164   165    1
   153    56    54   ar
   154    41    43    1
   155    53    52   ar
   156    53    51   ar
   157    52    50   ar
   158    39    40    2
   159   165   166    2
   160    54    51   ar
   161    51    49   ar
   162    50    49   ar
   163   180   178   ar
   164   180   182   ar
   165    49    48    1
   166   178   177   ar
   167   182   181   ar
   168   172   173    1
   169   173   174    1
   170   173   176    1
   171   177   176    1
   172   177   179   ar
   173    48    45    1
   174   181   179   ar
   175   174   175    2
   176    46    47    2
   177    46    45    1
   178    45    44    1
