@<TRIPOS>MOLECULE
tmp/5fgdW00.pdb
 107 103 0 0 0
SMALL
GASTEIGER

@<TRIPOS>ATOM
      1  N         14.9050 -160.0100   20.7160 N.3     4  SER4       -0.1217
      2  CA        13.4440 -160.0900   20.6190 C.3     4  SER4        0.1889
      3  C         12.7910 -158.9530   19.8210 C.2     4  SER4        0.2288
      4  O         11.6000 -159.0290   19.5180 O.2     4  SER4       -0.2866
      5  CB        12.8200 -160.1750   22.0200 C.3     4  SER4        0.2089
      6  OG        13.8220 -160.1240   23.0420 O.3     4  SER4       -0.2183
      7  N         17.4100 -173.0700   29.5290 N.3    98  ARG98      -0.1245
      8  CA        17.2130 -172.0090   30.5230 C.3    98  ARG98       0.1563
      9  C         18.3400 -170.9720   30.5500 C.2    98  ARG98       0.2260
     10  O         18.0770 -169.7820   30.7310 O.2    98  ARG98      -0.2867
     11  CB        17.0260 -172.6300   31.9150 C.3    98  ARG98       0.0307
     12  CG        17.0590 -171.6560   33.0840 C.3    98  ARG98       0.0489
     13  CD        15.9210 -170.6500   33.0330 C.3    98  ARG98       0.2205
     14  NE        15.9320 -169.7850   34.2110 N.pl3  98  ARG98      -0.0865
     15  CZ        16.6880 -168.6980   34.3610 C.cat  98  ARG98       0.5346
     16  NH1       16.6110 -167.9940   35.4860 N.pl3  98  ARG98       0.1354
     17  NH2       17.5200 -168.3020   33.4000 N.pl3  98  ARG98       0.1354
     18  N         18.6460 -169.3110   26.1850 N.3   101  PRO101     -0.2116
     19  CA        17.2760 -169.4690   25.6990 C.3   101  PRO101      0.1372
     20  C         17.0250 -169.0520   24.2590 C.2   101  PRO101      0.2244
     21  O         17.7640 -168.2420   23.6950 O.2   101  PRO101     -0.2868
     22  CB        16.4740 -168.5650   26.6400 C.3   101  PRO101      0.0268
     23  CG        17.4370 -167.5010   27.0280 C.3   101  PRO101      0.0207
     24  CD        18.7490 -168.2140   27.1660 C.3   101  PRO101      0.0892
     25  N         14.9640 -166.8290   21.9160 N.3   103  PHE103     -0.1227
     26  CA        14.3740 -165.5130   22.1400 C.3   103  PHE103      0.1736
     27  C         13.0270 -165.4290   21.4420 C.2   103  PHE103      0.2595
     28  O         12.9020 -164.8520   20.3610 O.2   103  PHE103     -0.2718
     29  CB        15.3310 -164.4220   21.6660 C.3   103  PHE103      0.0547
     30  CG        16.6260 -164.4090   22.4190 C.ar  103  PHE103     -0.0202
     31  CD1       16.6880 -163.8730   23.6960 C.ar  103  PHE103     -0.0042
     32  CD2       17.7750 -164.9550   21.8660 C.ar  103  PHE103     -0.0042
     33  CE1       17.8760 -163.8660   24.4050 C.ar  103  PHE103     -0.0003
     34  CE2       18.9680 -164.9510   22.5690 C.ar  103  PHE103     -0.0003
     35  CZ        19.0180 -164.4070   23.8410 C.ar  103  PHE103     -0.0000
     36  N         12.0230 -166.0260   22.0790 N.am  104  VAL104     -0.1966
     37  CA        10.6970 -166.1710   21.4850 C.3   104  VAL104      0.1727
     38  C          9.5610 -165.9040   22.4720 C.2   104  VAL104      0.2616
     39  O          9.7560 -165.9110   23.6890 O.2   104  VAL104     -0.2715
     40  CB        10.4980 -167.5860   20.8970 C.3   104  VAL104      0.0290
     41  CG1       11.4300 -167.8100   19.7160 C.3   104  VAL104      0.0023
     42  CG2       10.7120 -168.6550   21.9640 C.3   104  VAL104      0.0023
     43  N          8.3730 -165.6790   21.9180 N.am  105  GLY105     -0.1955
     44  CA         7.1510 -165.4910   22.6970 C.3   105  GLY105      0.1869
     45  C          6.0300 -166.3160   22.0890 C.2   105  GLY105      0.2309
     46  O          5.1770 -165.7790   21.3770 O.2   105  GLY105     -0.2863
     47  N          3.5700 -168.1620   26.6310 N.3   123  PHE123     -0.1227
     48  CA         4.8060 -168.4620   27.3520 C.3   123  PHE123      0.1736
     49  C          5.7720 -167.2920   27.3160 C.2   123  PHE123      0.2595
     50  O          5.6940 -166.4370   26.4330 O.2   123  PHE123     -0.2718
     51  CB         5.5260 -169.6710   26.7480 C.3   123  PHE123      0.0547
     52  CG         4.6270 -170.8270   26.4350 C.ar  123  PHE123     -0.0202
     53  CD1        3.8460 -170.8180   25.2920 C.ar  123  PHE123     -0.0042
     54  CD2        4.5780 -171.9320   27.2690 C.ar  123  PHE123     -0.0042
     55  CE1        3.0180 -171.8800   24.9920 C.ar  123  PHE123     -0.0003
     56  CE2        3.7530 -173.0020   26.9740 C.ar  123  PHE123     -0.0003
     57  CZ         2.9720 -172.9760   25.8320 C.ar  123  PHE123     -0.0000
     58  N          6.6880 -167.2740   28.2800 N.am  124  ASP124     -0.1960
     59  CA         7.8700 -166.4260   28.1930 C.3   124  ASP124      0.1840
     60  C          8.9950 -167.2550   27.5650 C.2   124  ASP124      0.2622
     61  O          8.8190 -168.4470   27.3010 O.2   124  ASP124     -0.2715
     62  CB         8.2530 -165.8260   29.5620 C.3   124  ASP124      0.1450
     63  CG         8.7440 -166.8630   30.5710 C.2   124  ASP124      0.3671
     64  OD1        8.7720 -168.0720   30.2570 O.co2 124  ASP124     -0.2456
     65  OD2        9.0980 -166.4540   31.7000 O.co2 124  ASP124     -0.2456
     66  N         10.1390 -166.6240   27.3200 N.am  125  LEU125     -0.1963
     67  CA        11.2270 -167.2600   26.5640 C.3   125  LEU125      0.1728
     68  C         11.8590 -168.4870   27.2400 C.2   125  LEU125      0.2616
     69  O         12.5120 -169.2870   26.5700 O.2   125  LEU125     -0.2715
     70  CB        12.3110 -166.2340   26.2030 C.3   125  LEU125      0.0311
     71  CG        13.3390 -165.7920   27.2500 C.3   125  LEU125      0.0022
     72  CD1       14.3970 -164.9310   26.5800 C.3   125  LEU125      0.0001
     73  CD2       12.6960 -165.0360   28.4000 C.3   125  LEU125      0.0001
     74  N         11.6620 -168.6380   28.5490 N.am  126  ILE126     -0.1977
     75  CA        12.2040 -169.7890   29.2850 C.3   126  ILE126      0.1596
     76  C         11.1320 -170.8040   29.7080 C.2   126  ILE126      0.2287
     77  O         11.4210 -171.7380   30.4560 O.2   126  ILE126     -0.2864
     78  CB        13.0550 -169.3530   30.5030 C.3   126  ILE126      0.0276
     79  CG1       12.3140 -168.3200   31.3580 C.3   126  ILE126      0.0022
     80  CG2       14.3870 -168.7900   30.0260 C.3   126  ILE126      0.0022
     81  CD1       12.9400 -168.0880   32.7150 C.3   126  ILE126      0.0001
     82  N          7.7450 -170.3890   31.0680 N.3   128  CYS128     -0.1221
     83  CA         6.6650 -170.1530   32.0300 C.3   128  CYS128      0.1808
     84  C          5.3280 -170.1370   31.3050 C.2   128  CYS128      0.2601
     85  O          5.1710 -169.4260   30.3170 O.2   128  CYS128     -0.2717
     86  CB         6.8420 -168.8290   32.7690 C.3   128  CYS128      0.0970
     87  SG         5.5940 -168.5730   34.0530 S.3   128  CYS128     -0.0800
     88  N          4.3700 -170.9180   31.7970 N.am  129  ILE129     -0.1965
     89  CA         3.0580 -171.0050   31.1630 C.3   129  ILE129      0.1727
     90  C          2.1360 -169.9150   31.7000 C.2   129  ILE129      0.2616
     91  O          2.0700 -169.6700   32.9050 O.2   129  ILE129     -0.2715
     92  CB         2.4010 -172.3890   31.3630 C.3   129  ILE129      0.0290
     93  CG1        3.3090 -173.4900   30.8070 C.3   129  ILE129      0.0022
     94  CG2        1.0470 -172.4460   30.6610 C.3   129  ILE129      0.0023
     95  CD1        2.9090 -174.8880   31.2200 C.3   129  ILE129      0.0001
     96  N          1.4360 -169.2660   30.7760 N.am  130  ASP130     -0.1971
     97  CA         0.4220 -168.2730   31.0910 C.3   130  ASP130      0.1709
     98  C         -0.8820 -168.7510   30.4600 C.2   130  ASP130      0.2293
     99  O         -1.1460 -168.4910   29.2840 O.2   130  ASP130     -0.2864
    100  CB         0.8440 -166.9030   30.5420 C.3   130  ASP130      0.1436
    101  CG        -0.2220 -165.8270   30.7270 C.2   130  ASP130      0.3671
    102  OD1       -1.1560 -166.0190   31.5380 O.co2 130  ASP130     -0.2456
    103  OD2       -0.1170 -164.7780   30.0550 O.co2 130  ASP130     -0.2456
    104  N          4.6430 -160.3000   21.3500 N.3   139  GLY139     -0.1225
    105  CA         5.3450 -159.5430   20.3230 C.3   139  GLY139      0.1811
    106  C          5.7690 -158.1520   20.7440 C.2   139  GLY139      0.2280
    107  O          5.6600 -157.7720   21.9110 O.2   139  GLY139     -0.2866
@<TRIPOS>BOND
     1     4     3    2
     2    41    40    1
     3     3     2    1
     4   105   106    1
     5   105   104    1
     6    28    27    2
     7     2     1    1
     8     2     5    1
     9   106   107    2
    10    40    37    1
    11    40    42    1
    12    46    45    2
    13    27    36   am
    14    27    26    1
    15    37    36    1
    16    37    38    1
    17    29    26    1
    18    29    30    1
    19    32    30   ar
    20    32    34   ar
    21    25    26    1
    22    43    38   am
    23    43    44    1
    24     5     6    1
    25    45    44    1
    26    30    31   ar
    27    38    39    2
    28    34    35   ar
    29    21    20    2
    30    31    33   ar
    31    35    33   ar
    32    20    19    1
    33    55    53   ar
    34    55    57   ar
    35    53    52   ar
    36    19    18    1
    37    19    22    1
    38    57    56   ar
    39    18    24    1
    40    70    67    1
    41    70    71    1
    42    50    49    2
    43    52    51    1
    44    52    54   ar
    45    67    68    1
    46    67    66    1
    47    69    68    2
    48    72    71    1
    49    47    48    1
    50    22    23    1
    51    51    48    1
    52    56    54   ar
    53    23    24    1
    54    68    74   am
    55    71    73    1
    56    61    60    2
    57    49    48    1
    58    49    58   am
    59    66    60   am
    60    60    59    1
    61    59    58    1
    62    59    62    1
    63    74    75    1
    64    99    98    2
    65    75    76    1
    66    75    78    1
    67     7     8    1
    68    62    63    1
    69    76    77    2
    70    80    78    1
    71   103   101   ar
    72    64    63   ar
    73    85    84    2
    74    98    97    1
    75    78    79    1
    76     8     9    1
    77     8    11    1
    78   100   101    1
    79   100    97    1
    80     9    10    2
    81    63    65   ar
    82    94    92    1
    83   101   102   ar
    84    96    97    1
    85    96    90   am
    86    93    95    1
    87    93    92    1
    88    82    83    1
    89    89    92    1
    90    89    90    1
    91    89    88    1
    92    84    88   am
    93    84    83    1
    94    79    81    1
    95    90    91    2
    96    11    12    1
    97    83    86    1
    98    86    87    1
    99    13    12    1
   100    13    14    1
   101    17    15    1
   102    14    15    2
   103    15    16    1
