@<TRIPOS>MOLECULE
tmp/5fgfV00.pdb
 148 141 0 0 0
SMALL
GASTEIGER

@<TRIPOS>ATOM
      1  N          5.1230 -160.3860   42.9600 N.3     1  THR1       -0.1218
      2  CA         4.4440 -161.3310   43.9380 C.3     1  THR1        0.1862
      3  C          4.4160 -161.0130   45.4600 C.2     1  THR1        0.2287
      4  O          5.3510 -160.4220   46.0030 O.2     1  THR1       -0.2866
      5  CB         5.1330 -162.6890   43.8270 C.3     1  THR1        0.1770
      6  OG1        5.0030 -163.1160   42.4910 O.3     1  THR1       -0.2211
      7  CG2        4.5130 -163.7930   44.6880 C.3     1  THR1        0.0375
      8  N         -1.0670 -162.2140   40.6330 N.3    19  ARG19      -0.1231
      9  CA        -0.5630 -161.3520   39.5620 C.3    19  ARG19       0.1694
     10  C          0.7440 -161.8980   38.9980 C.2    19  ARG19       0.2593
     11  O          1.6120 -162.3390   39.7440 O.2    19  ARG19      -0.2718
     12  CB        -0.3480 -159.9170   40.0510 C.3    19  ARG19       0.0321
     13  CG         0.1130 -158.9690   38.9510 C.3    19  ARG19       0.0489
     14  CD         0.1570 -157.5270   39.4240 C.3    19  ARG19       0.2205
     15  NE        -1.1750 -156.9360   39.5060 N.pl3  19  ARG19      -0.0865
     16  CZ        -1.4270 -155.6890   39.8960 C.cat  19  ARG19       0.5346
     17  NH1       -0.4360 -154.8760   40.2480 N.pl3  19  ARG19       0.1354
     18  NH2       -2.6800 -155.2520   39.9360 N.pl3  19  ARG19       0.1354
     19  N          0.8680 -161.8550   37.6760 N.am   20  SER20      -0.1938
     20  CA         2.0970 -162.2200   36.9840 C.3    20  SER20       0.2055
     21  C          2.4910 -161.0460   36.0960 C.2    20  SER20       0.2644
     22  O          1.7030 -160.6170   35.2530 O.2    20  SER20      -0.2714
     23  CB         1.8750 -163.4710   36.1380 C.3    20  SER20       0.2130
     24  OG         3.0890 -163.9280   35.5690 O.3    20  SER20      -0.2179
     25  N          3.6960 -160.5190   36.2900 N.am   21  THR21      -0.1936
     26  CA         4.1170 -159.3080   35.5870 C.3    21  THR21       0.2028
     27  C          5.1520 -159.5800   34.5040 C.2    21  THR21       0.2642
     28  O          5.8730 -160.5720   34.5480 O.2    21  THR21      -0.2714
     29  CB         4.7030 -158.2590   36.5530 C.3    21  THR21       0.1808
     30  OG1        5.8660 -158.7880   37.2010 O.3    21  THR21      -0.2208
     31  CG2        3.6770 -157.8550   37.5990 C.3    21  THR21       0.0379
     32  N          5.2040 -158.6740   33.5330 N.am   22  GLN22      -0.1963
     33  CA         6.2310 -158.6710   32.5000 C.3    22  GLN22       0.1733
     34  C          6.6520 -157.2190   32.2950 C.2    22  GLN22       0.2616
     35  O          6.1450 -156.5250   31.4120 O.2    22  GLN22      -0.2715
     36  CB         5.7000 -159.2840   31.2040 C.3    22  GLN22       0.0408
     37  CG         6.7900 -159.6380   30.2050 C.3    22  GLN22       0.0908
     38  CD         6.2710 -159.7480   28.7840 C.2    22  GLN22       0.2608
     39  OE1        6.4430 -158.8320   27.9790 O.2    22  GLN22      -0.2717
     40  NE2        5.6270 -160.8670   28.4690 N.am   22  GLN22      -0.0878
     41  N          7.5740 -156.7630   33.1370 N.am   23  GLY23      -0.1955
     42  CA         7.9120 -155.3500   33.2210 C.3    23  GLY23       0.1869
     43  C          6.8530 -154.6660   34.0670 C.2    23  GLY23       0.2309
     44  O          6.5370 -155.1460   35.1590 O.2    23  GLY23      -0.2863
     45  N          0.7890 -159.7010   32.8800 N.3    27  ALA27      -0.1245
     46  CA         0.6640 -160.7520   31.8720 C.3    27  ALA27       0.1562
     47  C         -0.4920 -161.6950   32.1910 C.2    27  ALA27       0.2260
     48  O         -1.2830 -162.0350   31.3090 O.2    27  ALA27      -0.2867
     49  CB         1.9610 -161.5320   31.7660 C.3    27  ALA27       0.0290
     50  N         -2.9300 -166.0680   37.9050 N.3    31  CYS31      -0.1221
     51  CA        -1.9690 -167.1690   37.8090 C.3    31  CYS31       0.1808
     52  C         -1.8420 -167.8980   39.1440 C.2    31  CYS31       0.2601
     53  O         -2.0430 -167.3090   40.2070 O.2    31  CYS31      -0.2717
     54  CB        -0.5970 -166.6630   37.3480 C.3    31  CYS31       0.0970
     55  SG         0.4920 -166.0900   38.6670 S.3    31  CYS31      -0.0800
     56  N         -1.5010 -169.1810   39.0750 N.am   32  ALA32      -0.1965
     57  CA        -1.4290 -170.0350   40.2580 C.3    32  ALA32       0.1728
     58  C          0.0070 -170.1400   40.7610 C.2    32  ALA32       0.2616
     59  O          0.8650 -170.7240   40.0990 O.2    32  ALA32      -0.2715
     60  CB        -1.9820 -171.4160   39.9440 C.3    32  ALA32       0.0334
     61  N          0.2540 -169.5720   41.9370 N.am   33  LYS33      -0.1977
     62  CA         1.5840 -169.5650   42.5440 C.3    33  LYS33       0.1596
     63  C          1.7260 -170.6140   43.6440 C.2    33  LYS33       0.2287
     64  O          2.8010 -170.7710   44.2200 O.2    33  LYS33      -0.2864
     65  CB         1.8790 -168.1810   43.1090 C.3    33  LYS33       0.0298
     66  CG         1.7470 -167.0860   42.0700 C.3    33  LYS33       0.0038
     67  CD         2.0080 -165.7250   42.6720 C.3    33  LYS33       0.0206
     68  CE         1.6570 -164.6260   41.6900 C.3    33  LYS33       0.1093
     69  NZ         2.1200 -163.3080   42.1870 N.3    33  LYS33      -0.1314
     70  N          1.9210 -174.4330   44.4920 N.3    35  HIS35      -0.1241
     71  CA         2.3230 -175.6420   43.7850 C.3    35  HIS35       0.1621
     72  C          2.2770 -176.8450   44.7040 C.2    35  HIS35       0.2264
     73  O          2.5840 -176.7420   45.8900 O.2    35  HIS35      -0.2867
     74  CB         3.7420 -175.4880   43.2460 C.3    35  HIS35       0.0745
     75  CG         3.9170 -174.3110   42.3410 C.ar   35  HIS35       0.0817
     76  ND1        3.3520 -174.2500   41.0860 N.ar   35  HIS35      -0.2268
     77  CD2        4.5990 -173.1540   42.5040 C.ar   35  HIS35       0.1154
     78  CE1        3.6760 -173.1030   40.5160 C.ar   35  HIS35       0.1986
     79  NE2        4.4330 -172.4200   41.3560 N.ar   35  HIS35      -0.2212
     80  N          5.4410 -169.8530   45.5380 N.3    45  GLY45      -0.1210
     81  CA         6.6130 -169.4190   44.7740 C.3    45  GLY45       0.1956
     82  C          6.6040 -167.9650   44.3410 C.2    45  GLY45       0.2612
     83  O          5.6000 -167.4620   43.8360 O.2    45  GLY45      -0.2717
     84  N          7.7400 -167.2990   44.5410 N.am   46  ALA46      -0.1965
     85  CA         7.9550 -165.9290   44.0850 C.3    46  ALA46       0.1728
     86  C          9.2470 -165.8580   43.2810 C.2    46  ALA46       0.2617
     87  O         10.0990 -166.7410   43.3870 O.2    46  ALA46      -0.2715
     88  CB         8.0310 -164.9870   45.2740 C.3    46  ALA46       0.0334
     89  N          9.3850 -164.8030   42.4800 N.am   47  GLY47      -0.1940
     90  CA        10.5920 -164.5750   41.6850 C.3    47  GLY47       0.2014
     91  C         10.3910 -164.9100   40.2190 C.2    47  GLY47       0.2640
     92  O          9.3480 -164.6020   39.6460 O.2    47  GLY47      -0.2714
     93  N         11.3970 -165.5330   39.6100 N.am   48  THR48      -0.1936
     94  CA        11.3310 -165.9170   38.2010 C.3    48  THR48       0.2028
     95  C         10.3110 -167.0440   38.0250 C.2    48  THR48       0.2642
     96  O         10.5050 -168.1550   38.5220 O.2    48  THR48      -0.2714
     97  CB        12.7070 -166.3680   37.6720 C.3    48  THR48       0.1808
     98  OG1       13.6920 -165.3710   37.9770 O.3    48  THR48      -0.2208
     99  CG2       12.6600 -166.5880   36.1650 C.3    48  THR48       0.0379
    100  N          9.2300 -166.7410   37.3080 N.am   49  ALA49      -0.1963
    101  CA         8.0620 -167.6210   37.2200 C.3    49  ALA49       0.1728
    102  C          8.3740 -169.0260   36.7090 C.2    49  ALA49       0.2616
    103  O          7.8960 -170.0110   37.2700 O.2    49  ALA49      -0.2715
    104  CB         6.9940 -166.9760   36.3520 C.3    49  ALA49       0.0334
    105  N          9.1670 -169.1150   35.6460 N.am   50  ALA50      -0.1963
    106  CA         9.5510 -170.4080   35.0810 C.3    50  ALA50       0.1728
    107  C         10.3770 -171.2320   36.0650 C.2    50  ALA50       0.2616
    108  O         10.2190 -172.4520   36.1460 O.2    50  ALA50      -0.2715
    109  CB        10.3310 -170.2140   33.7900 C.3    50  ALA50       0.0334
    110  N         11.2540 -170.5600   36.8080 N.am   51  ASP51      -0.1957
    111  CA        12.1410 -171.2300   37.7620 C.3    51  ASP51       0.1840
    112  C         11.3870 -171.8410   38.9390 C.2    51  ASP51       0.2622
    113  O         11.7050 -172.9510   39.3680 O.2    51  ASP51      -0.2715
    114  CB        13.2060 -170.2590   38.2800 C.3    51  ASP51       0.1450
    115  CG        14.2550 -169.9250   37.2340 C.2    51  ASP51       0.3671
    116  OD1       14.4210 -170.7050   36.2720 O.co2  51  ASP51      -0.2456
    117  OD2       14.9250 -168.8830   37.3760 O.co2  51  ASP51      -0.2456
    118  N         10.3950 -171.1220   39.4580 N.am   52  THR52      -0.1951
    119  CA         9.6100 -171.6140   40.5920 C.3    52  THR52       0.1897
    120  C          8.7810 -172.8330   40.1960 C.2    52  THR52       0.2313
    121  O          8.6620 -173.7820   40.9680 O.2    52  THR52      -0.2863
    122  CB         8.6690 -170.5370   41.1690 C.3    52  THR52       0.1794
    123  OG1        7.7430 -170.1060   40.1630 O.3    52  THR52      -0.2208
    124  CG2        9.4640 -169.3460   41.6850 C.3    52  THR52       0.0378
    125  N         21.2940 -168.3050   40.2600 N.3    93  HIS93      -0.1241
    126  CA        20.8900 -168.0620   38.8700 C.3    93  HIS93       0.1621
    127  C         19.4940 -168.6080   38.5580 C.2    93  HIS93       0.2264
    128  O         18.8450 -168.1520   37.6180 O.2    93  HIS93      -0.2867
    129  CB        21.9240 -168.6290   37.8940 C.3    93  HIS93       0.0745
    130  CG        23.2250 -167.8890   37.9050 C.ar   93  HIS93       0.0817
    131  ND1       23.3620 -166.6220   37.3810 N.ar   93  HIS93      -0.2268
    132  CD2       24.4450 -168.2330   38.3800 C.ar   93  HIS93       0.1154
    133  CE1       24.6110 -166.2180   37.5310 C.ar   93  HIS93       0.1986
    134  NE2       25.2890 -167.1770   38.1340 N.ar   93  HIS93      -0.2212
    135  N          8.6270 -162.2830   48.4080 N.3   128  GLY128     -0.1210
    136  CA         8.1850 -161.5530   47.2210 C.3   128  GLY128      0.1956
    137  C          8.2910 -160.0480   47.3800 C.2   128  GLY128      0.2612
    138  O          8.6780 -159.5490   48.4380 O.2   128  GLY128     -0.2717
    139  N          7.9410 -159.3280   46.3170 N.am  129  SER129     -0.1952
    140  CA         8.0030 -157.8640   46.3050 C.3   129  SER129      0.1924
    141  C          7.1080 -157.2340   47.3690 C.2   129  SER129      0.2314
    142  O          7.4270 -156.1690   47.8990 O.2   129  SER129     -0.2863
    143  CB         7.6190 -157.3200   44.9260 C.3   129  SER129      0.2116
    144  OG         6.3540 -157.8070   44.5150 O.3   129  SER129     -0.2180
    145  N          3.6330 -154.7530   42.5020 N.3   168  GLY168     -0.1225
    146  CA         4.0270 -156.0650   42.0050 C.3   168  GLY168      0.1811
    147  C          2.9930 -157.1490   42.2560 C.2   168  GLY168      0.2280
    148  O          3.0240 -158.1880   41.6080 O.2   168  GLY168     -0.2866
@<TRIPOS>BOND
     1    39    38    2
     2    40    38   am
     3    38    37    1
     4    37    36    1
     5    36    33    1
     6    48    47    2
     7    35    34    2
     8    49    46    1
     9    46    47    1
    10    46    45    1
    11    34    33    1
    12    34    41   am
    13    33    32    1
    14    41    42    1
    15    42    43    1
    16    32    27   am
    17   109   106    1
    18    43    44    2
    19    27    28    2
    20    27    26    1
    21   106   105    1
    22   106   107    1
    23    22    21    2
    24    24    23    1
    25    26    25    1
    26    26    29    1
    27   105   102   am
    28   107   108    2
    29   107   110   am
    30    21    25   am
    31    21    20    1
    32    23    20    1
    33    99    97    1
    34   116   115   ar
    35   104   101    1
    36    29    30    1
    37    29    31    1
    38   102   101    1
    39   102   103    2
    40   110   111    1
    41    20    19    1
    42   101   100    1
    43   115   117   ar
    44   115   114    1
    45   100    95   am
    46    54    51    1
    47    54    55    1
    48   131   133   ar
    49   131   130   ar
    50   133   134   ar
    51   128   127    2
    52    97    98    1
    53    97    94    1
    54    19    10   am
    55   111   114    1
    56   111   112    1
    57    51    50    1
    58    51    52    1
    59   129   130    1
    60   129   126    1
    61   130   132   ar
    62    95    94    1
    63    95    96    2
    64   134   132   ar
    65    94    93    1
    66   127   126    1
    67   126   125    1
    68   112   113    2
    69   112   118   am
    70    13    14    1
    71    13    12    1
    72    10     9    1
    73    10    11    2
    74    56    52   am
    75    56    57    1
    76    52    53    2
    77    14    15    1
    78   118   119    1
    79    15    16    2
    80     9    12    1
    81     9     8    1
    82    93    91   am
    83    92    91    2
    84    16    18    1
    85    16    17    1
    86    60    57    1
    87    59    58    2
    88   123   122    1
    89   120   119    1
    90   120   121    2
    91    91    90    1
    92    57    58    1
    93    78    76   ar
    94    78    79   ar
    95   119   122    1
    96    58    61   am
    97    76    75   ar
    98   122   124    1
    99    79    77   ar
   100   148   147    2
   101    90    89    1
   102    68    69    1
   103    68    67    1
   104    61    62    1
   105   146   147    1
   106   146   145    1
   107    66    67    1
   108    66    65    1
   109    75    77   ar
   110    75    74    1
   111    89    86   am
   112     6     5    1
   113    62    65    1
   114    62    63    1
   115     1     2    1
   116    74    71    1
   117    86    87    2
   118    86    85    1
   119    63    64    2
   120    71    70    1
   121    71    72    1
   122     5     2    1
   123     5     7    1
   124    83    82    2
   125     2     3    1
   126    85    84    1
   127    85    88    1
   128    82    84   am
   129    82    81    1
   130   144   143    1
   131    72    73    2
   132    81    80    1
   133   143   140    1
   134     3     4    2
   135   140   139    1
   136   140   141    1
   137   139   137   am
   138   136   137    1
   139   136   135    1
   140   141   142    2
   141   137   138    2
