@<TRIPOS>MOLECULE
tmp/5fghY00.pdb
 127 118 0 0 0
SMALL
GASTEIGER

@<TRIPOS>ATOM
      1  N         57.7540 -152.2510    8.4170 N.3     1  THR1       -0.1218
      2  CA        57.8590 -153.3060    7.3700 C.3     1  THR1        0.1862
      3  C         57.1120 -152.8930    6.1430 C.2     1  THR1        0.2287
      4  O         56.0340 -152.3060    6.2150 O.2     1  THR1       -0.2866
      5  CB        57.2370 -154.6100    7.8370 C.3     1  THR1        0.1770
      6  OG1       58.0500 -155.0480    8.9100 O.3     1  THR1       -0.2211
      7  CG2       57.1650 -155.7390    6.8030 C.3     1  THR1        0.0375
      8  N         63.5930 -153.4300    8.3120 N.3    19  ARG19      -0.1231
      9  CA        63.4710 -152.7900    9.6250 C.3    19  ARG19       0.1694
     10  C         62.4720 -153.4980   10.5390 C.2    19  ARG19       0.2592
     11  O         61.4470 -154.0100   10.0870 O.2    19  ARG19      -0.2718
     12  CB        63.0880 -151.3130    9.4870 C.3    19  ARG19       0.0321
     13  CG        63.1320 -150.5520   10.8060 C.3    19  ARG19       0.0489
     14  CD        63.0120 -149.0510   10.6120 C.3    19  ARG19       0.2205
     15  NE        64.2280 -148.4700   10.0460 N.pl3  19  ARG19      -0.0865
     16  CZ        64.4310 -147.1670    9.8610 C.cat  19  ARG19       0.5346
     17  NH1       63.5000 -146.2770   10.1970 N.pl3  19  ARG19       0.1354
     18  NH2       65.5770 -146.7480    9.3380 N.pl3  19  ARG19       0.1354
     19  N         62.7980 -153.5180   11.8300 N.am   20  ALA20      -0.1966
     20  CA        61.9190 -154.0380   12.8740 C.3    20  ALA20       0.1728
     21  C         61.8960 -153.0340   14.0160 C.2    20  ALA20       0.2617
     22  O         62.9430 -152.5110   14.4070 O.2    20  ALA20      -0.2715
     23  CB        62.4140 -155.3840   13.3700 C.3    20  ALA20       0.0334
     24  N         60.7070 -152.7720   14.5530 N.am   21  THR21      -0.1937
     25  CA        60.5370 -151.7530   15.5850 C.3    21  THR21       0.2028
     26  C         59.7550 -152.2540   16.7970 C.2    21  THR21       0.2642
     27  O         58.9670 -153.1950   16.7010 O.2    21  THR21      -0.2714
     28  CB        59.8240 -150.5090   15.0200 C.3    21  THR21       0.1808
     29  OG1       58.6250 -150.9050   14.3420 O.3    21  THR21      -0.2208
     30  CG2       60.7340 -149.7690   14.0500 C.3    21  THR21       0.0379
     31  N         60.0040 -151.6120   17.9360 N.am   22  ALA22      -0.1963
     32  CA        59.2330 -151.8160   19.1580 C.3    22  ALA22       0.1728
     33  C         58.8080 -150.4380   19.6530 C.2    22  ALA22       0.2616
     34  O         59.5120 -149.7990   20.4400 O.2    22  ALA22      -0.2715
     35  CB        60.0650 -152.5350   20.2050 C.3    22  ALA22       0.0334
     36  N         57.6550 -149.9820   19.1720 N.am   23  GLY23      -0.1955
     37  CA        57.2330 -148.6020   19.3670 C.3    23  GLY23       0.1869
     38  C         58.0200 -147.7260   18.4110 C.2    23  GLY23       0.2309
     39  O         58.0650 -148.0040   17.2120 O.2    23  GLY23      -0.2863
     40  N         64.5880 -151.6950   16.6600 N.3    27  ALA27      -0.1231
     41  CA        65.1880 -152.8860   17.2540 C.3    27  ALA27       0.1694
     42  C         66.2400 -153.5000   16.3420 C.2    27  ALA27       0.2592
     43  O         67.2910 -153.9330   16.8100 O.2    27  ALA27      -0.2718
     44  CB        64.1130 -153.9110   17.5780 C.3    27  ALA27       0.0304
     45  N         65.9570 -153.5320   15.0430 N.am   28  SER28      -0.1952
     46  CA        66.8560 -154.1590   14.0780 C.3    28  SER28       0.1924
     47  C         66.7080 -153.5560   12.6850 C.2    28  SER28       0.2314
     48  O         65.6060 -153.2050   12.2650 O.2    28  SER28      -0.2863
     49  CB        66.5850 -155.6630   14.0180 C.3    28  SER28       0.2116
     50  OG        67.4850 -156.3100   13.1350 O.3    28  SER28      -0.2180
     51  N         66.8320 -157.5440    9.3770 N.3    31  VAL31      -0.1245
     52  CA        65.9350 -158.7020    9.5150 C.3    31  VAL31       0.1561
     53  C         65.5450 -159.2320    8.1400 C.2    31  VAL31       0.2260
     54  O         65.4410 -158.4740    7.1720 O.2    31  VAL31      -0.2867
     55  CB        64.6680 -158.4250   10.3830 C.3    31  VAL31       0.0252
     56  CG1       64.7450 -157.0840   11.0940 C.3    31  VAL31       0.0019
     57  CG2       63.3800 -158.4990    9.5710 C.3    31  VAL31       0.0019
     58  N         62.7550 -160.3740    6.0850 N.3    33  ALA33      -0.1245
     59  CA        61.3300 -160.3970    5.9880 C.3    33  ALA33       0.1562
     60  C         60.8930 -161.3410    4.9170 C.2    33  ALA33       0.2260
     61  O         59.7520 -161.3530    4.5320 O.2    33  ALA33      -0.2867
     62  CB        60.8190 -159.0220    5.7010 C.3    33  ALA33       0.0290
     63  N         57.0230 -161.6370    5.1420 N.3    45  MET45      -0.1230
     64  CA        56.6970 -161.5190    6.5590 C.3    45  MET45       0.1702
     65  C         56.3460 -160.0820    6.9300 C.2    45  MET45       0.2592
     66  O         57.1650 -159.1750    6.7780 O.2    45  MET45      -0.2718
     67  CB        57.8780 -161.9960    7.4030 C.3    45  MET45       0.0401
     68  CG        58.1740 -163.4830    7.2610 C.3    45  MET45       0.0596
     69  SD        59.6550 -164.0750    8.1130 S.3    45  MET45      -0.1393
     70  CE        59.9200 -162.8420    9.3840 C.3    45  MET45       0.0692
     71  N         55.1210 -159.8870    7.4120 N.am   46  ALA46      -0.1966
     72  CA        54.6640 -158.5840    7.8960 C.3    46  ALA46       0.1728
     73  C         53.7060 -158.7660    9.0670 C.2    46  ALA46       0.2617
     74  O         52.9060 -159.7040    9.0850 O.2    46  ALA46      -0.2715
     75  CB        53.9910 -157.8010    6.7810 C.3    46  ALA46       0.0334
     76  N         53.7890 -157.8570   10.0350 N.am   47  GLY47      -0.1940
     77  CA        53.0250 -157.9580   11.2740 C.3    47  GLY47       0.2014
     78  C         53.9330 -158.4570   12.3780 C.2    47  GLY47       0.2639
     79  O         55.0480 -157.9610   12.5370 O.2    47  GLY47      -0.2714
     80  N         53.4670 -159.4490   13.1320 N.am   48  GLY48      -0.1939
     81  CA        54.2590 -160.0340   14.2120 C.3    48  GLY48       0.2014
     82  C         55.4180 -160.8540   13.6740 C.2    48  GLY48       0.2639
     83  O         55.2140 -161.7780   12.8840 O.2    48  GLY48      -0.2714
     84  N         56.6320 -160.5080   14.0990 N.am   49  ALA49      -0.1963
     85  CA        57.8460 -161.2040   13.6630 C.3    49  ALA49       0.1728
     86  C         57.7790 -162.6910   13.9880 C.2    49  ALA49       0.2616
     87  O         57.9850 -163.5340   13.1160 O.2    49  ALA49      -0.2715
     88  CB        59.0740 -160.5860   14.3150 C.3    49  ALA49       0.0334
     89  N         57.4790 -162.9980   15.2470 N.am   50  ALA50      -0.1977
     90  CA        57.4350 -164.3770   15.7330 C.3    50  ALA50       0.1597
     91  C         56.3790 -165.2010   15.0140 C.2    50  ALA50       0.2287
     92  O         56.6710 -166.2830   14.5070 O.2    50  ALA50      -0.2864
     93  CB        57.1770 -164.3970   17.2290 C.3    50  ALA50       0.0319
     94  N         54.9540 -164.7930   12.1280 N.3    52  CYS52      -0.1235
     95  CA        55.3300 -165.0230   10.7340 C.3    52  CYS52       0.1677
     96  C         56.4790 -166.0260   10.6060 C.2    52  CYS52       0.2270
     97  O         56.3710 -166.9920    9.8510 O.2    52  CYS52      -0.2867
     98  CB        55.6970 -163.7050   10.0460 C.3    52  CYS52       0.0956
     99  SG        54.2940 -162.6110    9.7340 S.3    52  CYS52      -0.0801
    100  N         49.0460 -162.0210   14.4660 N.3    96  SER96      -0.1217
    101  CA        49.2040 -160.8330   13.6270 C.3    96  SER96       0.1889
    102  C         50.1090 -161.1540   12.4430 C.2    96  SER96       0.2288
    103  O         51.3330 -161.2030   12.5850 O.2    96  SER96      -0.2866
    104  CB        49.7890 -159.6780   14.4450 C.3    96  SER96       0.2089
    105  OG        49.8370 -158.4830   13.6840 O.3    96  SER96      -0.2183
    106  N         52.1140 -154.1160    4.6090 N.3   130  GLY130     -0.1210
    107  CA        52.9050 -153.5030    5.6720 C.3   130  GLY130      0.1956
    108  C         52.5210 -152.0570    5.9170 C.2   130  GLY130      0.2612
    109  O         51.6570 -151.5080    5.2330 O.2   130  GLY130     -0.2717
    110  N         53.1730 -151.4400    6.8990 N.am  131  SER131     -0.1952
    111  CA        52.8990 -150.0490    7.2700 C.3   131  SER131      0.1924
    112  C         53.2460 -149.0520    6.1610 C.2   131  SER131      0.2314
    113  O         52.6930 -147.9510    6.1190 O.2   131  SER131     -0.2863
    114  CB        53.6570 -149.6790    8.5480 C.3   131  SER131      0.2116
    115  OG        55.0130 -150.0890    8.4760 O.3   131  SER131     -0.2180
    116  N         58.5320 -146.5340   10.0140 N.3   170  TYR170     -0.1241
    117  CA        58.6910 -147.9140   10.4820 C.3   170  TYR170      0.1605
    118  C         59.2060 -148.8610    9.3870 C.2   170  TYR170      0.2264
    119  O         59.2160 -150.0820    9.5640 O.2   170  TYR170     -0.2867
    120  CB        57.3650 -148.4070   11.0720 C.3   170  TYR170      0.0534
    121  CG        56.8800 -147.5140   12.1940 C.ar  170  TYR170     -0.0201
    122  CD1       57.5950 -147.4190   13.3830 C.ar  170  TYR170     -0.0009
    123  CD2       55.7280 -146.7430   12.0600 C.ar  170  TYR170     -0.0009
    124  CE1       57.1740 -146.5970   14.4110 C.ar  170  TYR170      0.0417
    125  CE2       55.2980 -145.9180   13.0870 C.ar  170  TYR170      0.0417
    126  CZ        56.0260 -145.8490   14.2590 C.ar  170  TYR170      0.1957
    127  OH        55.6070 -145.0320   15.2840 O.3   170  TYR170     -0.2866
@<TRIPOS>BOND
     1    61    60    2
     2   106   107    1
     3    60    59    1
     4    63    64    1
     5   109   108    2
     6   107   108    1
     7    62    59    1
     8   108   110   am
     9    59    58    1
    10   113   112    2
    11     3     4    2
    12     3     2    1
    13   112   111    1
    14    64    65    1
    15    64    67    1
    16    66    65    2
    17    75    72    1
    18     7     5    1
    19   110   111    1
    20    65    71   am
    21    54    53    2
    22    68    67    1
    23    68    69    1
    24   111   114    1
    25     2     5    1
    26     2     1    1
    27    71    72    1
    28     5     6    1
    29    72    73    1
    30    69    70    1
    31    53    52    1
    32     8     9    1
    33   115   114    1
    34    73    74    2
    35    73    76   am
    36    18    16    1
    37    51    52    1
    38   118   119    2
    39   118   117    1
    40    12     9    1
    41    12    13    1
    42    52    55    1
    43    57    55    1
    44     9    10    1
    45    99    98    1
    46    97    96    2
    47    16    15    2
    48    16    17    1
    49   116   117    1
    50    76    77    1
    51    15    14    1
    52    98    95    1
    53    11    10    2
    54    55    56    1
    55   117   120    1
    56    10    19   am
    57    96    95    1
    58    14    13    1
    59    95    94    1
    60   120   121    1
    61    77    78    1
    62    19    20    1
    63   123   121   ar
    64   123   125   ar
    65   121   122   ar
    66    48    47    2
    67    78    79    2
    68    78    80   am
    69   102   103    2
    70   102   101    1
    71    47    46    1
    72    20    23    1
    73    20    21    1
    74    83    82    2
    75   125   126   ar
    76    87    86    2
    77    80    81    1
    78    50    49    1
    79   122   124   ar
    80   101   104    1
    81   101   100    1
    82    85    86    1
    83    85    84    1
    84    85    88    1
    85    82    84   am
    86    82    81    1
    87   105   104    1
    88    86    89   am
    89    21    22    2
    90    21    24   am
    91    49    46    1
    92    30    28    1
    93    46    45    1
    94   126   124   ar
    95   126   127    1
    96    29    28    1
    97    92    91    2
    98    24    25    1
    99    91    90    1
   100    28    25    1
   101    45    42   am
   102    89    90    1
   103    25    26    1
   104    90    93    1
   105    42    43    2
   106    42    41    1
   107    40    41    1
   108    27    26    2
   109    26    31   am
   110    39    38    2
   111    41    44    1
   112    31    32    1
   113    38    37    1
   114    32    33    1
   115    32    35    1
   116    36    37    1
   117    36    33   am
   118    33    34    2
