@<TRIPOS>MOLECULE
tmp/5fghV00.pdb
 133 124 0 0 0
SMALL
GASTEIGER

@<TRIPOS>ATOM
      1  N          4.6480 -159.0150   44.0600 N.3     1  THR1       -0.1218
      2  CA         4.0560 -160.2520   44.6420 C.3     1  THR1        0.1862
      3  C          4.0710 -160.1560   46.1310 C.2     1  THR1        0.2287
      4  O          4.9980 -159.6080   46.7230 O.2     1  THR1       -0.2866
      5  CB         4.9010 -161.4610   44.2840 C.3     1  THR1        0.1770
      6  OG1        4.7650 -161.5900   42.8840 O.3     1  THR1       -0.2211
      7  CG2        4.4870 -162.7880   44.9210 C.3     1  THR1        0.0375
      8  N         -1.3160 -161.4030   40.9740 N.3    19  ARG19      -0.1231
      9  CA        -0.8200 -160.5160   39.9190 C.3    19  ARG19       0.1694
     10  C          0.5400 -160.9630   39.3800 C.2    19  ARG19       0.2593
     11  O          1.4560 -161.2660   40.1460 O.2    19  ARG19      -0.2718
     12  CB        -0.7160 -159.0730   40.4170 C.3    19  ARG19       0.0321
     13  CG        -0.3090 -158.0910   39.3270 C.3    19  ARG19       0.0489
     14  CD        -0.2500 -156.6640   39.8350 C.3    19  ARG19       0.2205
     15  NE        -1.5660 -156.0350   39.8800 N.pl3  19  ARG19      -0.0865
     16  CZ        -1.7890 -154.7820   40.2710 C.cat  19  ARG19       0.5346
     17  NH1       -0.7830 -154.0040   40.6630 N.pl3  19  ARG19       0.1354
     18  NH2       -3.0270 -154.3010   40.2740 N.pl3  19  ARG19       0.1354
     19  N          0.6570 -160.9810   38.0540 N.am   20  SER20      -0.1938
     20  CA         1.9170 -161.2540   37.3720 C.3    20  SER20       0.2055
     21  C          2.2640 -160.0420   36.5140 C.2    20  SER20       0.2644
     22  O          1.3990 -159.5230   35.8040 O.2    20  SER20      -0.2714
     23  CB         1.7810 -162.5010   36.4980 C.3    20  SER20       0.2130
     24  OG         3.0420 -162.9270   36.0150 O.3    20  SER20      -0.2179
     25  N          3.5170 -159.5900   36.5790 N.am   21  THR21      -0.1936
     26  CA         3.9170 -158.3590   35.8940 C.3    21  THR21       0.2028
     27  C          5.1460 -158.4980   35.0030 C.2    21  THR21       0.2642
     28  O          6.0550 -159.2830   35.2740 O.2    21  THR21      -0.2714
     29  CB         4.2050 -157.2130   36.8860 C.3    21  THR21       0.1808
     30  OG1        5.2870 -157.5790   37.7510 O.3    21  THR21      -0.2208
     31  CG2        2.9740 -156.8890   37.7140 C.3    21  THR21       0.0379
     32  N          5.1390 -157.6970   33.9420 N.am   22  GLN22      -0.1963
     33  CA         6.2600 -157.5130   33.0340 C.3    22  GLN22       0.1733
     34  C          6.6330 -156.0400   33.1060 C.2    22  GLN22       0.2616
     35  O          6.0460 -155.2180   32.3980 O.2    22  GLN22      -0.2715
     36  CB         5.8000 -157.8100   31.6150 C.3    22  GLN22       0.0408
     37  CG         6.6020 -158.8150   30.8180 C.3    22  GLN22       0.0908
     38  CD         5.9810 -159.0240   29.4430 C.2    22  GLN22       0.2608
     39  OE1        5.0470 -158.3090   29.0660 O.2    22  GLN22      -0.2717
     40  NE2        6.4850 -160.0070   28.6900 N.am   22  GLN22      -0.0878
     41  N          7.5880 -155.6900   33.9570 N.am   23  GLY23      -0.1955
     42  CA         7.8850 -154.2820   34.1930 C.3    23  GLY23       0.1869
     43  C          6.6690 -153.6320   34.8370 C.2    23  GLY23       0.2309
     44  O          6.1690 -154.1320   35.8460 O.2    23  GLY23      -0.2863
     45  N          0.8070 -158.7600   33.1220 N.3    27  ALA27      -0.1231
     46  CA         0.7230 -159.8550   32.1560 C.3    27  ALA27       0.1694
     47  C         -0.5020 -160.7260   32.4240 C.2    27  ALA27       0.2592
     48  O         -1.2650 -161.0310   31.5050 O.2    27  ALA27      -0.2718
     49  CB         1.9900 -160.6980   32.2010 C.3    27  ALA27       0.0304
     50  N         -0.6810 -161.1190   33.6840 N.am   28  ASP28      -0.1974
     51  CA        -1.8200 -161.9430   34.0980 C.3    28  ASP28       0.1709
     52  C         -2.4630 -161.3850   35.3660 C.2    28  ASP28       0.2293
     53  O         -1.7750 -161.1110   36.3500 O.2    28  ASP28      -0.2864
     54  CB        -1.3750 -163.3890   34.3380 C.3    28  ASP28       0.1436
     55  CG        -2.5470 -164.3500   34.5150 C.2    28  ASP28       0.3671
     56  OD1       -2.3250 -165.4610   35.0390 O.co2  28  ASP28      -0.2456
     57  OD2       -3.6870 -164.0080   34.1340 O.co2  28  ASP28      -0.2456
     58  N         -3.1020 -164.9040   38.2430 N.3    31  CYS31      -0.1235
     59  CA        -2.0160 -165.8840   38.2630 C.3    31  CYS31       0.1677
     60  C         -2.1030 -166.7640   39.5090 C.2    31  CYS31       0.2270
     61  O         -2.5360 -166.3100   40.5680 O.2    31  CYS31      -0.2867
     62  CB        -0.6600 -165.1730   38.2190 C.3    31  CYS31       0.0956
     63  SG         0.7660 -166.2660   38.0120 S.3    31  CYS31      -0.0801
     64  N         -0.0150 -168.5700   42.1810 N.3    33  LYS33      -0.1245
     65  CA         1.3220 -168.5970   42.7780 C.3    33  LYS33       0.1561
     66  C          1.4890 -169.6990   43.8200 C.2    33  LYS33       0.2260
     67  O          2.5910 -169.9150   44.3250 O.2    33  LYS33      -0.2867
     68  CB         1.6350 -167.2410   43.4040 C.3    33  LYS33       0.0271
     69  CG         1.6560 -166.1180   42.3860 C.3    33  LYS33       0.0035
     70  CD         1.8810 -164.7720   43.0420 C.3    33  LYS33       0.0206
     71  CE         1.5550 -163.6410   42.0810 C.3    33  LYS33       0.1093
     72  NZ         2.2140 -162.3710   42.4810 N.3    33  LYS33      -0.1314
     73  N          1.8170 -173.3860   44.5740 N.3    35  HIS35      -0.1241
     74  CA         2.2030 -174.6170   43.9010 C.3    35  HIS35       0.1621
     75  C          2.1740 -175.7920   44.8570 C.2    35  HIS35       0.2264
     76  O          2.4040 -175.6410   46.0580 O.2    35  HIS35      -0.2867
     77  CB         3.6110 -174.5010   43.3290 C.3    35  HIS35       0.0745
     78  CG         3.8330 -173.2780   42.4990 C.ar   35  HIS35       0.0817
     79  ND1        3.3750 -173.1650   41.2040 N.ar   35  HIS35      -0.2268
     80  CD2        4.4730 -172.1180   42.7760 C.ar   35  HIS35       0.1154
     81  CE1        3.7180 -171.9840   40.7220 C.ar   35  HIS35       0.1986
     82  NE2        4.3860 -171.3300   41.6550 N.ar   35  HIS35      -0.2212
     83  N          5.6340 -168.9570   45.5810 N.3    45  GLY45      -0.1210
     84  CA         6.8550 -168.4740   44.9440 C.3    45  GLY45       0.1956
     85  C          6.8190 -167.0140   44.5390 C.2    45  GLY45       0.2612
     86  O          5.8080 -166.5190   44.0380 O.2    45  GLY45      -0.2717
     87  N          7.9390 -166.3330   44.7720 N.am   46  ALA46      -0.1965
     88  CA         8.1520 -164.9670   44.3130 C.3    46  ALA46       0.1728
     89  C          9.4270 -164.9230   43.4810 C.2    46  ALA46       0.2617
     90  O         10.2360 -165.8530   43.5240 O.2    46  ALA46      -0.2715
     91  CB         8.2570 -164.0160   45.4920 C.3    46  ALA46       0.0334
     92  N          9.6060 -163.8430   42.7290 N.am   47  GLY47      -0.1940
     93  CA        10.7750 -163.6910   41.8640 C.3    47  GLY47       0.2014
     94  C         10.4790 -164.1430   40.4470 C.2    47  GLY47       0.2640
     95  O          9.3600 -163.9770   39.9600 O.2    47  GLY47      -0.2714
     96  N         11.4810 -164.7210   39.7890 N.am   48  THR48      -0.1936
     97  CA        11.3420 -165.1630   38.4020 C.3    48  THR48       0.2028
     98  C         10.3370 -166.3140   38.3040 C.2    48  THR48       0.2642
     99  O         10.5590 -167.3910   38.8570 O.2    48  THR48      -0.2714
    100  CB        12.6980 -165.6000   37.8140 C.3    48  THR48       0.1808
    101  OG1       13.6790 -164.5830   38.0620 O.3    48  THR48      -0.2208
    102  CG2       12.5850 -165.8450   36.3110 C.3    48  THR48       0.0379
    103  N          9.2380 -166.0710   37.5940 N.am   49  ALA49      -0.1963
    104  CA         8.1090 -167.0060   37.5350 C.3    49  ALA49       0.1728
    105  C          8.4740 -168.3710   36.9520 C.2    49  ALA49       0.2616
    106  O          8.0740 -169.4050   37.4900 O.2    49  ALA49      -0.2715
    107  CB         6.9690 -166.3930   36.7380 C.3    49  ALA49       0.0334
    108  N          9.2200 -168.3700   35.8500 N.am   50  ALA50      -0.1977
    109  CA         9.6570 -169.6160   35.2190 C.3    50  ALA50       0.1597
    110  C         10.5330 -170.4410   36.1610 C.2    50  ALA50       0.2287
    111  O         10.4560 -171.6710   36.1690 O.2    50  ALA50      -0.2864
    112  CB        10.4030 -169.3270   33.9270 C.3    50  ALA50       0.0319
    113  N         10.5240 -170.3230   39.6460 N.3    52  THR52      -0.1218
    114  CA         9.7400 -170.8370   40.7720 C.3    52  THR52       0.1862
    115  C          8.9010 -172.0440   40.3560 C.2    52  THR52       0.2287
    116  O          8.7300 -172.9830   41.1340 O.2    52  THR52      -0.2866
    117  CB         8.8050 -169.7670   41.3730 C.3    52  THR52       0.1770
    118  OG1        7.9270 -169.2640   40.3600 O.3    52  THR52      -0.2211
    119  CG2        9.6070 -168.6180   41.9690 C.3    52  THR52       0.0375
    120  N          8.5070 -161.3900   48.7510 N.3   128  GLY128     -0.1210
    121  CA         8.0750 -160.6350   47.5760 C.3   128  GLY128      0.1956
    122  C          8.1610 -159.1320   47.7680 C.2   128  GLY128      0.2612
    123  O          8.5440 -158.6510   48.8340 O.2   128  GLY128     -0.2717
    124  N          7.7980 -158.3920   46.7250 N.am  129  SER129     -0.1952
    125  CA         7.8350 -156.9270   46.7560 C.3   129  SER129      0.1924
    126  C          6.8590 -156.3360   47.7760 C.2   129  SER129      0.2314
    127  O          7.0730 -155.2310   48.2780 O.2   129  SER129     -0.2863
    128  CB         7.5440 -156.3540   45.3660 C.3   129  SER129      0.2116
    129  OG         6.3390 -156.8820   44.8410 O.3   129  SER129     -0.2180
    130  N          3.4580 -153.9740   42.7600 N.3   168  GLY168     -0.1225
    131  CA         3.8260 -155.2870   42.2340 C.3   168  GLY168      0.1811
    132  C          2.8130 -156.3780   42.5520 C.2   168  GLY168      0.2280
    133  O          2.8840 -157.4710   41.9910 O.2   168  GLY168     -0.2866
@<TRIPOS>BOND
     1    40    38   am
     2    39    38    2
     3    38    37    1
     4    37    36    1
     5    48    47    2
     6    36    33    1
     7    46    49    1
     8    46    47    1
     9    46    45    1
    10    35    34    2
    11    47    50   am
    12    33    34    1
    13    33    32    1
    14    34    41   am
    15    50    51    1
    16   112   109    1
    17    32    27   am
    18    41    42    1
    19    51    54    1
    20    51    52    1
    21    57    55   ar
    22    42    43    1
    23    54    55    1
    24    55    56   ar
    25    43    44    2
    26    27    28    2
    27    27    26    1
    28   109   108    1
    29   109   110    1
    30    52    53    2
    31    22    21    2
    32   108   105   am
    33    26    25    1
    34    26    29    1
    35    24    23    1
    36   110   111    2
    37   102   100    1
    38    23    20    1
    39    21    25   am
    40    21    20    1
    41   107   104    1
    42    29    31    1
    43    29    30    1
    44   105   106    2
    45   105   104    1
    46    20    19    1
    47   104   103    1
    48   103    98   am
    49   100   101    1
    50   100    97    1
    51    63    62    1
    52    19    10   am
    53    62    59    1
    54    58    59    1
    55    59    60    1
    56    98    97    1
    57    98    99    2
    58    97    96    1
    59    13    14    1
    60    13    12    1
    61    10     9    1
    62    10    11    2
    63    60    61    2
    64   113   114    1
    65    96    94   am
    66    14    15    1
    67    15    16    2
    68     9    12    1
    69     9     8    1
    70    95    94    2
    71    16    18    1
    72    16    17    1
    73   115   114    1
    74   115   116    2
    75   118   117    1
    76    94    93    1
    77    81    79   ar
    78    81    82   ar
    79   114   117    1
    80    79    78   ar
    81   117   119    1
    82    82    80   ar
    83    93    92    1
    84   133   132    2
    85    71    72    1
    86    71    70    1
    87    64    65    1
    88   131   132    1
    89   131   130    1
    90    69    70    1
    91    69    68    1
    92    78    80   ar
    93    78    77    1
    94    92    89   am
    95    65    68    1
    96    65    66    1
    97     6     5    1
    98    77    74    1
    99    89    90    2
   100    89    88    1
   101    66    67    2
   102    74    73    1
   103    74    75    1
   104    86    85    2
   105     1     2    1
   106     5     2    1
   107     5     7    1
   108    88    87    1
   109    88    91    1
   110    85    87   am
   111    85    84    1
   112     2     3    1
   113   129   128    1
   114    75    76    2
   115    84    83    1
   116   128   125    1
   117     3     4    2
   118   124   125    1
   119   124   122   am
   120   125   126    1
   121   121   122    1
   122   121   120    1
   123   122   123    2
   124   126   127    2
