@<TRIPOS>MOLECULE
tmp/5fgkA00.pdb
 159 149 0 0 0
SMALL
GASTEIGER

@<TRIPOS>ATOM
      1  N         -2.4650  -27.8920  138.2900 N.3    27  VAL27      -0.1231
      2  CA        -3.1680  -26.6020  138.1120 C.3    27  VAL27       0.1692
      3  C         -2.4250  -25.3880  138.6850 C.2    27  VAL27       0.2592
      4  O         -2.8390  -24.2410  138.4540 O.2    27  VAL27      -0.2718
      5  CB        -4.6150  -26.6240  138.6640 C.3    27  VAL27       0.0266
      6  CG1       -5.5120  -27.4790  137.7530 C.3    27  VAL27       0.0020
      7  CG2       -4.6650  -27.1050  140.1180 C.3    27  VAL27       0.0020
      8  N         -1.3200  -25.6140  139.3930 N.am   28  GLY28      -0.1957
      9  CA        -0.5620  -24.4970  139.9570 C.3    28  GLY28       0.1869
     10  C          0.8640  -24.8460  140.3250 C.2    28  GLY28       0.2309
     11  O          1.1390  -25.9510  140.7860 O.2    28  GLY28      -0.2863
     12  N          4.8920  -21.7820  147.0740 N.3    32  TYR32      -0.1241
     13  CA         4.2300  -22.8080  147.8910 C.3    32  TYR32       0.1605
     14  C          4.5260  -24.2660  147.5030 C.2    32  TYR32       0.2264
     15  O          4.3730  -25.1600  148.3380 O.2    32  TYR32      -0.2867
     16  CB         2.7030  -22.5810  147.8820 C.3    32  TYR32       0.0534
     17  CG         2.0530  -22.6860  146.5100 C.ar   32  TYR32      -0.0201
     18  CD1        1.7140  -23.9300  145.9650 C.ar   32  TYR32      -0.0009
     19  CD2        1.7780  -21.5400  145.7600 C.ar   32  TYR32      -0.0009
     20  CE1        1.1230  -24.0310  144.7120 C.ar   32  TYR32       0.0417
     21  CE2        1.1950  -21.6270  144.5030 C.ar   32  TYR32       0.0417
     22  CZ         0.8670  -22.8790  143.9870 C.ar   32  TYR32       0.1957
     23  OH         0.2870  -22.9640  142.7540 O.3    32  TYR32      -0.2866
     24  N          0.5820  -27.7630  142.9010 N.3    35  VAL35      -0.1245
     25  CA        -0.8050  -28.1540  143.2350 C.3    35  VAL35       0.1561
     26  C         -1.5080  -28.8320  142.0450 C.2    35  VAL35       0.2260
     27  O         -1.4330  -28.3410  140.9190 O.2    35  VAL35      -0.2867
     28  CB        -1.6260  -26.9640  143.7850 C.3    35  VAL35       0.0252
     29  CG1       -1.4920  -25.7520  142.8870 C.3    35  VAL35       0.0019
     30  CG2       -3.0820  -27.3460  143.9540 C.3    35  VAL35       0.0019
     31  N         -7.8000  -30.7510  145.6100 N.3    50  ALA50      -0.1245
     32  CA        -6.5890  -30.0000  145.3660 C.3    50  ALA50       0.1562
     33  C         -5.4790  -30.6700  146.1780 C.2    50  ALA50       0.2260
     34  O         -5.5660  -30.7460  147.4020 O.2    50  ALA50      -0.2867
     35  CB        -6.7660  -28.5540  145.7760 C.3    50  ALA50       0.0290
     36  N         -1.5610  -30.6020  147.1030 N.3    52  LYS52      -0.1245
     37  CA        -0.3510  -29.7890  147.1260 C.3    52  LYS52       0.1561
     38  C          0.8560  -30.5730  147.6420 C.2    52  LYS52       0.2260
     39  O          0.8100  -31.0650  148.7690 O.2    52  LYS52      -0.2867
     40  CB        -0.5430  -28.5430  148.0070 C.3    52  LYS52       0.0271
     41  CG         0.7700  -27.7830  148.2540 C.3    52  LYS52       0.0035
     42  CD         0.5670  -26.3680  148.7280 C.3    52  LYS52       0.0206
     43  CE         0.1790  -26.3060  150.1730 C.3    52  LYS52       0.1093
     44  NZ         0.1380  -24.8910  150.6230 N.3    52  LYS52      -0.1314
     45  N        -11.1070  -22.7900  153.5580 N.3    79  ILE79      -0.1245
     46  CA       -10.7600  -24.0330  152.8890 C.3    79  ILE79       0.1561
     47  C        -10.0740  -24.9770  153.8870 C.2    79  ILE79       0.2260
     48  O         -9.1950  -24.5610  154.6650 O.2    79  ILE79      -0.2867
     49  CB        -9.9070  -23.7830  151.6140 C.3    79  ILE79       0.0252
     50  CG1      -10.1700  -24.8770  150.5640 C.3    79  ILE79       0.0019
     51  CG2       -8.4440  -23.6970  151.9580 C.3    79  ILE79       0.0019
     52  CD1      -10.0260  -24.4050  149.1810 C.3    79  ILE79       0.0001
     53  N         -6.6730  -30.7470  150.0710 N.3    97  PHE97      -0.1227
     54  CA        -7.7730  -29.8260  150.3600 C.3    97  PHE97       0.1736
     55  C         -8.9650  -30.1350  149.4450 C.2    97  PHE97       0.2595
     56  O         -8.8430  -30.9070  148.4880 O.2    97  PHE97      -0.2718
     57  CB        -7.3560  -28.3910  150.0650 C.3    97  PHE97       0.0547
     58  CG        -6.0780  -27.9520  150.7400 C.ar   97  PHE97      -0.0202
     59  CD1       -6.0730  -27.5520  152.0670 C.ar   97  PHE97      -0.0042
     60  CD2       -4.8860  -27.8970  150.0340 C.ar   97  PHE97      -0.0042
     61  CE1       -4.8960  -27.1230  152.6740 C.ar   97  PHE97      -0.0003
     62  CE2       -3.7130  -27.4680  150.6410 C.ar   97  PHE97      -0.0003
     63  CZ        -3.7220  -27.0900  151.9610 C.ar   97  PHE97      -0.0000
     64  N        -10.1070  -29.5220  149.7430 N.am   98  ASP98      -0.1960
     65  CA       -11.2500  -29.5200  148.8380 C.3    98  ASP98       0.1840
     66  C        -10.8740  -28.6800  147.6210 C.2    98  ASP98       0.2622
     67  O        -10.1450  -27.7050  147.7570 O.2    98  ASP98      -0.2715
     68  CB       -12.4800  -28.9170  149.5160 C.3    98  ASP98       0.1450
     69  CG       -13.2150  -29.9110  150.3910 C.2    98  ASP98       0.3671
     70  OD1      -13.6200  -30.9960  149.8950 O.co2  98  ASP98      -0.2456
     71  OD2      -13.4020  -29.5870  151.5800 O.co2  98  ASP98      -0.2456
     72  N        -11.3480  -29.0780  146.4430 N.am   99  TYR99      -0.1960
     73  CA       -10.9900  -28.3910  145.1930 C.3    99  TYR99       0.1771
     74  C        -11.9690  -27.2630  144.8580 C.2    99  TYR99       0.2619
     75  O        -13.1720  -27.4990  144.7700 O.2    99  TYR99      -0.2715
     76  CB       -10.9230  -29.3880  144.0370 C.3    99  TYR99       0.0574
     77  CG       -10.5140  -28.7340  142.7450 C.ar   99  TYR99      -0.0198
     78  CD1       -9.1970  -28.3440  142.5290 C.ar   99  TYR99      -0.0009
     79  CD2      -11.4480  -28.4800  141.7430 C.ar   99  TYR99      -0.0009
     80  CE1       -8.8130  -27.7250  141.3430 C.ar   99  TYR99       0.0417
     81  CE2      -11.0760  -27.8620  140.5580 C.ar   99  TYR99       0.0417
     82  CZ        -9.7580  -27.4830  140.3680 C.ar   99  TYR99       0.1957
     83  OH        -9.3920  -26.8750  139.2060 O.3    99  TYR99      -0.2866
     84  N        -11.4330  -26.0570  144.6580 N.am  100  ALA100     -0.1977
     85  CA       -12.1970  -24.8660  144.2700 C.3   100  ALA100      0.1597
     86  C        -11.8060  -24.5270  142.8420 C.2   100  ALA100      0.2287
     87  O        -10.6750  -24.1150  142.5940 O.2   100  ALA100     -0.2864
     88  CB       -11.8850  -23.6790  145.2060 C.3   100  ALA100      0.0319
     89  N        -11.9930  -18.5020  141.5790 N.3   103  ASP103     -0.1239
     90  CA       -11.5880  -17.5220  142.5750 C.3   103  ASP103      0.1674
     91  C        -11.9070  -16.1100  142.0900 C.2   103  ASP103      0.2266
     92  O        -12.2940  -15.9120  140.9440 O.2   103  ASP103     -0.2867
     93  CB       -10.1010  -17.6770  142.9110 C.3   103  ASP103      0.1410
     94  CG        -9.2230  -17.6550  141.6880 C.2   103  ASP103      0.3668
     95  OD1       -8.7530  -18.7350  141.2650 O.co2 103  ASP103     -0.2456
     96  OD2       -9.0150  -16.5570  141.1480 O.co2 103  ASP103     -0.2456
     97  N         -9.7330  -14.5200  138.9450 N.3   106  HIS106     -0.1241
     98  CA       -10.2550  -14.9750  137.6380 C.3   106  HIS106      0.1621
     99  C        -11.6720  -14.4820  137.3380 C.2   106  HIS106      0.2264
    100  O        -11.9760  -14.1760  136.1940 O.2   106  HIS106     -0.2867
    101  CB       -10.2150  -16.5070  137.5410 C.3   106  HIS106      0.0745
    102  CG        -8.8330  -17.0660  137.4030 C.ar  106  HIS106      0.0817
    103  ND1       -8.2010  -17.1860  136.1840 N.ar  106  HIS106     -0.2268
    104  CD2       -7.9550  -17.5290  138.3240 C.ar  106  HIS106      0.1154
    105  CE1       -6.9960  -17.7000  136.3600 C.ar  106  HIS106      0.1986
    106  NE2       -6.8220  -17.9160  137.6500 N.ar  106  HIS106     -0.2212
    107  N         -6.9900  -13.2000  144.6200 N.3   148  ALA148     -0.1231
    108  CA        -6.3830  -14.5190  144.3100 C.3   148  ALA148      0.1694
    109  C         -6.6140  -15.5910  145.3900 C.2   148  ALA148      0.2592
    110  O         -6.7360  -16.7600  145.0540 O.2   148  ALA148     -0.2718
    111  CB        -4.8970  -14.3700  144.0360 C.3   148  ALA148      0.0304
    112  N         -6.6850  -15.1540  146.6530 N.am  149  ASN149     -0.1974
    113  CA        -6.8930  -16.0240  147.8120 C.3   149  ASN149      0.1688
    114  C         -8.3450  -16.2940  148.1970 C.2   149  ASN149      0.2292
    115  O         -8.5930  -17.1610  149.0340 O.2   149  ASN149     -0.2864
    116  CB        -6.1640  -15.4400  149.0250 C.3   149  ASN149      0.1181
    117  CG        -4.6630  -15.5500  148.8980 C.2   149  ASN149      0.2629
    118  OD1       -4.1590  -16.3960  148.1640 O.2   149  ASN149     -0.2716
    119  ND2       -3.9400  -14.6920  149.6010 N.am  149  ASN149     -0.0877
    120  N        -11.1940  -18.0280  147.0980 N.3   151  LEU151     -0.1245
    121  CA       -11.5980  -19.0670  146.1620 C.3   151  LEU151      0.1561
    122  C        -13.1180  -19.2250  146.2110 C.2   151  LEU151      0.2260
    123  O        -13.7290  -18.8980  147.2090 O.2   151  LEU151     -0.2867
    124  CB       -10.9310  -20.4010  146.5030 C.3   151  LEU151      0.0270
    125  CG        -9.4400  -20.4450  146.8170 C.3   151  LEU151      0.0019
    126  CD1       -9.0700  -21.8890  147.1900 C.3   151  LEU151      0.0001
    127  CD2       -8.6040  -19.9260  145.6460 C.3   151  LEU151      0.0001
    128  N         -8.4000  -18.8790  151.4620 N.3   165  ALA165     -0.1231
    129  CA        -7.1690  -19.6760  151.3630 C.3   165  ALA165      0.1694
    130  C         -5.9210  -18.8630  151.6460 C.2   165  ALA165      0.2592
    131  O         -5.9760  -17.6430  151.7450 O.2   165  ALA165     -0.2718
    132  CB        -7.0680  -20.3180  149.9800 C.3   165  ALA165      0.0304
    133  N         -4.8070  -19.5750  151.7890 N.am  166  ASP166     -0.1974
    134  CA        -3.4480  -19.0120  151.8840 C.3   166  ASP166      0.1709
    135  C         -3.2300  -18.0090  153.0260 C.2   166  ASP166      0.2293
    136  O         -2.5730  -16.9760  152.8470 O.2   166  ASP166     -0.2864
    137  CB        -3.0390  -18.3980  150.5290 C.3   166  ASP166      0.1436
    138  CG        -1.5250  -18.3330  150.3300 C.2   166  ASP166      0.3671
    139  OD1       -0.7900  -19.1150  150.9690 O.co2 166  ASP166     -0.2456
    140  OD2       -1.0700  -17.4980  149.5160 O.co2 166  ASP166     -0.2456
    141  N        -10.0650  -24.3810  135.5220 N.3   325  ARG325     -0.1245
    142  CA        -8.6250  -24.1580  135.6720 C.3   325  ARG325      0.1563
    143  C         -7.8340  -24.8640  134.5720 C.2   325  ARG325      0.2260
    144  O         -8.1080  -26.0170  134.2380 O.2   325  ARG325     -0.2867
    145  CB        -8.1280  -24.6030  137.0590 C.3   325  ARG325      0.0307
    146  CG        -8.8100  -23.8920  138.2320 C.3   325  ARG325      0.0489
    147  CD        -7.9790  -23.9430  139.5190 C.3   325  ARG325      0.2205
    148  NE        -8.6310  -23.2120  140.6040 N.pl3 325  ARG325     -0.0865
    149  CZ        -8.5960  -21.8920  140.7890 C.cat 325  ARG325      0.5346
    150  NH1       -7.9110  -21.0810  139.9780 N.pl3 325  ARG325      0.1354
    151  NH2       -9.2630  -21.3670  141.8080 N.pl3 325  ARG325      0.1354
    152  N         -1.2970  -27.3840  133.6590 N.3   328  LEU328     -0.1245
    153  CA         0.0670  -26.9190  133.3990 C.3   328  LEU328      0.1561
    154  C          0.9750  -28.1040  133.0790 C.2   328  LEU328      0.2260
    155  O          0.6590  -29.2520  133.4170 O.2   328  LEU328     -0.2867
    156  CB         0.6160  -26.1530  134.6140 C.3   328  LEU328      0.0270
    157  CG        -0.2200  -24.9810  135.1470 C.3   328  LEU328      0.0019
    158  CD1        0.3960  -24.4020  136.4130 C.3   328  LEU328      0.0001
    159  CD2       -0.3920  -23.8850  134.1030 C.3   328  LEU328      0.0001
@<TRIPOS>BOND
     1   154   153    1
     2   154   155    2
     3   153   152    1
     4   153   156    1
     5   159   157    1
     6   144   143    2
     7   143   142    1
     8   156   157    1
     9   157   158    1
    10   141   142    1
    11   142   145    1
    12   103   105   ar
    13   103   102   ar
    14   100    99    2
    15   105   106   ar
    16   145   146    1
    17    99    98    1
    18   102   101    1
    19   102   104   ar
    20   101    98    1
    21    98    97    1
    22   106   104   ar
    23     6     5    1
    24     2     1    1
    25     2     5    1
    26     2     3    1
    27   146   147    1
    28     4     3    2
    29     5     7    1
    30     3     8   am
    31    83    82    1
    32     8     9    1
    33   147   148    1
    34     9    10    1
    35   150   149    1
    36    10    11    2
    37    82    81   ar
    38    82    80   ar
    39    81    79   ar
    40   148   149    2
    41   149   151    1
    42    27    26    2
    43    92    91    2
    44    96    94   ar
    45    95    94   ar
    46    80    78   ar
    47    89    90    1
    48    94    93    1
    49    79    77   ar
    50    26    25    1
    51    91    90    1
    52    78    77   ar
    53    90    93    1
    54    87    86    2
    55    77    76    1
    56    23    22    1
    57    86    85    1
    58    29    28    1
    59    24    25    1
    60    25    28    1
    61    28    30    1
    62    22    21   ar
    63    22    20   ar
    64   111   108    1
    65    76    73    1
    66    85    84    1
    67    85    88    1
    68   108   107    1
    69   108   109    1
    70    21    19   ar
    71    84    74   am
    72    20    18   ar
    73    75    74    2
    74    74    73    1
    75   110   109    2
    76    73    72    1
    77    32    31    1
    78    32    35    1
    79    32    33    1
    80   109   112   am
    81   127   125    1
    82    19    17   ar
    83    18    17   ar
    84   121   122    1
    85   121   124    1
    86   121   120    1
    87    33    34    2
    88   122   123    2
    89    72    66   am
    90   124   125    1
    91    17    16    1
    92   112   113    1
    93   125   126    1
    94    12    13    1
    95    36    37    1
    96    37    38    1
    97    37    40    1
    98    14    13    1
    99    14    15    2
   100    66    67    2
   101    66    65    1
   102    38    39    2
   103   113   114    1
   104   113   116    1
   105    16    13    1
   106    40    41    1
   107   118   117    2
   108   114   115    2
   109    41    42    1
   110    56    55    2
   111    42    43    1
   112    65    68    1
   113    65    64    1
   114   117   116    1
   115   117   119   am
   116    52    50    1
   117    55    64   am
   118    55    54    1
   119   140   138   ar
   120    68    69    1
   121    70    69   ar
   122   132   129    1
   123    60    62   ar
   124    60    58   ar
   125    57    54    1
   126    57    58    1
   127    53    54    1
   128    43    44    1
   129   138   137    1
   130   138   139   ar
   131    69    71   ar
   132   137   134    1
   133    50    49    1
   134    62    63   ar
   135    58    59   ar
   136   129   128    1
   137   129   130    1
   138    49    51    1
   139    49    46    1
   140   130   131    2
   141   130   133   am
   142   133   134    1
   143   134   135    1
   144    63    61   ar
   145    59    61   ar
   146   136   135    2
   147    46    45    1
   148    46    47    1
   149    47    48    2
