@<TRIPOS>MOLECULE
tmp/5fglB00.pdb
 116 107 0 0 0
SMALL
GASTEIGER

@<TRIPOS>ATOM
      1  N          6.4010  -15.9590   12.9840 N.3    62  ARG62      -0.1245
      2  CA         6.8400  -17.2160   12.3820 C.3    62  ARG62       0.1563
      3  C          6.7380  -18.3600   13.3850 C.2    62  ARG62       0.2260
      4  O          6.2750  -19.4410   13.0520 O.2    62  ARG62      -0.2867
      5  CB         8.2750  -17.1120   11.8970 C.3    62  ARG62       0.0307
      6  CG         8.4050  -16.3050   10.6390 C.3    62  ARG62       0.0489
      7  CD         9.8430  -16.1320   10.2510 C.3    62  ARG62       0.2205
      8  NE         9.9470  -15.6250    8.8930 N.pl3  62  ARG62      -0.0865
      9  CZ        10.9490  -14.8800    8.4310 C.cat  62  ARG62       0.5346
     10  NH1       11.9650  -14.5130    9.2170 N.pl3  62  ARG62       0.1354
     11  NH2       10.9190  -14.4700    7.1690 N.pl3  62  ARG62       0.1354
     12  N          7.0900  -19.3060    6.8960 N.3    85  TYR85      -0.1241
     13  CA         8.2400  -18.4450    6.9330 C.3    85  TYR85       0.1605
     14  C          7.9860  -17.1530    6.1620 C.2    85  TYR85       0.2264
     15  O          8.4370  -16.0840    6.5790 O.2    85  TYR85      -0.2867
     16  CB         9.4550  -19.1790    6.3710 C.3    85  TYR85       0.0534
     17  CG        10.7410  -18.4220    6.5600 C.ar   85  TYR85      -0.0201
     18  CD1       11.4950  -18.5540    7.7180 C.ar   85  TYR85      -0.0009
     19  CD2       11.2000  -17.5690    5.5840 C.ar   85  TYR85      -0.0009
     20  CE1       12.6700  -17.8490    7.8900 C.ar   85  TYR85       0.0417
     21  CE2       12.3940  -16.8770    5.7390 C.ar   85  TYR85       0.0417
     22  CZ        13.1140  -17.0090    6.8980 C.ar   85  TYR85       0.1957
     23  OH        14.2670  -16.3000    7.0690 O.3    85  TYR85      -0.2866
     24  N          6.4350  -11.6850    6.4550 N.3    89  GLN89      -0.1245
     25  CA         7.1000  -10.6410    5.7010 C.3    89  GLN89       0.1566
     26  C          6.1560   -9.9130    4.7530 C.2    89  GLN89       0.2260
     27  O          6.4570   -8.8060    4.3710 O.2    89  GLN89      -0.2867
     28  CB         8.2450  -11.1990    4.8830 C.3    89  GLN89       0.0367
     29  CG         9.4620  -11.5930    5.7040 C.3    89  GLN89       0.0905
     30  CD        10.3490  -10.4120    6.0660 C.2    89  GLN89       0.2608
     31  OE1        9.8990   -9.2720    6.1400 O.2    89  GLN89      -0.2717
     32  NE2       11.6280  -10.6830    6.2430 N.am   89  GLN89      -0.0878
     33  N         14.4990   -3.5880    4.2330 N.3   106  GLN106     -0.1245
     34  CA        15.0720   -4.9400    3.9870 C.3   106  GLN106      0.1566
     35  C         15.3660   -5.1600    2.5180 C.2   106  GLN106      0.2260
     36  O         16.3590   -5.7750    2.1860 O.2   106  GLN106     -0.2867
     37  CB        14.1470   -6.0310    4.4570 C.3   106  GLN106      0.0367
     38  CG        14.0090   -6.1280    5.9580 C.3   106  GLN106      0.0905
     39  CD        12.9990   -7.1940    6.3290 C.2   106  GLN106      0.2608
     40  OE1       11.7800   -6.9620    6.3180 O.2   106  GLN106     -0.2717
     41  NE2       13.4970   -8.3690    6.6210 N.am  106  GLN106     -0.0878
     42  N         18.8560   -4.3580    1.4880 N.3   109  LEU109     -0.1245
     43  CA        19.8930   -4.8890    2.3470 C.3   109  LEU109      0.1561
     44  C         21.1640   -5.2360    1.5790 C.2   109  LEU109      0.2260
     45  O         22.2610   -4.9910    2.0620 O.2   109  LEU109     -0.2867
     46  CB        19.3680   -6.0880    3.1410 C.3   109  LEU109      0.0270
     47  CG        20.3150   -6.7440    4.1490 C.3   109  LEU109      0.0019
     48  CD1       20.9450   -5.7420    5.1160 C.3   109  LEU109      0.0001
     49  CD2       19.5450   -7.8120    4.9070 C.3   109  LEU109      0.0001
     50  N         26.3080   -5.5220    7.2650 N.3   117  ALA117     -0.1245
     51  CA        25.4180   -6.6200    6.8660 C.3   117  ALA117      0.1562
     52  C         25.8110   -7.9730    7.4820 C.2   117  ALA117      0.2260
     53  O         24.9450   -8.7490    7.8450 O.2   117  ALA117     -0.2867
     54  CB        25.3370   -6.7280    5.3480 C.3   117  ALA117      0.0290
     55  N         23.1000  -10.1470    9.7030 N.3   121  ARG121     -0.1245
     56  CA        22.4840  -11.4080    9.3430 C.3   121  ARG121      0.1563
     57  C         22.8750  -12.5240   10.3110 C.2   121  ARG121      0.2260
     58  O         22.0490  -13.3900   10.6280 O.2   121  ARG121     -0.2867
     59  CB        22.7280  -11.8010    7.8790 C.3   121  ARG121      0.0307
     60  CG        24.1530  -11.9470    7.4140 C.3   121  ARG121      0.0489
     61  CD        24.1290  -12.2600    5.9260 C.3   121  ARG121      0.2205
     62  NE        25.4610  -12.5150    5.3800 N.pl3 121  ARG121     -0.0865
     63  CZ        26.2340  -11.6090    4.7910 C.cat 121  ARG121      0.5346
     64  NH1       25.8480  -10.3470    4.6500 N.pl3 121  ARG121      0.1354
     65  NH2       27.4130  -11.9670    4.3280 N.pl3 121  ARG121      0.1354
     66  N         19.1540  -13.0360   11.1730 N.3   125  TYR125     -0.1227
     67  CA        18.5450  -13.8650   10.1350 C.3   125  TYR125      0.1736
     68  C         18.9610  -15.3320   10.2250 C.2   125  TYR125      0.2595
     69  O         18.1450  -16.2030    9.9860 O.2   125  TYR125     -0.2718
     70  CB        18.8520  -13.3280    8.7430 C.3   125  TYR125      0.0548
     71  CG        18.1030  -12.0560    8.3440 C.ar  125  TYR125     -0.0200
     72  CD1       16.7180  -12.0180    8.2530 C.ar  125  TYR125     -0.0009
     73  CD2       18.8080  -10.9010    7.9910 C.ar  125  TYR125     -0.0009
     74  CE1       16.0510  -10.8550    7.8400 C.ar  125  TYR125      0.0417
     75  CE2       18.1590   -9.7400    7.5990 C.ar  125  TYR125      0.0417
     76  CZ        16.7850   -9.7170    7.5160 C.ar  125  TYR125      0.1957
     77  OH        16.1550   -8.5480    7.1290 O.3   125  TYR125     -0.2866
     78  N         20.2180  -15.6010   10.5540 N.am  126  ASP126     -0.1974
     79  CA        20.7820  -16.9440   10.4170 C.3   126  ASP126      0.1709
     80  C         20.1140  -17.9960   11.2850 C.2   126  ASP126      0.2293
     81  O         19.8160  -19.0790   10.8070 O.2   126  ASP126     -0.2864
     82  CB        22.2820  -16.9420   10.7390 C.3   126  ASP126      0.1436
     83  CG        23.1260  -16.3350    9.6360 C.2   126  ASP126      0.3671
     84  OD1       22.5800  -15.8390    8.6060 O.co2 126  ASP126     -0.2456
     85  OD2       24.3610  -16.4000    9.8030 O.co2 126  ASP126     -0.2456
     86  N         16.6730  -18.9290    9.9240 N.3   129  LEU129     -0.1245
     87  CA        16.8330  -19.6640    8.6900 C.3   129  LEU129      0.1561
     88  C         17.3210  -21.0770    8.9140 C.2   129  LEU129      0.2260
     89  O         16.8210  -21.9880    8.2840 O.2   129  LEU129     -0.2867
     90  CB        17.7980  -18.9840    7.7530 C.3   129  LEU129      0.0270
     91  CG        17.1610  -18.2090    6.6190 C.3   129  LEU129      0.0019
     92  CD1       18.2950  -17.6140    5.8190 C.3   129  LEU129      0.0001
     93  CD2       16.2830  -19.0890    5.7410 C.3   129  LEU129      0.0001
     94  N         15.4180  -16.6000    0.1900 N.3   156  VAL156     -0.1245
     95  CA        15.8120  -15.2790    0.6670 C.3   156  VAL156      0.1561
     96  C         15.9000  -14.2900   -0.4960 C.2   156  VAL156      0.2260
     97  O         15.4330  -13.1620   -0.3880 O.2   156  VAL156     -0.2867
     98  CB        17.1520  -15.3090    1.4340 C.3   156  VAL156      0.0252
     99  CG1       17.6550  -13.8950    1.7200 C.3   156  VAL156      0.0019
    100  CG2       16.9780  -16.0570    2.7510 C.3   156  VAL156      0.0019
    101  N         12.4130  -13.2220   -1.3460 N.3   159  ILE159     -0.1231
    102  CA        11.8710  -12.3340   -0.3150 C.3   159  ILE159      0.1692
    103  C         12.3820  -10.8930   -0.4830 C.2   159  ILE159      0.2591
    104  O         11.6040   -9.9610   -0.5700 O.2   159  ILE159     -0.2718
    105  CB        12.2280  -12.8210    1.0910 C.3   159  ILE159      0.0266
    106  CG1       11.4640  -14.1070    1.4170 C.3   159  ILE159      0.0019
    107  CG2       11.8610  -11.7730    2.1190 C.3   159  ILE159      0.0020
    108  CD1       11.9760  -14.8120    2.6620 C.3   159  ILE159      0.0001
    109  N         13.6900  -10.7280   -0.5790 N.am  160  LEU160     -0.1980
    110  CA        14.2560   -9.3900   -0.6810 C.3   160  LEU160      0.1596
    111  C         13.7550   -8.6500   -1.8990 C.2   160  LEU160      0.2287
    112  O         13.4710   -7.4520   -1.8390 O.2   160  LEU160     -0.2864
    113  CB        15.7850   -9.4400   -0.7230 C.3   160  LEU160      0.0297
    114  CG        16.4520   -9.9600    0.5440 C.3   160  LEU160      0.0022
    115  CD1       17.9620   -9.8950    0.3680 C.3   160  LEU160      0.0001
    116  CD2       16.0550   -9.1380    1.7540 C.3   160  LEU160      0.0001
@<TRIPOS>BOND
     1   111   112    2
     2   111   110    1
     3   101   102    1
     4   113   110    1
     5   113   114    1
     6   110   109    1
     7   109   103   am
     8   104   103    2
     9    96    97    2
    10    96    95    1
    11   103   102    1
    12   102   105    1
    13    94    95    1
    14   115   114    1
    15   114   116    1
    16    95    98    1
    17   105   106    1
    18   105   107    1
    19   106   108    1
    20    98    99    1
    21    98   100    1
    22    42    43    1
    23    44    45    2
    24    44    43    1
    25    36    35    2
    26    43    46    1
    27    35    34    1
    28    46    47    1
    29    34    33    1
    30    34    37    1
    31    47    49    1
    32    47    48    1
    33    65    63    1
    34    27    26    2
    35    37    38    1
    36    64    63    1
    37    26    25    1
    38    63    62    2
    39    28    25    1
    40    28    29    1
    41    54    51    1
    42    62    61    1
    43    19    21   ar
    44    19    17   ar
    45    25    24    1
    46    29    30    1
    47    21    22   ar
    48    93    91    1
    49    92    91    1
    50    61    60    1
    51    38    39    1
    52    30    31    2
    53    30    32   am
    54    14    15    2
    55    14    13    1
    56    40    39    2
    57    39    41   am
    58    16    17    1
    59    16    13    1
    60    17    18   ar
    61    91    90    1
    62    51    50    1
    63    51    52    1
    64    12    13    1
    65    22    23    1
    66    22    20   ar
    67    77    76    1
    68    11     9    1
    69    60    59    1
    70    52    53    2
    71    76    75   ar
    72    76    74   ar
    73    75    73   ar
    74    18    20   ar
    75    90    87    1
    76    74    72   ar
    77    59    56    1
    78    73    71   ar
    79    72    71   ar
    80    89    88    2
    81    71    70    1
    82     9     8    2
    83     9    10    1
    84    84    83   ar
    85    87    88    1
    86    87    86    1
    87    70    67    1
    88     8     7    1
    89    56    55    1
    90    56    57    1
    91    83    85   ar
    92    83    82    1
    93    69    68    2
    94    67    68    1
    95    67    66    1
    96    68    78   am
    97     7     6    1
    98    57    58    2
    99    79    78    1
   100    79    82    1
   101    79    80    1
   102     6     5    1
   103    81    80    2
   104     5     2    1
   105     2     1    1
   106     2     3    1
   107     4     3    2
