@<TRIPOS>MOLECULE
tmp/5fgnA00.pdb
 106 100 0 0 0
SMALL
GASTEIGER

@<TRIPOS>ATOM
      1  N         36.7980  -45.2900  -36.5680 N.3    50  LEU50      -0.1245
      2  CA        37.7850  -44.3070  -36.1560 C.3    50  LEU50       0.1561
      3  C         39.1550  -44.9410  -36.0750 C.2    50  LEU50       0.2260
      4  O         40.1560  -44.2830  -36.3170 O.2    50  LEU50      -0.2867
      5  CB        37.4170  -43.6880  -34.8100 C.3    50  LEU50       0.0270
      6  CG        38.4230  -42.6580  -34.2980 C.3    50  LEU50       0.0019
      7  CD1       38.5540  -41.5390  -35.2990 C.3    50  LEU50       0.0001
      8  CD2       38.0020  -42.1230  -32.9480 C.3    50  LEU50       0.0001
      9  N         40.2790  -45.0840  -39.6440 N.3    53  LEU53      -0.1231
     10  CA        40.5580  -43.7330  -40.0830 C.3    53  LEU53       0.1693
     11  C         41.8410  -43.1940  -39.4530 C.2    53  LEU53       0.2592
     12  O         42.5220  -42.3640  -40.0400 O.2    53  LEU53      -0.2718
     13  CB        39.3810  -42.8260  -39.7470 C.3    53  LEU53       0.0284
     14  CG        38.5970  -42.1790  -40.8830 C.3    53  LEU53       0.0019
     15  CD1       38.4590  -43.1190  -42.0340 C.3    53  LEU53       0.0001
     16  CD2       37.2330  -41.7910  -40.3490 C.3    53  LEU53       0.0001
     17  N         42.1690  -43.6610  -38.2550 N.am   54  SER54      -0.1952
     18  CA        43.3520  -43.1700  -37.5590 C.3    54  SER54       0.1924
     19  C         44.5850  -43.8580  -38.0940 C.2    54  SER54       0.2314
     20  O         45.6470  -43.2580  -38.2080 O.2    54  SER54      -0.2863
     21  CB        43.2360  -43.4020  -36.0590 C.3    54  SER54       0.2116
     22  OG        41.9080  -43.2040  -35.6400 O.3    54  SER54      -0.2180
     23  N         45.4800  -41.8970  -41.4630 N.3    57  VAL57      -0.1245
     24  CA        46.2290  -40.6450  -41.3890 C.3    57  VAL57       0.1561
     25  C         47.5750  -40.8070  -40.6820 C.2    57  VAL57       0.2260
     26  O         48.5000  -40.0450  -40.9380 O.2    57  VAL57      -0.2867
     27  CB        45.4310  -39.5220  -40.6870 C.3    57  VAL57       0.0252
     28  CG1       43.9440  -39.7430  -40.8410 C.3    57  VAL57       0.0019
     29  CG2       45.8080  -39.4360  -39.2270 C.3    57  VAL57       0.0019
     30  N         38.9520  -23.7470  -33.9250 N.3    94  LYS94      -0.1245
     31  CA        39.9270  -22.7000  -34.1710 C.3    94  LYS94       0.1561
     32  C         39.9080  -21.6890  -33.0420 C.2    94  LYS94       0.2260
     33  O         40.9560  -21.2660  -32.5640 O.2    94  LYS94      -0.2867
     34  CB        39.6700  -21.9990  -35.5060 C.3    94  LYS94       0.0271
     35  CG        40.8120  -21.0970  -35.9330 C.3    94  LYS94       0.0035
     36  CD        40.3400  -19.9190  -36.7570 C.3    94  LYS94       0.0206
     37  CE        39.8190  -20.3480  -38.1060 C.3    94  LYS94       0.1093
     38  NZ        39.6150  -19.1790  -39.0040 N.3    94  LYS94      -0.1314
     39  N         32.5910  -33.0960  -34.3990 N.3   181  THR181     -0.1203
     40  CA        33.8350  -33.3960  -35.0600 C.3   181  THR181      0.1994
     41  C         35.0020  -32.7060  -34.3760 C.2   181  THR181      0.2617
     42  O         36.1320  -33.1750  -34.4290 O.2   181  THR181     -0.2717
     43  CB        33.7470  -32.9790  -36.5290 C.3   181  THR181      0.1784
     44  OG1       33.6970  -34.1540  -37.3360 O.3   181  THR181     -0.2211
     45  CG2       34.9220  -32.1190  -36.9280 C.3   181  THR181      0.0376
     46  N         34.7220  -31.5920  -33.7160 N.am  182  HIS182     -0.1975
     47  CA        35.7580  -30.8680  -33.0030 C.3   182  HIS182      0.1656
     48  C         36.1140  -31.5760  -31.7130 C.2   182  HIS182      0.2291
     49  O         36.9520  -31.1080  -30.9660 O.2   182  HIS182     -0.2864
     50  CB        35.3210  -29.4360  -32.7280 C.3   182  HIS182      0.0771
     51  CG        35.1830  -28.6090  -33.9680 C.ar  182  HIS182      0.0820
     52  ND1       33.9680  -28.1680  -34.4350 N.ar  182  HIS182     -0.2267
     53  CD2       36.1100  -28.1700  -34.8490 C.ar  182  HIS182      0.1154
     54  CE1       34.1500  -27.4820  -35.5490 C.ar  182  HIS182      0.1986
     55  NE2       35.4420  -27.4650  -35.8170 N.ar  182  HIS182     -0.2212
     56  N         37.0090  -34.9770  -31.8750 N.3   184  ILE184     -0.1231
     57  CA        37.8900  -36.0680  -32.2690 C.3   184  ILE184      0.1692
     58  C         39.3570  -35.6640  -32.2540 C.2   184  ILE184      0.2592
     59  O         39.7490  -34.7110  -32.9150 O.2   184  ILE184     -0.2718
     60  CB        37.5380  -36.5840  -33.6730 C.3   184  ILE184      0.0266
     61  CG1       36.0650  -36.9510  -33.7480 C.3   184  ILE184      0.0019
     62  CG2       38.3710  -37.7880  -34.0190 C.3   184  ILE184      0.0020
     63  CD1       35.6560  -37.4430  -35.0820 C.3   184  ILE184      0.0001
     64  N         40.1670  -36.3940  -31.4950 N.am  185  VAL185     -0.1966
     65  CA        41.6070  -36.1720  -31.4790 C.3   185  VAL185      0.1712
     66  C         42.2790  -37.1790  -32.3960 C.2   185  VAL185      0.2458
     67  O         41.8570  -38.3280  -32.4510 O.2   185  VAL185     -0.2730
     68  CB        42.2030  -36.3040  -30.0560 C.3   185  VAL185      0.0289
     69  CG1       41.6410  -35.2430  -29.1280 C.3   185  VAL185      0.0023
     70  CG2       41.9530  -37.6910  -29.4990 C.3   185  VAL185      0.0023
     71  N         43.3340  -36.7600  -33.1160 N.am  186  PRO186     -0.2716
     72  CA        43.9110  -35.4130  -33.1520 C.3   186  PRO186      0.1536
     73  C         43.4760  -34.5450  -34.3280 C.2   186  PRO186      0.2599
     74  O         44.0440  -33.4720  -34.4920 O.2   186  PRO186     -0.2715
     75  CB        45.3990  -35.6950  -33.2610 C.3   186  PRO186      0.0310
     76  CG        45.4520  -36.9040  -34.0940 C.3   186  PRO186      0.0237
     77  CD        44.2530  -37.7390  -33.7180 C.3   186  PRO186      0.0939
     78  N         42.5140  -34.9900  -35.1300 N.am  187  SER187     -0.1936
     79  CA        42.0460  -34.1900  -36.2480 C.3   187  SER187      0.2055
     80  C         41.6220  -32.8240  -35.7470 C.2   187  SER187      0.2643
     81  O         41.7790  -31.8190  -36.4370 O.2   187  SER187     -0.2714
     82  CB        40.9040  -34.8910  -36.9680 C.3   187  SER187      0.2130
     83  OG        39.9960  -35.4660  -36.0590 O.3   187  SER187     -0.2179
     84  N         41.0590  -32.8370  -34.5390 N.am  188  ASN188     -0.1971
     85  CA        40.8820  -31.6920  -33.6520 C.3   188  ASN188      0.1688
     86  C         41.7120  -30.4590  -33.9020 C.2   188  ASN188      0.2292
     87  O         41.2690  -29.4910  -34.5000 O.2   188  ASN188     -0.2864
     88  CB        41.2000  -32.1260  -32.2250 C.3   188  ASN188      0.1181
     89  CG        39.9840  -32.3150  -31.4040 C.2   188  ASN188      0.2629
     90  OD1       39.9230  -33.2100  -30.5770 O.2   188  ASN188     -0.2716
     91  ND2       38.9870  -31.4820  -31.6310 N.am  188  ASN188     -0.0877
     92  N         43.4530  -29.8230  -37.5260 N.3   191  GLY191     -0.1210
     93  CA        42.4780  -29.0730  -38.2900 C.3   191  GLY191      0.1956
     94  C         42.4060  -27.6050  -37.9140 C.2   191  GLY191      0.2611
     95  O         42.3070  -26.7450  -38.7800 O.2   191  GLY191     -0.2717
     96  N         42.4510  -27.3130  -36.6190 N.am  192  ALA192     -0.1979
     97  CA        42.3970  -25.9400  -36.1480 C.3   192  ALA192      0.1597
     98  C         43.7160  -25.2590  -36.4310 C.2   192  ALA192      0.2287
     99  O         43.7680  -24.0730  -36.7280 O.2   192  ALA192     -0.2864
    100  CB        42.0760  -25.8960  -34.6690 C.3   192  ALA192      0.0319
    101  N         43.8930  -24.4310  -40.2270 N.3   195  SER195     -0.1217
    102  CA        42.9140  -23.3550  -40.3580 C.3   195  SER195      0.1889
    103  C         43.4340  -22.0320  -39.8040 C.2   195  SER195      0.2288
    104  O         43.1220  -20.9720  -40.3350 O.2   195  SER195     -0.2866
    105  CB        41.6060  -23.7230  -39.6570 C.3   195  SER195      0.2089
    106  OG        40.6170  -22.7340  -39.8840 O.3   195  SER195     -0.2183
@<TRIPOS>BOND
     1    15    14    1
     2    23    24    1
     3    24    27    1
     4    24    25    1
     5    26    25    2
     6    14    16    1
     7    14    13    1
     8    28    27    1
     9    27    29    1
    10   102   101    1
    11   102   103    1
    12   102   105    1
    13   104   103    2
    14    10    13    1
    15    10     9    1
    16    10    11    1
    17    12    11    2
    18   106   105    1
    19    11    17   am
    20    38    37    1
    21    95    94    2
    22    93    94    1
    23    93    92    1
    24    17    18    1
    25    20    19    2
    26    37    36    1
    27    19    18    1
    28    94    96   am
    29    18    21    1
    30    44    43    1
    31    82    79    1
    32    82    83    1
    33    45    43    1
    34    36    35    1
    35    99    98    2
    36    96    97    1
    37     1     2    1
    38    43    40    1
    39    81    80    2
    40    98    97    1
    41     4     3    2
    42    79    80    1
    43    79    78    1
    44     2     3    1
    45     2     5    1
    46    97   100    1
    47    21    22    1
    48    35    34    1
    49    55    54   ar
    50    55    53   ar
    51    80    84   am
    52    54    52   ar
    53    34    31    1
    54     7     6    1
    55    78    73   am
    56    63    61    1
    57    40    39    1
    58    40    41    1
    59    53    51   ar
    60     5     6    1
    61    84    85    1
    62    87    86    2
    63    74    73    2
    64    52    51   ar
    65    42    41    2
    66    41    46   am
    67    73    72    1
    68     6     8    1
    69    31    30    1
    70    31    32    1
    71    76    77    1
    72    76    75    1
    73    62    60    1
    74    51    50    1
    75    86    85    1
    76    61    60    1
    77    77    71    1
    78    46    47    1
    79    60    57    1
    80    85    88    1
    81    75    72    1
    82    72    71    1
    83    71    66   am
    84    32    33    2
    85    47    50    1
    86    47    48    1
    87    59    58    2
    88    67    66    2
    89    66    65    1
    90    57    58    1
    91    57    56    1
    92    58    64   am
    93    88    89    1
    94    48    49    2
    95    91    89   am
    96    64    65    1
    97    65    68    1
    98    89    90    2
    99    68    70    1
   100    68    69    1
