@<TRIPOS>MOLECULE
tmp/5fgnA01.pdb
 215 204 0 0 0
SMALL
GASTEIGER

@<TRIPOS>ATOM
      1  N         49.6470  -33.9680  -26.5760 N.3    77  ILE77      -0.1245
      2  CA        48.6120  -32.9410  -26.7240 C.3    77  ILE77       0.1561
      3  C         47.2050  -33.5230  -26.6810 C.2    77  ILE77       0.2260
      4  O         46.2990  -32.9180  -26.1230 O.2    77  ILE77      -0.2867
      5  CB        48.7650  -32.1550  -28.0320 C.3    77  ILE77       0.0252
      6  CG1       49.9630  -31.2190  -27.9560 C.3    77  ILE77       0.0019
      7  CG2       47.5390  -31.3300  -28.2960 C.3    77  ILE77       0.0019
      8  CD1       50.1250  -30.3820  -29.1760 C.3    77  ILE77       0.0001
      9  N         46.3000  -33.8450  -23.1370 N.3    80  ALA80      -0.1231
     10  CA        45.9650  -32.5380  -22.6000 C.3    80  ALA80       0.1694
     11  C         44.5950  -32.0470  -23.0580 C.2    80  ALA80       0.2591
     12  O         43.9050  -31.3490  -22.3220 O.2    80  ALA80      -0.2718
     13  CB        47.0320  -31.5300  -22.9850 C.3    80  ALA80       0.0304
     14  N         44.2070  -32.4090  -24.2750 N.am   81  VAL81      -0.1980
     15  CA        42.9290  -31.9810  -24.8260 C.3    81  VAL81       0.1595
     16  C         41.8050  -32.9030  -24.3770 C.2    81  VAL81       0.2287
     17  O         40.7710  -32.4360  -23.9200 O.2    81  VAL81      -0.2864
     18  CB        42.9650  -31.9180  -26.3770 C.3    81  VAL81       0.0276
     19  CG1       41.5660  -31.8030  -26.9480 C.3    81  VAL81       0.0022
     20  CG2       43.8190  -30.7520  -26.8450 C.3    81  VAL81       0.0022
     21  N         40.1910  -32.2060  -20.7500 N.3    84  GLN84      -0.1245
     22  CA        39.1650  -31.1840  -20.6720 C.3    84  GLN84       0.1566
     23  C         37.9560  -31.4600  -21.5460 C.2    84  GLN84       0.2260
     24  O         36.8990  -30.9020  -21.3260 O.2    84  GLN84      -0.2867
     25  CB        39.7380  -29.8340  -21.0430 C.3    84  GLN84       0.0367
     26  CG        40.7130  -29.3100  -20.0440 C.3    84  GLN84       0.0905
     27  CD        40.8510  -27.8200  -20.1420 C.2    84  GLN84       0.2608
     28  OE1       39.8820  -27.1170  -20.4330 O.2    84  GLN84      -0.2717
     29  NE2       42.0620  -27.3210  -19.9180 N.am   84  GLN84      -0.0878
     30  N         34.6950  -29.4070  -23.2650 N.3    90  ILE90      -0.1245
     31  CA        35.0630  -28.4180  -24.2670 C.3    90  ILE90       0.1561
     32  C         35.2110  -29.0080  -25.6850 C.2    90  ILE90       0.2260
     33  O         35.2300  -30.2200  -25.8790 O.2    90  ILE90      -0.2867
     34  CB        36.3630  -27.7110  -23.8940 C.3    90  ILE90       0.0252
     35  CG1       37.5390  -28.6690  -24.0480 C.3    90  ILE90       0.0019
     36  CG2       36.2650  -27.1840  -22.4990 C.3    90  ILE90       0.0019
     37  CD1       38.8620  -27.9900  -24.1710 C.3    90  ILE90       0.0001
     38  N         37.6390  -28.5100  -29.2540 N.3    92  PHE92      -0.1241
     39  CA        38.8400  -27.8650  -29.7370 C.3    92  PHE92       0.1605
     40  C         38.6800  -27.4570  -31.1850 C.2    92  PHE92       0.2264
     41  O         38.9790  -28.2170  -32.0740 O.2    92  PHE92      -0.2867
     42  CB        40.0620  -28.7560  -29.5700 C.3    92  PHE92       0.0534
     43  CG        41.3420  -27.9810  -29.5350 C.ar   92  PHE92      -0.0203
     44  CD1       41.9440  -27.5560  -30.7100 C.ar   92  PHE92      -0.0042
     45  CD2       41.9210  -27.6240  -28.3290 C.ar   92  PHE92      -0.0042
     46  CE1       43.1070  -26.8160  -30.6720 C.ar   92  PHE92      -0.0003
     47  CE2       43.0890  -26.8900  -28.2980 C.ar   92  PHE92      -0.0003
     48  CZ        43.6800  -26.4870  -29.4620 C.ar   92  PHE92      -0.0000
     49  N         39.1360  -22.1600  -29.9590 N.3    96  MET96      -0.1230
     50  CA        39.7880  -22.7070  -28.7800 C.3    96  MET96       0.1702
     51  C         41.2950  -22.5900  -28.8880 C.2    96  MET96       0.2592
     52  O         41.9750  -22.4660  -27.8840 O.2    96  MET96      -0.2718
     53  CB        39.3940  -24.1610  -28.5540 C.3    96  MET96       0.0401
     54  CG        39.9010  -24.7350  -27.2290 C.3    96  MET96       0.0596
     55  SD        39.3900  -23.8560  -25.7260 S.3    96  MET96      -0.1393
     56  CE        37.6470  -24.2030  -25.6630 C.3    96  MET96       0.0692
     57  N         41.8180  -22.6350  -30.1070 N.am   97  LEU97      -0.1980
     58  CA        43.2430  -22.4520  -30.3130 C.3    97  LEU97       0.1596
     59  C         43.6110  -21.0030  -30.0800 C.2    97  LEU97       0.2287
     60  O         44.6750  -20.7080  -29.5540 O.2    97  LEU97      -0.2864
     61  CB        43.6510  -22.8820  -31.7180 C.3    97  LEU97       0.0297
     62  CG        45.1140  -22.6870  -32.1430 C.3    97  LEU97       0.0022
     63  CD1       46.0390  -23.5090  -31.2760 C.3    97  LEU97       0.0001
     64  CD2       45.2830  -23.0590  -33.5870 C.3    97  LEU97       0.0001
     65  N         42.1800  -19.1290  -27.9410 N.3    99  ASN99      -0.1225
     66  CA        42.2530  -19.0650  -26.4880 C.3    99  ASN99       0.1785
     67  C         43.6310  -19.4650  -26.0150 C.2    99  ASN99       0.2597
     68  O         44.3310  -18.6830  -25.3890 O.2    99  ASN99      -0.2718
     69  CB        41.2040  -19.9650  -25.8460 C.3    99  ASN99       0.1169
     70  CG        39.7870  -19.4730  -26.0750 C.2    99  ASN99       0.2627
     71  OD1       39.5510  -18.2800  -26.2660 O.2    99  ASN99      -0.2716
     72  ND2       38.8320  -20.3990  -26.0490 N.am   99  ASN99      -0.0877
     73  N         44.0200  -20.6890  -26.3290 N.am  100  VAL100     -0.1966
     74  CA        45.3370  -21.2000  -25.9800 C.3   100  VAL100      0.1727
     75  C         46.4810  -20.2950  -26.4270 C.2   100  VAL100      0.2616
     76  O         47.5060  -20.2120  -25.7650 O.2   100  VAL100     -0.2715
     77  CB        45.5640  -22.5850  -26.5880 C.3   100  VAL100      0.0290
     78  CG1       46.9940  -23.0280  -26.3750 C.3   100  VAL100      0.0023
     79  CG2       44.6030  -23.5810  -25.9860 C.3   100  VAL100      0.0023
     80  N         46.3090  -19.6150  -27.5510 N.am  101  LEU101     -0.1963
     81  CA        47.3860  -18.8060  -28.1000 C.3   101  LEU101      0.1728
     82  C         47.4030  -17.4060  -27.5300 C.2   101  LEU101      0.2616
     83  O         48.4280  -16.7460  -27.5510 O.2   101  LEU101     -0.2715
     84  CB        47.2830  -18.7300  -29.6240 C.3   101  LEU101      0.0311
     85  CG        47.6120  -19.9920  -30.4290 C.3   101  LEU101      0.0022
     86  CD1       47.5150  -19.7130  -31.9140 C.3   101  LEU101      0.0001
     87  CD2       48.9840  -20.5240  -30.0700 C.3   101  LEU101      0.0001
     88  N         46.2650  -16.9540  -27.0190 N.am  102  GLN102     -0.1963
     89  CA        46.1420  -15.6000  -26.5020 C.3   102  GLN102      0.1733
     90  C         46.2000  -15.5590  -24.9810 C.2   102  GLN102      0.2617
     91  O         45.9500  -14.5190  -24.3810 O.2   102  GLN102     -0.2715
     92  CB        44.8370  -14.9710  -26.9890 C.3   102  GLN102      0.0408
     93  CG        45.0070  -13.7730  -27.9010 C.3   102  GLN102      0.0908
     94  CD        43.9690  -13.7400  -29.0130 C.2   102  GLN102      0.2608
     95  OE1       43.1580  -12.8190  -29.0980 O.2   102  GLN102     -0.2717
     96  NE2       43.9970  -14.7490  -29.8790 N.am  102  GLN102     -0.0878
     97  N         46.5380  -16.6790  -24.3530 N.am  103  THR103     -0.1951
     98  CA        46.4610  -16.7730  -22.8930 C.3   103  THR103      0.1897
     99  C         47.7190  -16.2860  -22.1950 C.2   103  THR103      0.2313
    100  O         48.6380  -15.8020  -22.8340 O.2   103  THR103     -0.2863
    101  CB        46.1890  -18.2100  -22.4400 C.3   103  THR103      0.1794
    102  OG1       45.8320  -18.2140  -21.0570 O.3   103  THR103     -0.2208
    103  CG2       47.4190  -19.0680  -22.6400 C.3   103  THR103      0.0378
    104  N         46.8060  -17.1210  -16.1530 N.3   107  GLU107     -0.1231
    105  CA        45.4670  -17.5040  -16.5670 C.3   107  GLU107      0.1699
    106  C         45.3400  -18.9930  -16.8120 C.2   107  GLU107      0.2592
    107  O         44.3230  -19.5870  -16.4880 O.2   107  GLU107     -0.2718
    108  CB        45.0770  -16.7270  -17.8190 C.3   107  GLU107      0.0402
    109  CG        43.7260  -17.0830  -18.3940 C.3   107  GLU107      0.1161
    110  CD        43.2610  -16.0620  -19.4000 C.2   107  GLU107      0.3649
    111  OE1       42.2480  -15.4020  -19.1520 O.co2 107  GLU107     -0.2457
    112  OE2       43.9040  -15.9000  -20.4430 O.co2 107  GLU107     -0.2457
    113  N         46.3800  -19.5960  -17.3700 N.am  108  SER108     -0.1952
    114  CA        46.3310  -20.9990  -17.7550 C.3   108  SER108      0.1924
    115  C         46.7980  -21.9150  -16.6370 C.2   108  SER108      0.2314
    116  O         46.3420  -23.0430  -16.5320 O.2   108  SER108     -0.2863
    117  CB        47.1670  -21.2420  -19.0180 C.3   108  SER108      0.2116
    118  OG        48.4890  -20.7760  -18.8550 O.3   108  SER108     -0.2180
    119  N         44.4740  -23.8520  -14.4860 N.3   111  LEU111     -0.1245
    120  CA        43.8190  -25.0210  -15.0560 C.3   111  LEU111      0.1561
    121  C         44.4620  -26.3070  -14.5920 C.2   111  LEU111      0.2260
    122  O         43.8850  -27.3820  -14.7290 O.2   111  LEU111     -0.2867
    123  CB        43.8530  -24.9670  -16.5790 C.3   111  LEU111      0.0270
    124  CG        42.9500  -23.9620  -17.2790 C.3   111  LEU111      0.0019
    125  CD1       43.2470  -23.9620  -18.7660 C.3   111  LEU111      0.0001
    126  CD2       41.5060  -24.3230  -17.0220 C.3   111  LEU111      0.0001
    127  N         44.9320  -33.6330  -13.5430 N.3   116  TYR116     -0.1241
    128  CA        45.2810  -33.1920  -14.8790 C.3   116  TYR116      0.1605
    129  C         46.7130  -33.5860  -15.2100 C.2   116  TYR116      0.2264
    130  O         46.9710  -34.2040  -16.2370 O.2   116  TYR116     -0.2867
    131  CB        45.1040  -31.6830  -14.9900 C.3   116  TYR116      0.0534
    132  CG        44.9270  -31.1690  -16.3900 C.ar  116  TYR116     -0.0201
    133  CD1       44.9610  -32.0220  -17.4780 C.ar  116  TYR116     -0.0009
    134  CD2       44.7250  -29.8280  -16.6200 C.ar  116  TYR116     -0.0009
    135  CE1       44.7960  -31.5480  -18.7510 C.ar  116  TYR116      0.0417
    136  CE2       44.5570  -29.3440  -17.8850 C.ar  116  TYR116      0.0417
    137  CZ        44.5940  -30.2030  -18.9480 C.ar  116  TYR116      0.1957
    138  OH        44.4240  -29.6990  -20.2110 O.3   116  TYR116     -0.2866
    139  N         42.9240  -30.5060  -33.3690 N.3   189  PHE189     -0.1241
    140  CA        43.7470  -29.3270  -33.2320 C.3   189  PHE189      0.1605
    141  C         44.6470  -29.1530  -34.4190 C.2   189  PHE189      0.2264
    142  O         45.0610  -28.0420  -34.7180 O.2   189  PHE189     -0.2867
    143  CB        44.5660  -29.3830  -31.9360 C.3   189  PHE189      0.0534
    144  CG        45.2280  -30.7060  -31.6760 C.ar  189  PHE189     -0.0203
    145  CD1       44.5710  -31.6960  -30.9760 C.ar  189  PHE189     -0.0042
    146  CD2       46.5210  -30.9490  -32.1100 C.ar  189  PHE189     -0.0042
    147  CE1       45.1860  -32.9000  -30.7350 C.ar  189  PHE189     -0.0003
    148  CE2       47.1350  -32.1530  -31.8670 C.ar  189  PHE189     -0.0003
    149  CZ        46.4710  -33.1270  -31.1870 C.ar  189  PHE189     -0.0000
    150  N         33.8410  -16.5580  -25.6930 N.3   272  SER272     -0.1202
    151  CA        35.1760  -16.4900  -25.1350 C.3   272  SER272      0.2020
    152  C         35.6680  -15.0700  -25.2210 C.2   272  SER272      0.2619
    153  O         35.1560  -14.2660  -25.9780 O.2   272  SER272     -0.2717
    154  CB        36.1340  -17.4320  -25.8570 C.3   272  SER272      0.2103
    155  OG        36.2930  -17.0660  -27.2130 O.3   272  SER272     -0.2182
    156  N         36.6690  -14.7650  -24.4230 N.am  273  THR273     -0.1938
    157  CA        37.1300  -13.4080  -24.2670 C.3   273  THR273      0.2028
    158  C         37.8180  -12.9640  -25.5390 C.2   273  THR273      0.2642
    159  O         37.6060  -11.8570  -26.0220 O.2   273  THR273     -0.2714
    160  CB        38.0770  -13.3090  -23.0640 C.3   273  THR273      0.1808
    161  OG1       37.4090  -13.8250  -21.9020 O.3   273  THR273     -0.2208
    162  CG2       38.5200  -11.8770  -22.8380 C.3   273  THR273      0.0379
    163  N         38.6330  -13.8670  -26.0730 N.am  274  ALA274     -0.1977
    164  CA        39.4170  -13.6430  -27.2740 C.3   274  ALA274      0.1597
    165  C         38.5380  -13.3030  -28.4550 C.2   274  ALA274      0.2287
    166  O         38.9250  -12.5060  -29.2900 O.2   274  ALA274     -0.2864
    167  CB        40.2520  -14.8530  -27.5760 C.3   274  ALA274      0.0319
    168  N         43.4320  -10.8190  -18.6700 N.3   318  SER318     -0.1217
    169  CA        44.6930  -11.3350  -19.1830 C.3   318  SER318      0.1889
    170  C         45.1690  -10.5280  -20.3690 C.2   318  SER318      0.2288
    171  O         46.1100  -10.9130  -21.0540 O.2   318  SER318     -0.2866
    172  CB        44.5640  -12.8090  -19.5650 C.3   318  SER318      0.2089
    173  OG        43.3350  -13.0810  -20.2060 O.3   318  SER318     -0.2183
    174  N         43.3350   -7.9950  -25.6340 N.3   321  LYS321     -0.1245
    175  CA        43.0700   -8.7250  -26.8570 C.3   321  LYS321      0.1561
    176  C         43.2610   -7.8300  -28.0910 C.2   321  LYS321      0.2260
    177  O         42.6150   -8.0090  -29.1200 O.2   321  LYS321     -0.2867
    178  CB        41.6550   -9.3030  -26.8170 C.3   321  LYS321      0.0271
    179  CG        41.3860  -10.2690  -25.6820 C.3   321  LYS321      0.0035
    180  CD        42.3340  -11.4290  -25.7220 C.3   321  LYS321      0.0206
    181  CE        41.8910  -12.5660  -24.8370 C.3   321  LYS321      0.1093
    182  NZ        42.3870  -12.4410  -23.4470 N.3   321  LYS321     -0.1314
    183  N         35.5860  -14.9500  -13.6230 N.3   376  HIS376     -0.1241
    184  CA        36.4700  -15.8680  -14.3040 C.3   376  HIS376      0.1621
    185  C         36.7520  -17.0910  -13.4640 C.2   376  HIS376      0.2264
    186  O         37.2080  -16.9900  -12.3450 O.2   376  HIS376     -0.2867
    187  CB        37.7850  -15.1980  -14.6880 C.3   376  HIS376      0.0745
    188  CG        38.3600  -15.7210  -15.9690 C.ar  376  HIS376      0.0817
    189  ND1       38.4810  -17.0690  -16.2370 N.ar  376  HIS376     -0.2268
    190  CD2       38.8000  -15.0830  -17.0800 C.ar  376  HIS376      0.1154
    191  CE1       38.9820  -17.2340  -17.4440 C.ar  376  HIS376      0.1986
    192  NE2       39.1800  -16.0470  -17.9790 N.ar  376  HIS376     -0.2212
    193  N         33.2570  -24.2090  -17.5000 N.3   457  LEU457     -0.1231
    194  CA        33.8640  -23.0550  -18.1380 C.3   457  LEU457      0.1693
    195  C         32.9910  -22.5500  -19.2760 C.2   457  LEU457      0.2592
    196  O         31.7820  -22.7100  -19.2470 O.2   457  LEU457     -0.2718
    197  CB        35.2620  -23.4060  -18.6080 C.3   457  LEU457      0.0284
    198  CG        36.1110  -23.8240  -17.4110 C.3   457  LEU457      0.0019
    199  CD1       37.5440  -24.1130  -17.8080 C.3   457  LEU457      0.0001
    200  CD2       36.0710  -22.7470  -16.3730 C.3   457  LEU457      0.0001
    201  N         33.5950  -21.9180  -20.2670 N.am  458  HIS458     -0.1962
    202  CA        32.8410  -21.4330  -21.4060 C.3   458  HIS458      0.1787
    203  C         33.4770  -21.8840  -22.7140 C.2   458  HIS458      0.2620
    204  O         33.9470  -23.0120  -22.8250 O.2   458  HIS458     -0.2715
    205  CB        32.7510  -19.9200  -21.3540 C.3   458  HIS458      0.0785
    206  CG        34.0420  -19.2550  -21.0200 C.ar  458  HIS458      0.0821
    207  ND1       34.4230  -18.9800  -19.7290 N.ar  458  HIS458     -0.2267
    208  CD2       35.0440  -18.8050  -21.8080 C.ar  458  HIS458      0.1154
    209  CE1       35.6030  -18.3930  -19.7330 C.ar  458  HIS458      0.1986
    210  NE2       35.9990  -18.2720  -20.9860 N.ar  458  HIS458     -0.2212
    211  N         33.4740  -20.9880  -23.6970 N.am  459  ALA459     -0.1977
    212  CA        34.1960  -21.1690  -24.9480 C.3   459  ALA459      0.1597
    213  C         33.5950  -22.2720  -25.8110 C.2   459  ALA459      0.2287
    214  O         34.2850  -22.9210  -26.5890 O.2   459  ALA459     -0.2864
    215  CB        35.6400  -21.4480  -24.6680 C.3   459  ALA459      0.0319
@<TRIPOS>BOND
     1   142   141    2
     2   141   140    1
     3    64    62    1
     4   139   140    1
     5   140   143    1
     6    62    61    1
     7    62    63    1
     8   146   148   ar
     9   146   144   ar
    10    41    40    2
    11   143   144    1
    12    86    85    1
    13   148   149   ar
    14    61    58    1
    15   144   145   ar
    16   149   147   ar
    17    40    39    1
    18   145   147   ar
    19    44    46   ar
    20    44    43   ar
    21    46    48   ar
    22    85    87    1
    23    85    84    1
    24    58    57    1
    25    58    59    1
    26    57    51   am
    27    59    60    2
    28    49    50    1
    29    96    94   am
    30    39    42    1
    31    39    38    1
    32    84    81    1
    33    42    43    1
    34    43    45   ar
    35    48    47   ar
    36   166   165    2
    37     8     6    1
    38   177   176    2
    39    95    94    2
    40    94    93    1
    41    51    50    1
    42    51    52    2
    43    50    53    1
    44    53    54    1
    45   165   164    1
    46    45    47   ar
    47     7     5    1
    48    81    80    1
    49    81    82    1
    50   176   175    1
    51     5     6    1
    52     5     2    1
    53    65    66    1
    54    93    92    1
    55   167   164    1
    56    83    82    2
    57    80    75   am
    58    82    88   am
    59   164   163    1
    60    54    55    1
    61   155   154    1
    62    88    89    1
    63    92    89    1
    64    19    18    1
    65   175   178    1
    66   175   174    1
    67    20    18    1
    68   178   179    1
    69     2     3    1
    70     2     1    1
    71     3     4    2
    72   214   213    2
    73    77    78    1
    74    77    79    1
    75    77    74    1
    76    89    90    1
    77    66    67    1
    78    66    69    1
    79    75    74    1
    80    75    76    2
    81    18    15    1
    82    73    67   am
    83    73    74    1
    84    71    70    2
    85    70    72   am
    86    70    69    1
    87   163   158   am
    88   159   158    2
    89    67    68    2
    90   153   152    2
    91    33    32    2
    92   154   151    1
    93   213   212    1
    94    55    56    1
    95   180   179    1
    96   180   181    1
    97   150   151    1
    98    32    31    1
    99   158   157    1
   100   152   151    1
   101   152   156   am
   102    90    91    2
   103    90    97   am
   104   212   215    1
   105   212   211    1
   106   181   182    1
   107    15    16    1
   108    15    14    1
   109   156   157    1
   110    16    17    2
   111    97    98    1
   112    14    11   am
   113    31    34    1
   114    31    30    1
   115   157   160    1
   116    37    35    1
   117    35    34    1
   118    34    36    1
   119   211   203   am
   120     9    10    1
   121   160   162    1
   122   160   161    1
   123    11    10    1
   124    11    12    2
   125    13    10    1
   126    98   101    1
   127    98    99    1
   128   100    99    2
   129   204   203    2
   130   203   202    1
   131   103   101    1
   132   101   102    1
   133   208   206   ar
   134   208   210   ar
   135    23    24    2
   136    23    22    1
   137   202   205    1
   138   202   201    1
   139   205   206    1
   140   171   170    2
   141    25    22    1
   142    25    26    1
   143   206   207   ar
   144   210   209   ar
   145    21    22    1
   146   112   110   ar
   147    28    27    2
   148   170   169    1
   149   201   195   am
   150   138   137    1
   151   173   172    1
   152    27    26    1
   153    27    29   am
   154   209   207   ar
   155   172   169    1
   156   110   111   ar
   157   110   109    1
   158   195   196    2
   159   195   194    1
   160   169   168    1
   161   117   118    1
   162   117   114    1
   163   137   135   ar
   164   137   136   ar
   165   125   124    1
   166   135   133   ar
   167   197   194    1
   168   197   198    1
   169   109   108    1
   170   194   193    1
   171   192   191   ar
   172   192   190   ar
   173   136   134   ar
   174   108   105    1
   175   199   198    1
   176   114   113    1
   177   114   115    1
   178   133   132   ar
   179   191   189   ar
   180   198   200    1
   181   113   106   am
   182   124   126    1
   183   124   123    1
   184   190   188   ar
   185   106   105    1
   186   106   107    2
   187   115   116    2
   188   134   132   ar
   189   123   120    1
   190   105   104    1
   191   132   131    1
   192   189   188   ar
   193   130   129    2
   194   188   187    1
   195   129   128    1
   196   120   121    1
   197   120   119    1
   198   131   128    1
   199   128   127    1
   200   122   121    2
   201   187   184    1
   202   184   183    1
   203   184   185    1
   204   185   186    2
