@<TRIPOS>MOLECULE
tmp/5fgzA01.pdb
 125 113 0 0 0
SMALL
GASTEIGER

@<TRIPOS>ATOM
      1  N        -32.0840    5.7920  -51.7510 N.3   404  SER404     -0.1217
      2  CA       -32.5940    5.7560  -53.0970 C.3   404  SER404      0.1889
      3  C        -31.9940    6.9340  -53.9070 C.2   404  SER404      0.2288
      4  O        -31.8420    8.0430  -53.3870 O.2   404  SER404     -0.2866
      5  CB       -34.1430    5.7870  -53.0790 C.3   404  SER404      0.2089
      6  OG       -34.6870    5.0330  -54.1590 O.3   404  SER404     -0.2183
      7  N        -33.2240    7.9180  -57.0790 N.3   406  GLY406     -0.1210
      8  CA       -34.2370    8.5530  -57.9000 C.3   406  GLY406      0.1956
      9  C        -33.7610    8.8080  -59.3170 C.2   406  GLY406      0.2612
     10  O        -33.4720    7.8720  -60.0630 O.2   406  GLY406     -0.2717
     11  N        -33.6810   10.0810  -59.6890 N.am  407  SER407     -0.1952
     12  CA       -33.2390   10.4630  -61.0250 C.3   407  SER407      0.1924
     13  C        -31.8230    9.9700  -61.3010 C.2   407  SER407      0.2314
     14  O        -31.5180    9.5150  -62.4030 O.2   407  SER407     -0.2863
     15  CB       -33.3110   11.9820  -61.1990 C.3   407  SER407      0.2116
     16  OG       -34.6050   12.3880  -61.6070 O.3   407  SER407     -0.2180
     17  N        -31.4960    7.6780  -64.2010 N.3   410  LYS410     -0.1245
     18  CA       -31.8310    7.7920  -65.6040 C.3   410  LYS410      0.1561
     19  C        -30.7580    7.4520  -66.6640 C.2   410  LYS410      0.2260
     20  O        -31.0820    6.8680  -67.6560 O.2   410  LYS410     -0.2867
     21  CB       -32.4780    9.1350  -65.8900 C.3   410  LYS410      0.0271
     22  CG       -33.9350    9.2250  -65.4260 C.3   410  LYS410      0.0035
     23  CD       -34.6240   10.4550  -66.0210 C.3   410  LYS410      0.0206
     24  CE       -36.1390   10.4330  -65.8690 C.3   410  LYS410      0.1093
     25  NZ       -36.4930   10.8760  -64.4950 N.3   410  LYS410     -0.1314
     26  N        -42.9840   14.4080  -64.2670 N.3   450  ASP450     -0.1239
     27  CA       -42.8510   15.4720  -63.2660 C.3   450  ASP450      0.1674
     28  C        -44.0000   16.4820  -63.3530 C.2   450  ASP450      0.2266
     29  O        -44.6380   16.7610  -62.3410 O.2   450  ASP450     -0.2867
     30  CB       -41.5180   16.1740  -63.4670 C.3   450  ASP450      0.1410
     31  CG       -41.0700   16.1600  -64.9620 C.2   450  ASP450      0.3668
     32  OD1      -40.3150   15.2510  -65.4310 O.co2 450  ASP450     -0.2456
     33  OD2      -41.5330   17.0450  -65.6920 O.co2 450  ASP450     -0.2456
     34  N        -34.3510   16.4260  -70.0430 N.3   468  ARG468     -0.1231
     35  CA       -35.4390   16.9390  -69.2520 C.3   468  ARG468      0.1694
     36  C        -35.7790   16.0710  -68.0350 C.2   468  ARG468      0.2592
     37  O        -36.5810   16.4770  -67.1610 O.2   468  ARG468     -0.2718
     38  CB       -36.6320   17.2110  -70.1620 C.3   468  ARG468      0.0321
     39  CG       -36.5150   18.5970  -70.7550 C.3   468  ARG468      0.0489
     40  CD       -37.1220   18.7240  -72.1130 C.3   468  ARG468      0.2205
     41  NE       -38.5610   18.5460  -72.0480 N.pl3 468  ARG468     -0.0865
     42  CZ       -39.3140   18.2570  -73.1010 C.cat 468  ARG468      0.5346
     43  NH1      -38.7620   18.1230  -74.3110 N.pl3 468  ARG468      0.1354
     44  NH2      -40.6210   18.1120  -72.9570 N.pl3 468  ARG468      0.1354
     45  N        -35.1300   14.9030  -67.9680 N.am  469  SER469     -0.1952
     46  CA       -35.4220   13.8880  -66.9610 C.3   469  SER469      0.1924
     47  C        -36.9090   13.5280  -67.0010 C.2   469  SER469      0.2314
     48  O        -37.5860   13.4540  -65.9720 O.2   469  SER469     -0.2863
     49  CB       -34.9910   14.4090  -65.5980 C.3   469  SER469      0.2116
     50  OG       -34.8130   13.3520  -64.6940 O.3   469  SER469     -0.2180
     51  N        -39.8870   11.2130  -67.0760 N.3   471  ASN471     -0.1240
     52  CA       -40.0390    9.8070  -66.5850 C.3   471  ASN471      0.1653
     53  C        -40.6640    8.8370  -67.5600 C.2   471  ASN471      0.2266
     54  O        -40.0810    7.7960  -67.8350 O.2   471  ASN471     -0.2867
     55  CB       -40.8790    9.7330  -65.3120 C.3   471  ASN471      0.1155
     56  CG       -40.2080   10.3930  -64.1480 C.2   471  ASN471      0.2627
     57  OD1      -38.9990   10.3830  -64.0580 O.2   471  ASN471     -0.2716
     58  ND2      -40.9820   10.9930  -63.2650 N.am  471  ASN471     -0.0877
     59  N        -39.6730   -0.0540  -61.6760 N.3   505  ALA505     -0.1245
     60  CA       -39.3700    1.1940  -60.8790 C.3   505  ALA505      0.1562
     61  C        -37.8690    1.4980  -60.7670 C.2   505  ALA505      0.2260
     62  O        -37.4830    2.6360  -60.6260 O.2   505  ALA505     -0.2867
     63  CB       -40.0030    1.1390  -59.4840 C.3   505  ALA505      0.0290
     64  N        -36.6970    4.2970  -62.7150 N.3   508  LEU508     -0.1231
     65  CA       -36.8290    5.6750  -62.1730 C.3   508  LEU508      0.1693
     66  C        -36.2180    5.9130  -60.7920 C.2   508  LEU508      0.2593
     67  O        -36.3110    7.0230  -60.2620 O.2   508  LEU508     -0.2718
     68  CB       -38.2920    6.0930  -62.1080 C.3   508  LEU508      0.0284
     69  CG       -39.1270    5.9910  -63.3850 C.3   508  LEU508      0.0019
     70  CD1      -40.5760    6.3280  -63.0570 C.3   508  LEU508      0.0001
     71  CD2      -38.6020    6.8520  -64.5280 C.3   508  LEU508      0.0001
     72  N        -35.5860    4.9220  -60.1950 N.am  509  GLY509     -0.1942
     73  CA       -34.9010    5.2180  -58.9450 C.3   509  GLY509      0.2014
     74  C        -35.0790    4.2820  -57.7680 C.2   509  GLY509      0.2638
     75  O        -34.6220    4.5710  -56.6320 O.2   509  GLY509     -0.2714
     76  N        -35.7190    3.1500  -58.0280 N.am  510  ALA510     -0.1977
     77  CA       -35.9070    2.1960  -56.9790 C.3   510  ALA510      0.1597
     78  C        -34.5870    1.5340  -56.9200 C.2   510  ALA510      0.2287
     79  O        -34.4050    0.4230  -57.4050 O.2   510  ALA510     -0.2864
     80  CB       -37.0260    1.2270  -57.2930 C.3   510  ALA510      0.0319
     81  N        -32.2680   19.8350  -66.6080 N.3   579  THR579     -0.1218
     82  CA       -32.6150   19.8660  -65.2110 C.3   579  THR579      0.1862
     83  C        -31.5700   20.6180  -64.3640 C.2   579  THR579      0.2287
     84  O        -31.9400   21.2600  -63.3740 O.2   579  THR579     -0.2866
     85  CB       -32.8950   18.4100  -64.7300 C.3   579  THR579      0.1770
     86  OG1      -31.8970   17.4680  -65.2140 O.3   579  THR579     -0.2211
     87  CG2      -34.2580   17.9520  -65.2680 C.3   579  THR579      0.0375
     88  N        -29.3410   15.4620  -62.3000 N.3   596  THR596     -0.1218
     89  CA       -30.0200   15.8710  -61.1000 C.3   596  THR596      0.1862
     90  C        -30.7660   14.6820  -60.5840 C.2   596  THR596      0.2287
     91  O        -31.2040   13.8480  -61.3640 O.2   596  THR596     -0.2866
     92  CB       -31.0020   17.0460  -61.4100 C.3   596  THR596      0.1770
     93  OG1      -31.5840   16.9130  -62.7110 O.3   596  THR596     -0.2211
     94  CG2      -30.2560   18.3820  -61.3470 C.3   596  THR596      0.0375
     95  N        -34.0270   13.6320  -57.7130 N.3   598  THR598     -0.1203
     96  CA       -35.0170   14.0260  -56.7200 C.3   598  THR598      0.1994
     97  C        -35.8480   12.8020  -56.4030 C.2   598  THR598      0.2619
     98  O        -36.2660   12.0940  -57.2890 O.2   598  THR598     -0.2717
     99  CB       -35.8810   15.2280  -57.1990 C.3   598  THR598      0.1784
    100  OG1      -35.0330   16.2530  -57.7420 O.3   598  THR598     -0.2211
    101  CG2      -36.6630   15.8630  -56.0440 C.3   598  THR598      0.0376
    102  N        -36.0170   12.4890  -55.1330 N.am  599  THR599     -0.1938
    103  CA       -36.8400   11.3620  -54.7830 C.3   599  THR599      0.2028
    104  C        -38.2510   11.9020  -54.6050 C.2   599  THR599      0.2642
    105  O        -38.5050   13.1070  -54.7980 O.2   599  THR599     -0.2714
    106  CB       -36.3570   10.6600  -53.5000 C.3   599  THR599      0.1808
    107  OG1      -36.2150   11.6200  -52.4490 O.3   599  THR599     -0.2208
    108  CG2      -35.0570    9.9330  -53.7360 C.3   599  THR599      0.0379
    109  N        -39.1670   11.0200  -54.2160 N.am  600  ASN600     -0.1971
    110  CA       -40.5390   11.4030  -54.0910 C.3   600  ASN600      0.1688
    111  C        -40.6570   11.9580  -52.7130 C.2   600  ASN600      0.2292
    112  O        -39.9540   11.5370  -51.7710 O.2   600  ASN600     -0.2864
    113  CB       -41.5090   10.2540  -54.3260 C.3   600  ASN600      0.1181
    114  CG       -42.5850   10.6140  -55.3400 C.2   600  ASN600      0.2629
    115  OD1      -43.7780   10.6280  -55.0210 O.2   600  ASN600     -0.2716
    116  ND2      -42.1620   10.9310  -56.5740 N.am  600  ASN600     -0.0877
    117  N        -36.9470   20.2560  -56.2450 N.3   632  GLY632     -0.1210
    118  CA       -35.9670   19.9700  -57.2660 C.3   632  GLY632      0.1956
    119  C        -34.6690   19.4740  -56.6830 C.2   632  GLY632      0.2611
    120  O        -34.4900   19.4070  -55.4600 O.2   632  GLY632     -0.2717
    121  N        -33.7630   19.1240  -57.5900 N.am  633  ALA633     -0.1979
    122  CA       -32.4430   18.6300  -57.2300 C.3   633  ALA633      0.1597
    123  C        -31.5180   19.7750  -56.8480 C.2   633  ALA633      0.2287
    124  O        -30.4330   19.5480  -56.3130 O.2   633  ALA633     -0.2864
    125  CB       -31.8610   17.8650  -58.3940 C.3   633  ALA633      0.0319
@<TRIPOS>BOND
     1    43    42    1
     2    42    44    1
     3    42    41    2
     4    40    41    1
     5    40    39    1
     6    39    38    1
     7    38    35    1
     8    34    35    1
     9    35    36    1
    10    36    45   am
    11    36    37    2
    12    45    46    1
    13    54    53    2
    14    20    19    2
    15    53    52    1
    16    51    52    1
    17    47    46    1
    18    47    48    2
    19    46    49    1
    20    19    18    1
    21    81    82    1
    22    52    55    1
    23    23    24    1
    24    23    22    1
    25    21    18    1
    26    21    22    1
    27    24    25    1
    28    33    31   ar
    29    18    17    1
    30    49    50    1
    31    32    31   ar
    32    55    56    1
    33    87    85    1
    34    86    85    1
    35    82    85    1
    36    82    83    1
    37    31    30    1
    38    71    69    1
    39    83    84    2
    40    26    27    1
    41    56    57    2
    42    56    58   am
    43    30    27    1
    44    69    70    1
    45    69    68    1
    46    28    27    1
    47    28    29    2
    48    64    65    1
    49    93    92    1
    50    14    13    2
    51    88    89    1
    52    65    68    1
    53    65    66    1
    54    59    60    1
    55    16    15    1
    56    92    94    1
    57    92    89    1
    58    91    90    2
    59    13    12    1
    60    15    12    1
    61    89    90    1
    62    12    11    1
    63    60    61    1
    64    60    63    1
    65    66    67    2
    66    66    72   am
    67    61    62    2
    68    72    73    1
    69    10     9    2
    70    11     9   am
    71     9     8    1
    72    73    74    1
    73   125   122    1
    74    76    74   am
    75    76    77    1
    76     8     7    1
    77    74    75    2
    78   100    99    1
    79    95    96    1
    80   121   122    1
    81   121   119   am
    82    79    78    2
    83    80    77    1
    84    98    97    2
    85   118   119    1
    86   118   117    1
    87   122   123    1
    88    99    96    1
    89    99   101    1
    90    77    78    1
    91   123   124    2
    92    96    97    1
    93   119   120    2
    94   116   114   am
    95    97   102   am
    96   114   115    2
    97   114   113    1
    98   102   103    1
    99   105   104    2
   100   103   104    1
   101   103   106    1
   102   104   109   am
   103   113   110    1
   104   109   110    1
   105     6     5    1
   106   110   111    1
   107     3     4    2
   108     3     2    1
   109   108   106    1
   110   106   107    1
   111     2     5    1
   112     2     1    1
   113   111   112    2
