@<TRIPOS>MOLECULE
tmp/5fh0A01.pdb
 133 125 0 0 0
SMALL
GASTEIGER

@<TRIPOS>ATOM
      1  N        -21.5310   10.2080  -14.0110 N.3    84  ALA84      -0.1231
      2  CA       -21.5950    9.6410  -15.3520 C.3    84  ALA84       0.1694
      3  C        -20.2140    9.6560  -16.0170 C.2    84  ALA84       0.2591
      4  O        -19.2320   10.1160  -15.4180 O.2    84  ALA84      -0.2718
      5  CB       -22.6100   10.4200  -16.1860 C.3    84  ALA84       0.0304
      6  N        -20.1450    9.1120  -17.2340 N.am   85  ARG85      -0.1980
      7  CA       -19.0240    9.3620  -18.1520 C.3    85  ARG85       0.1597
      8  C        -19.0540   10.8460  -18.5100 C.2    85  ARG85       0.2287
      9  O        -20.1320   11.3900  -18.7780 O.2    85  ARG85      -0.2864
     10  CB       -19.1450    8.5410  -19.4530 C.3    85  ARG85       0.0334
     11  CG       -18.8660    7.0360  -19.3490 C.3    85  ARG85       0.0492
     12  CD       -19.0870    6.2710  -20.6690 C.3    85  ARG85       0.2205
     13  NE       -20.4480    6.3560  -21.2270 N.pl3  85  ARG85      -0.0865
     14  CZ       -20.9060    7.3070  -22.0620 C.cat  85  ARG85       0.5346
     15  NH1      -20.1370    8.3190  -22.4780 N.pl3  85  ARG85       0.1354
     16  NH2      -22.1680    7.2620  -22.4870 N.pl3  85  ARG85       0.1354
     17  N        -17.8540   13.2370  -21.3160 N.3    87  ALA87      -0.1245
     18  CA       -17.3710   13.1190  -22.7010 C.3    87  ALA87       0.1562
     19  C        -16.1230   13.9590  -22.9680 C.2    87  ALA87       0.2260
     20  O        -15.1970   13.5010  -23.6470 O.2    87  ALA87      -0.2867
     21  CB       -18.4660   13.4770  -23.6980 C.3    87  ALA87       0.0290
     22  N        -16.8210    5.7330  -11.2030 N.3   233  TYR233     -0.1227
     23  CA       -18.1710    5.4270  -11.6690 C.3   233  TYR233      0.1736
     24  C        -18.2290    4.7580  -13.0460 C.2   233  TYR233      0.2596
     25  O        -17.5790    5.2020  -13.9790 O.2   233  TYR233     -0.2718
     26  CB       -18.9680    6.7230  -11.7450 C.3   233  TYR233      0.0548
     27  CG       -20.4160    6.5000  -12.0630 C.ar  233  TYR233     -0.0200
     28  CD1      -21.3330    6.3100  -11.0480 C.ar  233  TYR233     -0.0009
     29  CD2      -20.8540    6.4240  -13.3760 C.ar  233  TYR233     -0.0009
     30  CE1      -22.6760    6.0720  -11.3290 C.ar  233  TYR233      0.0417
     31  CE2      -22.1760    6.1880  -13.6780 C.ar  233  TYR233      0.0417
     32  CZ       -23.0900    6.0050  -12.6550 C.ar  233  TYR233      0.1957
     33  OH       -24.4260    5.7860  -12.9610 O.3   233  TYR233     -0.2866
     34  N        -19.0380    3.7050  -13.1580 N.am  234  GLY234     -0.1942
     35  CA       -19.5770    3.2390  -14.4290 C.3   234  GLY234      0.2014
     36  C        -18.5520    2.9700  -15.5140 C.2   234  GLY234      0.2639
     37  O        -17.5320    2.3240  -15.2520 O.2   234  GLY234     -0.2714
     38  N        -18.7640    3.5540  -16.6970 N.am  235  GLY235     -0.1954
     39  CA       -17.8580    3.3740  -17.8350 C.3   235  GLY235      0.1869
     40  C        -16.4880    4.0160  -17.6490 C.2   235  GLY235      0.2309
     41  O        -15.5660    3.7360  -18.4430 O.2   235  GLY235     -0.2863
     42  N        -16.5470   -2.0370  -19.6130 N.3   241  LYS241     -0.1231
     43  CA       -17.9440   -1.6600  -19.9500 C.3   241  LYS241      0.1693
     44  C        -18.0740   -0.9150  -21.2740 C.2   241  LYS241      0.2591
     45  O        -18.9480   -1.2150  -22.0680 O.2   241  LYS241     -0.2718
     46  CB       -18.5260   -0.7890  -18.8250 C.3   241  LYS241      0.0285
     47  CG       -19.9750   -0.3670  -19.0170 C.3   241  LYS241      0.0035
     48  CD       -20.9390   -1.5120  -18.8110 C.3   241  LYS241      0.0206
     49  CE       -22.0660   -1.4360  -19.8230 C.3   241  LYS241      0.1093
     50  NZ       -21.6150   -1.9480  -21.1290 N.3   241  LYS241     -0.1314
     51  N        -17.2270    0.1060  -21.4810 N.am  242  LYS242     -0.1980
     52  CA       -17.2210    0.9180  -22.7190 C.3   242  LYS242      0.1596
     53  C        -15.8140    1.1390  -23.2960 C.2   242  LYS242      0.2287
     54  O        -15.6100    1.1040  -24.5390 O.2   242  LYS242     -0.2864
     55  CB       -17.8550    2.2830  -22.4860 C.3   242  LYS242      0.0298
     56  CG       -19.2850    2.3030  -21.9750 C.3   242  LYS242      0.0038
     57  CD       -20.2650    1.7500  -22.9810 C.3   242  LYS242      0.0206
     58  CE       -21.7110    1.9760  -22.5980 C.3   242  LYS242      0.1093
     59  NZ       -22.6780    1.5180  -23.6260 N.3   242  LYS242     -0.1314
     60  N        -28.3150    5.6230  -25.5140 N.3   284  SER284     -0.1217
     61  CA       -28.8280    5.7560  -24.1640 C.3   284  SER284      0.1889
     62  C        -30.2130    6.4490  -24.1710 C.2   284  SER284      0.2288
     63  O        -30.4780    7.3290  -24.9940 O.2   284  SER284     -0.2866
     64  CB       -27.8240    6.5220  -23.2900 C.3   284  SER284      0.2089
     65  OG       -27.9860    6.1770  -21.9340 O.3   284  SER284     -0.2183
     66  N        -25.7130   -3.7900  -16.9470 N.3   331  PHE331     -0.1241
     67  CA       -25.4630   -2.5680  -16.1950 C.3   331  PHE331      0.1605
     68  C        -26.5190   -1.5770  -16.6040 C.2   331  PHE331      0.2264
     69  O        -26.2720   -0.6980  -17.4370 O.2   331  PHE331     -0.2867
     70  CB       -24.0360   -2.0760  -16.4800 C.3   331  PHE331      0.0534
     71  CG       -23.6270   -0.8730  -15.6750 C.ar  331  PHE331     -0.0203
     72  CD1      -23.4730   -0.9630  -14.2940 C.ar  331  PHE331     -0.0042
     73  CD2      -23.3340    0.3500  -16.2950 C.ar  331  PHE331     -0.0042
     74  CE1      -23.1020    0.1420  -13.5520 C.ar  331  PHE331     -0.0003
     75  CE2      -22.9450    1.4570  -15.5360 C.ar  331  PHE331     -0.0003
     76  CZ       -22.8100    1.3420  -14.1700 C.ar  331  PHE331     -0.0000
     77  N        -29.6250    8.8010  -14.5630 N.3   401  ASN401     -0.1240
     78  CA       -28.9100    7.6420  -15.1150 C.3   401  ASN401      0.1653
     79  C        -28.3140    6.6980  -14.0600 C.2   401  ASN401      0.2266
     80  O        -27.3130    6.0150  -14.2980 O.2   401  ASN401     -0.2867
     81  CB       -27.8430    8.1270  -16.1060 C.3   401  ASN401      0.1155
     82  CG       -27.5750    7.1170  -17.2100 C.2   401  ASN401      0.2627
     83  OD1      -26.4970    6.5330  -17.2810 O.2   401  ASN401     -0.2716
     84  ND2      -28.5690    6.8990  -18.0720 N.am  401  ASN401     -0.0877
     85  N        -28.0730    3.2470  -11.8950 N.3   403  ARG403     -0.1245
     86  CA       -27.8830    1.9280  -12.4770 C.3   403  ARG403      0.1563
     87  C        -28.0650    0.7910  -11.4980 C.2   403  ARG403      0.2260
     88  O        -27.8580    0.9580  -10.2810 O.2   403  ARG403     -0.2867
     89  CB       -26.4580    1.7920  -13.0650 C.3   403  ARG403      0.0307
     90  CG       -26.0960    2.7570  -14.1850 C.3   403  ARG403      0.0489
     91  CD       -26.3950    2.1860  -15.5780 C.3   403  ARG403      0.2205
     92  NE       -26.3080    3.2220  -16.6050 N.pl3 403  ARG403     -0.0865
     93  CZ       -26.5450    3.0380  -17.9120 C.cat 403  ARG403      0.5346
     94  NH1      -26.9020    1.8650  -18.3890 N.pl3 403  ARG403      0.1354
     95  NH2      -26.4450    4.0770  -18.7410 N.pl3 403  ARG403      0.1354
     96  N        -31.0720   13.8140  -23.7460 N.3   463  THR463     -0.1218
     97  CA       -31.3990   14.5680  -22.5270 C.3   463  THR463      0.1862
     98  C        -30.1960   14.7560  -21.6000 C.2   463  THR463      0.2287
     99  O        -29.1430   14.1330  -21.7810 O.2   463  THR463     -0.2866
    100  CB       -32.5750   13.8940  -21.7850 C.3   463  THR463      0.1770
    101  OG1      -32.8860   14.6360  -20.6040 O.3   463  THR463     -0.2211
    102  CG2      -32.2680   12.4280  -21.4200 C.3   463  THR463      0.0375
    103  N        -27.6170   16.6830  -19.9780 N.3   464  ALA464     -0.1245
    104  CA       -27.7870   17.4820  -18.7570 C.3   464  ALA464      0.1562
    105  C        -26.5330   18.2910  -18.4160 C.2   464  ALA464      0.2260
    106  O        -26.6180   19.4930  -18.1300 O.2   464  ALA464     -0.2867
    107  CB       -28.1690   16.5910  -17.5840 C.3   464  ALA464      0.0290
    108  N        -24.1070   18.5570  -20.6680 N.3   466  GLU466     -0.1231
    109  CA       -23.6910   19.1270  -21.9630 C.3   466  GLU466      0.1699
    110  C        -24.7000   20.1090  -22.6040 C.2   466  GLU466      0.2592
    111  O        -24.3630   20.8030  -23.5700 O.2   466  GLU466     -0.2718
    112  CB       -23.3750   17.9920  -22.9330 C.3   466  GLU466      0.0402
    113  CG       -22.2860   17.0640  -22.4180 C.3   466  GLU466      0.1161
    114  CD       -21.8110   16.0790  -23.4660 C.2   466  GLU466      0.3649
    115  OE1      -20.6030   16.0950  -23.7850 O.co2 466  GLU466     -0.2457
    116  OE2      -22.6460   15.2950  -23.9720 O.co2 466  GLU466     -0.2457
    117  N        -25.9220   20.1620  -22.0720 N.am  467  HIS467     -0.1976
    118  CA       -26.9720   21.0560  -22.5680 C.3   467  HIS467      0.1656
    119  C        -28.1820   20.9410  -21.6450 C.2   467  HIS467      0.2291
    120  O        -28.3440   19.9190  -20.9700 O.2   467  HIS467     -0.2864
    121  CB       -27.3710   20.7110  -24.0190 C.3   467  HIS467      0.0771
    122  CG       -27.8480   19.3020  -24.2060 C.ar  467  HIS467      0.0820
    123  ND1      -27.1320   18.3560  -24.9080 N.ar  467  HIS467     -0.2267
    124  CD2      -28.9780   18.6830  -23.7880 C.ar  467  HIS467      0.1154
    125  CE1      -27.7970   17.2130  -24.9080 C.ar  467  HIS467      0.1986
    126  NE2      -28.9180   17.3830  -24.2280 N.ar  467  HIS467     -0.2212
    127  N        -20.4960    8.5110  -28.6430 N.3   481  PRO481     -0.2116
    128  CA       -19.5500    8.6020  -27.5080 C.3   481  PRO481      0.1372
    129  C        -18.4200    7.6200  -27.5310 C.2   481  PRO481      0.2244
    130  O        -17.5680    7.6830  -26.6500 O.2   481  PRO481     -0.2868
    131  CB       -20.4240    8.2840  -26.2830 C.3   481  PRO481      0.0268
    132  CG       -21.7990    8.4840  -26.7500 C.3   481  PRO481      0.0207
    133  CD       -21.7990    8.0110  -28.1650 C.3   481  PRO481      0.0892
@<TRIPOS>BOND
     1   127   133    1
     2   127   128    1
     3   133   132    1
     4   129   128    1
     5   129   130    2
     6   128   131    1
     7   132   131    1
     8    60    61    1
     9    63    62    2
    10   123   125   ar
    11   123   122   ar
    12   125   126   ar
    13    54    53    2
    14   126   124   ar
    15   122   121    1
    16   122   124   ar
    17    62    61    1
    18    61    64    1
    19   121   118    1
    20   116   114   ar
    21   115   114   ar
    22    96    97    1
    23    21    18    1
    24    20    19    2
    25    59    58    1
    26   111   110    2
    27   114   113    1
    28    53    52    1
    29    64    65    1
    30    57    58    1
    31    57    56    1
    32    19    18    1
    33   112   113    1
    34   112   109    1
    35    52    55    1
    36    52    51    1
    37    18    17    1
    38   110   117   am
    39   110   109    1
    40   118   117    1
    41   118   119    1
    42    97   100    1
    43    97    98    1
    44    16    14    1
    45    55    56    1
    46    15    14    1
    47    45    44    2
    48    14    13    2
    49   109   108    1
    50   100   102    1
    51   100   101    1
    52    99    98    2
    53   119   120    2
    54    51    44   am
    55    44    43    1
    56    13    12    1
    57    50    49    1
    58    12    11    1
    59   103   104    1
    60    43    42    1
    61    43    46    1
    62    49    48    1
    63    10    11    1
    64    10     7    1
    65    47    46    1
    66    47    48    1
    67     9     8    2
    68   104   105    1
    69   104   107    1
    70    95    93    1
    71     8     7    1
    72    41    40    2
    73   105   106    2
    74    94    93    1
    75     7     6    1
    76    84    82   am
    77    93    92    2
    78    39    40    1
    79    39    38    1
    80    69    68    2
    81    83    82    2
    82     6     3   am
    83    82    81    1
    84    66    67    1
    85    38    36   am
    86    92    91    1
    87    68    67    1
    88    70    67    1
    89    70    71    1
    90    73    71   ar
    91    73    75   ar
    92     5     2    1
    93    81    78    1
    94     3     4    2
    95     3     2    1
    96    71    72   ar
    97    91    90    1
    98    75    76   ar
    99    36    37    2
   100    36    35    1
   101     2     1    1
   102    78    77    1
   103    78    79    1
   104    35    34    1
   105    80    79    2
   106    72    74   ar
   107    90    89    1
   108    76    74   ar
   109    25    24    2
   110    31    29   ar
   111    31    32   ar
   112    29    27   ar
   113    34    24   am
   114    89    86    1
   115    24    23    1
   116    33    32    1
   117    32    30   ar
   118    86    85    1
   119    86    87    1
   120    27    26    1
   121    27    28   ar
   122    26    23    1
   123    23    22    1
   124    87    88    2
   125    30    28   ar
