@<TRIPOS>MOLECULE
tmp/5fh6A00.pdb
 122 117 0 0 0
SMALL
GASTEIGER

@<TRIPOS>ATOM
      1  N         11.1490   21.8940   17.1460 N.3    31  ILE31      -0.1231
      2  CA        11.9230   23.0320   17.6320 C.3    31  ILE31       0.1692
      3  C         12.3070   22.8470   19.1030 C.2    31  ILE31       0.2592
      4  O         13.2940   23.4120   19.5720 O.2    31  ILE31      -0.2718
      5  CB        11.1420   24.3630   17.4540 C.3    31  ILE31       0.0266
      6  CG1       12.0730   25.5740   17.5900 C.3    31  ILE31       0.0019
      7  CG2        9.9750   24.4530   18.4320 C.3    31  ILE31       0.0020
      8  CD1       13.1610   25.6440   16.5360 C.3    31  ILE31       0.0001
      9  N         11.5390   22.0290   19.8160 N.am   32  PHE32      -0.1976
     10  CA        11.7370   21.8420   21.2490 C.3    32  PHE32       0.1639
     11  C         12.6730   20.7050   21.6170 C.2    32  PHE32       0.2290
     12  O         12.9520   20.5030   22.8000 O.2    32  PHE32      -0.2864
     13  CB        10.3980   21.5880   21.9430 C.3    32  PHE32       0.0560
     14  CG         9.4390   22.7310   21.8440 C.ar   32  PHE32      -0.0200
     15  CD1        9.7040   23.9310   22.4810 C.ar   32  PHE32      -0.0042
     16  CD2        8.2600   22.6000   21.1310 C.ar   32  PHE32      -0.0042
     17  CE1        8.8180   24.9870   22.3950 C.ar   32  PHE32      -0.0003
     18  CE2        7.3670   23.6510   21.0430 C.ar   32  PHE32      -0.0003
     19  CZ         7.6470   24.8470   21.6760 C.ar   32  PHE32      -0.0000
     20  N         15.9450   19.9960   21.1340 N.3    34  ARG34      -0.1182
     21  CA        17.1760   20.3960   21.8180 C.3    34  ARG34       0.1910
     22  C         17.6010   21.8140   21.5810 C.2    34  ARG34       0.2634
     23  O         17.6600   22.2440   20.4470 O.2    34  ARG34      -0.2714
     24  CB        18.3520   19.4450   21.4330 C.2    34  ARG34       0.0007
     25  CG        19.8090   19.6130   22.2340 C.2    34  ARG34       0.0176
     26  CD        20.9240   18.5850   21.8890 C.3    34  ARG34       0.2464
     27  NE        21.7210   18.3430   23.0930 N.pl3  34  ARG34      -0.0815
     28  CZ        22.7420   17.5100   23.2070 C.cat  34  ARG34       0.5349
     29  NH1       23.3930   16.6190   22.3050 N.pl3  34  ARG34       0.1354
     30  NH2       23.2220   17.5360   24.3970 N.pl3  34  ARG34       0.1354
     31  N         18.0250   22.5000   22.6340 N.am   35  LEU35      -0.1963
     32  CA        18.5230   23.8630   22.4780 C.3    35  LEU35       0.1713
     33  C         19.9450   23.9430   21.9260 C.2    35  LEU35       0.2458
     34  O         20.7960   23.1060   22.2390 O.2    35  LEU35      -0.2730
     35  CB        18.4870   24.6070   23.8180 C.3    35  LEU35       0.0310
     36  CG        17.2260   25.3400   24.2680 C.3    35  LEU35       0.0022
     37  CD1       17.3350   25.6730   25.7440 C.3    35  LEU35       0.0001
     38  CD2       17.0540   26.6170   23.4650 C.3    35  LEU35       0.0001
     39  N         20.1970   24.9600   21.0860 N.am   36  PRO36      -0.2727
     40  CA        21.5410   25.3140   20.6270 C.3    36  PRO36       0.1402
     41  C         22.4020   25.6490   21.8380 C.2    36  PRO36       0.2269
     42  O         21.8610   26.0260   22.8800 O.2    36  PRO36      -0.2865
     43  CB        21.3100   26.5370   19.7310 C.3    36  PRO36       0.0296
     44  CG        19.9730   27.0660   20.1380 C.3    36  PRO36       0.0237
     45  CD        19.1750   25.8530   20.5140 C.3    36  PRO36       0.0939
     46  N         23.6530   30.7880   21.3030 N.3    41  LEU41      -0.1245
     47  CA        22.4860   31.5940   21.6410 C.3    41  LEU41       0.1561
     48  C         22.5510   32.0680   23.0930 C.2    41  LEU41       0.2260
     49  O         21.7320   31.6560   23.9210 O.2    41  LEU41      -0.2867
     50  CB        21.2060   30.7900   21.4020 C.3    41  LEU41       0.0270
     51  CG        19.9400   31.5570   21.0290 C.3    41  LEU41       0.0019
     52  CD1       20.1020   32.1950   19.6570 C.3    41  LEU41       0.0001
     53  CD2       18.7410   30.6210   21.0450 C.3    41  LEU41       0.0001
     54  N         19.4460   33.6120   24.9900 N.3    44  TYR44      -0.1241
     55  CA        18.4270   32.7370   25.5560 C.3    44  TYR44       0.1605
     56  C         18.7760   32.4020   27.0060 C.2    44  TYR44       0.2264
     57  O         17.9030   32.3900   27.8720 O.2    44  TYR44      -0.2867
     58  CB        18.2710   31.4510   24.7430 C.3    44  TYR44       0.0534
     59  CG        17.0640   30.6430   25.1660 C.ar   44  TYR44      -0.0201
     60  CD1       15.8060   30.9420   24.6620 C.ar   44  TYR44      -0.0009
     61  CD2       17.1730   29.6000   26.0810 C.ar   44  TYR44      -0.0009
     62  CE1       14.6930   30.2280   25.0440 C.ar   44  TYR44       0.0417
     63  CE2       16.0570   28.8750   26.4700 C.ar   44  TYR44       0.0417
     64  CZ        14.8210   29.1940   25.9440 C.ar   44  TYR44       0.1957
     65  OH        13.7000   28.4870   26.3170 O.3    44  TYR44      -0.2866
     66  N         15.3910   24.6950   29.4490 N.3    52  MET52      -0.1230
     67  CA        14.9450   23.3060   29.3630 C.3    52  MET52       0.1702
     68  C         14.6800   22.8700   27.9200 C.2    52  MET52       0.2592
     69  O         14.1220   23.6320   27.1300 O.2    52  MET52      -0.2718
     70  CB        13.6730   23.1280   30.2020 C.3    52  MET52       0.0401
     71  CG        13.2470   21.6910   30.4620 C.3    52  MET52       0.0596
     72  SD        14.5430   20.7190   31.2330 S.3    52  MET52      -0.1393
     73  CE        14.4970   21.3320   32.9160 C.3    52  MET52       0.0692
     74  N         15.0730   21.6470   27.5730 N.am   53  ASP53      -0.1974
     75  CA        14.6540   21.0640   26.2970 C.3    53  ASP53       0.1709
     76  C         14.2890   19.5850   26.4750 C.2    53  ASP53       0.2293
     77  O         14.4200   19.0390   27.5710 O.2    53  ASP53      -0.2864
     78  CB        15.7370   21.2740   25.2190 C.3    53  ASP53       0.1436
     79  CG        17.0590   20.5840   25.5380 C.2    53  ASP53       0.3671
     80  OD1       17.0830   19.6510   26.3570 O.co2  53  ASP53      -0.2456
     81  OD2       18.0930   20.9960   24.9690 O.co2  53  ASP53      -0.2456
     82  N          9.5750   24.2230   30.5030 N.3    79  MET79      -0.1245
     83  CA        10.1400   24.4220   29.1680 C.3    79  MET79       0.1570
     84  C          9.2390   25.2700   28.2760 C.2    79  MET79       0.2261
     85  O          9.7160   26.1640   27.5760 O.2    79  MET79      -0.2867
     86  CB        10.4190   23.0770   28.4890 C.3    79  MET79       0.0387
     87  CG        10.9200   23.2180   27.0560 C.3    79  MET79       0.0595
     88  SD        11.1000   21.6610   26.1560 S.3    79  MET79      -0.1393
     89  CE         9.3990   21.1290   26.0710 C.3    79  MET79       0.0692
     90  N          9.7690   29.0300   26.5080 N.3    83  ALA83      -0.1245
     91  CA         9.5610   29.3070   25.0900 C.3    83  ALA83       0.1562
     92  C          8.5990   30.4640   24.8910 C.2    83  ALA83       0.2260
     93  O          8.8040   31.3140   24.0280 O.2    83  ALA83      -0.2867
     94  CB         9.0530   28.0650   24.3690 C.3    83  ALA83       0.0290
     95  N         10.5020   33.8060   25.8780 N.3    86  TYR86      -0.1227
     96  CA        11.5630   34.2520   24.9860 C.3    86  TYR86       0.1736
     97  C         11.0260   34.6180   23.6090 C.2    86  TYR86       0.2595
     98  O         11.5850   35.4630   22.9110 O.2    86  TYR86      -0.2718
     99  CB        12.6240   33.1600   24.8590 C.3    86  TYR86       0.0548
    100  CG        13.8240   33.5680   24.0460 C.ar   86  TYR86      -0.0200
    101  CD1       14.8720   34.2580   24.6370 C.ar   86  TYR86      -0.0009
    102  CD2       13.9110   33.2730   22.6920 C.ar   86  TYR86      -0.0009
    103  CE1       15.9740   34.6390   23.9080 C.ar   86  TYR86       0.0417
    104  CE2       15.0120   33.6530   21.9500 C.ar   86  TYR86       0.0417
    105  CZ        16.0410   34.3360   22.5640 C.ar   86  TYR86       0.1957
    106  OH        17.1430   34.7200   21.8320 O.3    86  TYR86      -0.2866
    107  N          9.9420   33.9590   23.2240 N.am   87  ASN87      -0.1974
    108  CA         9.3150   34.1710   21.9290 C.3    87  ASN87       0.1688
    109  C          8.0710   35.0300   22.1250 C.2    87  ASN87       0.2292
    110  O          7.4640   34.9900   23.1940 O.2    87  ASN87      -0.2864
    111  CB         8.9460   32.8310   21.2950 C.3    87  ASN87       0.1181
    112  CG        10.1540   31.9390   21.0680 C.2    87  ASN87       0.2629
    113  OD1       10.7950   31.9920   20.0200 O.2    87  ASN87      -0.2716
    114  ND2       10.4640   31.1020   22.0570 N.am   87  ASN87      -0.0877
    115  N          6.5720   29.2260   17.6740 N.3    93  ILE93      -0.1245
    116  CA         7.0950   28.4540   18.7810 C.3    93  ILE93       0.1561
    117  C          6.1620   28.6120   19.9670 C.2    93  ILE93       0.2260
    118  O          5.8120   27.6370   20.6340 O.2    93  ILE93      -0.2867
    119  CB         8.5140   28.9050   19.1430 C.3    93  ILE93       0.0252
    120  CG1        9.4400   28.6860   17.9460 C.3    93  ILE93       0.0019
    121  CG2        9.0160   28.1650   20.3780 C.3    93  ILE93       0.0019
    122  CD1       10.8070   29.2730   18.1220 C.3    93  ILE93       0.0001
@<TRIPOS>BOND
     1     8     6    1
     2     1     2    1
     3     5     6    1
     4     5     2    1
     5     5     7    1
     6     2     3    1
     7   115   116    1
     8   120   122    1
     9   120   119    1
    10   116   119    1
    11   116   117    1
    12     3     4    2
    13     3     9   am
    14   119   121    1
    15    52    51    1
    16    43    44    1
    17    43    40    1
    18     9    10    1
    19   117   118    2
    20   113   112    2
    21    44    45    1
    22    23    22    2
    23    45    39    1
    24    40    39    1
    25    40    41    1
    26    51    53    1
    27    51    50    1
    28    18    16   ar
    29    18    19   ar
    30   112   111    1
    31   112   114   am
    32    39    33   am
    33    16    14   ar
    34    20    21    1
    35    10    11    1
    36    10    13    1
    37   111   108    1
    38    46    47    1
    39    50    47    1
    40    24    21    1
    41    24    25    2
    42    22    21    1
    43    22    31   am
    44    11    12    2
    45    47    48    1
    46    19    17   ar
    47   106   105    1
    48    41    42    2
    49    14    13    1
    50    14    15   ar
    51    26    25    1
    52    26    27    1
    53    33    34    2
    54    33    32    1
    55   108   109    1
    56   108   107    1
    57   104   105   ar
    58   104   102   ar
    59   109   110    2
    60    29    28    1
    61    17    15   ar
    62    32    31    1
    63    32    35    1
    64   105   103   ar
    65   102   100   ar
    66    98    97    2
    67    48    49    2
    68    27    28    2
    69    28    30    1
    70   107    97   am
    71    38    36    1
    72    97    96    1
    73    35    36    1
    74   103   101   ar
    75    93    92    2
    76   100   101   ar
    77   100    99    1
    78    36    37    1
    79    94    91    1
    80    60    62   ar
    81    60    59   ar
    82    58    59    1
    83    58    55    1
    84    99    96    1
    85    92    91    1
    86    81    79   ar
    87    96    95    1
    88    54    55    1
    89    62    64   ar
    90    91    90    1
    91    59    61   ar
    92    78    79    1
    93    78    75    1
    94    79    80   ar
    95    55    56    1
    96    64    65    1
    97    64    63   ar
    98    89    88    1
    99    61    63   ar
   100    88    87    1
   101    75    76    1
   102    75    74    1
   103    76    77    2
   104    56    57    2
   105    87    86    1
   106    69    68    2
   107    74    68   am
   108    85    84    2
   109    68    67    1
   110    84    83    1
   111    86    83    1
   112    83    82    1
   113    67    66    1
   114    67    70    1
   115    70    71    1
   116    71    72    1
   117    72    73    1
