@<TRIPOS>MOLECULE
tmp/5fh7A00.pdb
 130 125 0 0 0
SMALL
GASTEIGER

@<TRIPOS>ATOM
      1  N          9.2650    9.9430   23.6680 N.3    32  ILE32      -0.1231
      2  CA        10.0760    9.3110   24.6900 C.3    32  ILE32       0.1692
      3  C         10.3060    7.8300   24.3630 C.2    32  ILE32       0.2592
      4  O         11.2820    7.2420   24.8420 O.2    32  ILE32      -0.2718
      5  CB         9.4380    9.4780   26.1120 C.3    32  ILE32       0.0266
      6  CG1       10.3940    9.1200   27.2580 C.3    32  ILE32       0.0019
      7  CG2        8.1920    8.6590   26.3200 C.3    32  ILE32       0.0020
      8  CD1       11.5370   10.0940   27.4000 C.3    32  ILE32       0.0001
      9  N          9.4130    7.1870   23.6220 N.am   33  PHE33      -0.1976
     10  CA         9.4470    5.7640   23.3830 C.3    33  PHE33       0.1639
     11  C         10.3190    5.3180   22.2190 C.2    33  PHE33       0.2290
     12  O         10.4860    4.1520   21.9910 O.2    33  PHE33      -0.2864
     13  CB         8.0290    5.2190   23.1490 C.3    33  PHE33       0.0560
     14  CG         7.0920    5.4010   24.3280 C.ar   33  PHE33      -0.0200
     15  CD1        7.2130    4.6090   25.4350 C.ar   33  PHE33      -0.0042
     16  CD2        6.1820    6.4170   24.3770 C.ar   33  PHE33      -0.0042
     17  CE1        6.3200    4.7610   26.5070 C.ar   33  PHE33      -0.0003
     18  CE2        5.3360    6.6150   25.4660 C.ar   33  PHE33      -0.0003
     19  CZ         5.4420    5.7740   26.5660 C.ar   33  PHE33      -0.0000
     20  N         13.6280    5.4910   21.5520 N.3    35  ARG35      -0.1231
     21  CA        14.8450    4.7930   21.9060 C.3    35  ARG35       0.1694
     22  C         15.0420    4.7460   23.4150 C.2    35  ARG35       0.2592
     23  O         15.1200    5.7800   24.0950 O.2    35  ARG35      -0.2718
     24  CB        16.0650    5.4810   21.2480 C.3    35  ARG35       0.0321
     25  CG        17.3210    4.7070   21.4270 C.3    35  ARG35       0.0489
     26  CD        17.3720    3.4960   20.4980 C.3    35  ARG35       0.2205
     27  NE        18.6660    2.8250   20.6760 N.pl3  35  ARG35      -0.0865
     28  CZ        18.9210    1.7890   21.4850 C.cat  35  ARG35       0.5346
     29  NH1       17.9600    1.1420   22.1910 N.pl3  35  ARG35       0.1354
     30  NH2       20.1690    1.3370   21.5680 N.pl3  35  ARG35       0.1354
     31  N         15.2150    3.5280   23.9490 N.am   36  LEU36      -0.1966
     32  CA        15.4690    3.3650   25.3790 C.3    36  LEU36       0.1713
     33  C         16.8620    3.8620   25.6950 C.2    36  LEU36       0.2458
     34  O         17.7600    3.5460   24.9220 O.2    36  LEU36      -0.2730
     35  CB        15.3530    1.8810   25.7160 C.3    36  LEU36       0.0310
     36  CG        15.1620    1.5110   27.2050 C.3    36  LEU36       0.0022
     37  CD1       13.9760    2.1100   27.8960 C.3    36  LEU36       0.0001
     38  CD2       15.1580   -0.0010   27.4310 C.3    36  LEU36       0.0001
     39  N         17.0390    4.6270   26.8000 N.am   37  PRO37      -0.2727
     40  CA        18.3580    4.9840   27.2860 C.3    37  PRO37       0.1402
     41  C         19.1350    3.7570   27.7840 C.2    37  PRO37       0.2269
     42  O         18.6140    2.6570   27.7860 O.2    37  PRO37      -0.2865
     43  CB        18.0340    5.9220   28.4390 C.3    37  PRO37       0.0296
     44  CG        16.6790    6.4710   28.1640 C.3    37  PRO37       0.0237
     45  CD        15.9690    5.3340   27.5160 C.3    37  PRO37       0.0939
     46  N         19.1620    4.9510   33.2870 N.3    42  LEU42      -0.1245
     47  CA        17.9710    4.5260   34.0110 C.3    42  LEU42       0.1561
     48  C         18.4270    3.3750   34.8940 C.2    42  LEU42       0.2260
     49  O         18.2960    2.2280   34.4890 O.2    42  LEU42      -0.2867
     50  CB        16.8620    4.0700   33.0720 C.3    42  LEU42       0.0270
     51  CG        16.3160    5.1170   32.1160 C.3    42  LEU42       0.0019
     52  CD1       15.4130    4.4580   31.1120 C.3    42  LEU42       0.0001
     53  CD2       15.5650    6.1970   32.8760 C.3    42  LEU42       0.0001
     54  N         16.4750    0.3000   35.4340 N.3    45  TYR45      -0.1241
     55  CA        15.5670   -0.1530   34.3310 C.3    45  TYR45       0.1605
     56  C         15.8310   -1.5640   33.8500 C.2    45  TYR45       0.2264
     57  O         14.9620   -2.3980   33.7860 O.2    45  TYR45      -0.2867
     58  CB        15.6370    0.7820   33.1130 C.3    45  TYR45       0.0534
     59  CG        14.4360    0.6480   32.1960 C.ar   45  TYR45      -0.0201
     60  CD1       14.3800   -0.3110   31.2180 C.ar   45  TYR45      -0.0009
     61  CD2       13.3540    1.5100   32.3450 C.ar   45  TYR45      -0.0009
     62  CE1       13.2440   -0.4340   30.3960 C.ar   45  TYR45       0.0417
     63  CE2       12.2230    1.3840   31.5400 C.ar   45  TYR45       0.0417
     64  CZ        12.1790    0.3980   30.5950 C.ar   45  TYR45       0.1957
     65  OH        11.0640    0.2870   29.8120 O.3    45  TYR45      -0.2866
     66  N         12.1460   -2.8880   25.3780 N.3    53  MET53      -0.1230
     67  CA        11.5440   -2.7010   24.0650 C.3    53  MET53       0.1702
     68  C         11.4140   -1.2190   23.7950 C.2    53  MET53       0.2592
     69  O         11.0940   -0.4310   24.6780 O.2    53  MET53      -0.2718
     70  CB        10.1400   -3.3390   24.0490 C.3    53  MET53       0.0401
     71  CG         9.4560   -3.3500   22.6930 C.3    53  MET53       0.0596
     72  SD        10.3500   -4.1480   21.3530 S.3    53  MET53      -0.1393
     73  CE        10.4590   -5.7530   22.0830 C.3    53  MET53       0.0692
     74  N         11.7060   -0.8030   22.5530 N.am   54  ASP54      -0.1974
     75  CA        11.4360    0.5410   22.1150 C.3    54  ASP54       0.1709
     76  C         10.9790    0.5460   20.7100 C.2    54  ASP54       0.2293
     77  O         10.9730   -0.4710   20.0640 O.2    54  ASP54      -0.2864
     78  CB        12.6540    1.4430   22.4020 C.3    54  ASP54       0.1436
     79  CG        13.9180    1.0530   21.6710 C.2    54  ASP54       0.3671
     80  OD1       13.8560    0.4200   20.5970 O.co2  54  ASP54      -0.2456
     81  OD2       15.0570    1.4290   22.1680 O.co2  54  ASP54      -0.2456
     82  N          6.1110   -3.0390   25.2910 N.3    80  MET80      -0.1245
     83  CA         6.6900   -1.7300   25.5640 C.3    80  MET80       0.1570
     84  C          5.8220   -0.9510   26.5500 C.2    80  MET80       0.2261
     85  O          6.3230   -0.3350   27.4640 O.2    80  MET80      -0.2867
     86  CB         6.8810   -0.9870   24.2110 C.3    80  MET80       0.0387
     87  CG         7.5940    0.3140   24.3610 C.3    80  MET80       0.0595
     88  SD         7.7820    1.1900   22.8140 S.3    80  MET80      -0.1393
     89  CE         6.1300    1.8550   22.6820 C.3    80  MET80       0.0692
     90  N          5.9910   -2.4010   29.9600 N.3    83  ASN83      -0.1225
     91  CA         7.2550   -2.0500   30.5570 C.3    83  ASN83       0.1785
     92  C          7.2190   -0.6450   31.1060 C.2    83  ASN83       0.2597
     93  O          7.6680   -0.3740   32.2070 O.2    83  ASN83      -0.2718
     94  CB         8.3700   -2.1260   29.5070 C.3    83  ASN83       0.1169
     95  CG         8.7540   -3.5450   29.0650 C.2    83  ASN83       0.2627
     96  OD1        8.3340   -4.5610   29.6640 O.2    83  ASN83      -0.2716
     97  ND2        9.5500   -3.6110   28.0390 N.am   83  ASN83      -0.0877
     98  N          6.7130    0.2870   30.2920 N.am   84  ALA84      -0.1979
     99  CA         6.6000    1.7040   30.7210 C.3    84  ALA84       0.1597
    100  C          5.7530    1.8350   31.9840 C.2    84  ALA84       0.2287
    101  O          6.1170    2.5640   32.9090 O.2    84  ALA84      -0.2864
    102  CB         6.0230    2.5750   29.6220 C.3    84  ALA84       0.0319
    103  N          7.8620    0.3420   35.1140 N.3    87  TYR87      -0.1227
    104  CA         8.9850    1.1650   35.5960 C.3    87  TYR87       0.1736
    105  C          8.5870    2.4940   36.1340 C.2    87  TYR87       0.2595
    106  O          9.1360    2.9570   37.1580 O.2    87  TYR87      -0.2718
    107  CB         9.9780    1.3980   34.4450 C.3    87  TYR87       0.0548
    108  CG        11.2200    2.0570   34.9200 C.ar   87  TYR87      -0.0200
    109  CD1       12.1720    1.3420   35.6430 C.ar   87  TYR87      -0.0009
    110  CD2       11.4480    3.3840   34.6490 C.ar   87  TYR87      -0.0009
    111  CE1       13.3060    1.9810   36.0850 C.ar   87  TYR87       0.0417
    112  CE2       12.6150    4.0180   35.0770 C.ar   87  TYR87       0.0417
    113  CZ        13.5230    3.3070   35.7720 C.ar   87  TYR87       0.1957
    114  OH        14.6750    3.9930   36.1960 O.3    87  TYR87      -0.2866
    115  N          7.6270    3.1290   35.4720 N.am   88  ASN88      -0.1974
    116  CA         7.1500    4.4730   35.8310 C.3    88  ASN88       0.1688
    117  C          5.9240    4.4310   36.7120 C.2    88  ASN88       0.2292
    118  O          5.1780    3.4590   36.6730 O.2    88  ASN88      -0.2864
    119  CB         6.9280    5.2450   34.5590 C.3    88  ASN88       0.1181
    120  CG         8.2010    5.3200   33.7090 C.2    88  ASN88       0.2629
    121  OD1        9.0890    6.1470   34.0050 O.2    88  ASN88      -0.2716
    122  ND2        8.3080    4.5010   32.6720 N.am   88  ASN88      -0.0877
    123  N          4.9020    9.6870   31.4810 N.3    94  ILE94      -0.1245
    124  CA         5.1700    8.5550   30.5970 C.3    94  ILE94       0.1561
    125  C          4.1250    7.4530   30.7710 C.2    94  ILE94       0.2260
    126  O          3.6680    6.8370   29.7830 O.2    94  ILE94      -0.2867
    127  CB         6.5680    8.0050   30.7890 C.3    94  ILE94       0.0252
    128  CG1        6.8280    6.8480   29.8290 C.3    94  ILE94       0.0019
    129  CG2        6.7870    7.5060   32.1240 C.3    94  ILE94       0.0019
    130  CD1        8.2870    6.7280   29.5060 C.3    94  ILE94       0.0001
@<TRIPOS>BOND
     1    77    76    2
     2    26    27    1
     3    26    25    1
     4    80    79   ar
     5    27    28    2
     6    76    75    1
     7    24    25    1
     8    24    21    1
     9    72    73    1
    10    72    71    1
    11    28    30    1
    12    28    29    1
    13    20    21    1
    14    79    81   ar
    15    79    78    1
    16    21    22    1
    17    12    11    2
    18    75    78    1
    19    75    74    1
    20    11    10    1
    21    74    68   am
    22    89    88    1
    23    71    70    1
    24    88    87    1
    25    13    10    1
    26    13    14    1
    27    10     9    1
    28    22    31   am
    29    22    23    2
    30     9     3   am
    31     1     2    1
    32    68    67    1
    33    68    69    2
    34    31    32    1
    35    70    67    1
    36    67    66    1
    37    86    87    1
    38    86    83    1
    39    14    16   ar
    40    14    15   ar
    41     3     2    1
    42     3     4    2
    43    16    18   ar
    44     2     5    1
    45    34    33    2
    46    82    83    1
    47    32    33    1
    48    32    35    1
    49    15    17   ar
    50    18    19   ar
    51    83    84    1
    52    33    39   am
    53    35    36    1
    54     5     7    1
    55     5     6    1
    56    17    19   ar
    57    84    85    2
    58    39    40    1
    59    39    45    1
    60    36    38    1
    61    36    37    1
    62     6     8    1
    63    40    41    1
    64    40    43    1
    65    45    44    1
    66    41    42    2
    67    97    95   am
    68    44    43    1
    69    95    94    1
    70    95    96    2
    71   130   128    1
    72    94    91    1
    73   102    99    1
    74   126   125    2
    75    65    64    1
    76   128   127    1
    77    90    91    1
    78    98    99    1
    79    98    92   am
    80    62    64   ar
    81    62    60   ar
    82    91    92    1
    83    64    63   ar
    84   124   125    1
    85   124   127    1
    86   124   123    1
    87    99   100    1
    88   127   129    1
    89    92    93    2
    90    52    51    1
    91    60    59   ar
    92    63    61   ar
    93   100   101    2
    94    51    53    1
    95    51    50    1
    96    59    61   ar
    97    59    58    1
    98   122   120   am
    99    50    47    1
   100    58    55    1
   101    46    47    1
   102   120   121    2
   103   120   119    1
   104    57    56    2
   105    56    55    1
   106    47    48    1
   107    55    54    1
   108   107   108    1
   109   107   104    1
   110    49    48    2
   111   119   116    1
   112   110   108   ar
   113   110   112   ar
   114   108   109   ar
   115   112   113   ar
   116   103   104    1
   117   115   116    1
   118   115   105   am
   119   104   105    1
   120   109   111   ar
   121   113   111   ar
   122   113   114    1
   123   116   117    1
   124   105   106    2
   125   118   117    2
