@<TRIPOS>MOLECULE
tmp/5fh8C00.pdb
 136 130 0 0 0
SMALL
GASTEIGER

@<TRIPOS>ATOM
      1  N         -1.6060   15.8310   14.6370 N.3    30  ILE30      -0.1231
      2  CA        -1.5070   17.0340   15.4320 C.3    30  ILE30       0.1692
      3  C         -2.0870   16.8890   16.8430 C.2    30  ILE30       0.2592
      4  O         -1.7390   17.6500   17.7190 O.2    30  ILE30      -0.2718
      5  CB        -2.0810   18.2850   14.7140 C.3    30  ILE30       0.0266
      6  CG1       -1.3750   19.5470   15.2490 C.3    30  ILE30       0.0019
      7  CG2       -3.6080   18.2610   14.7170 C.3    30  ILE30       0.0020
      8  CD1       -1.2280   20.6220   14.2060 C.3    30  ILE30       0.0001
      9  N         -2.9350   15.8840   17.0330 N.am   31  PHE31      -0.1976
     10  CA        -3.5640   15.6580   18.3230 C.3    31  PHE31       0.1639
     11  C         -2.7920   14.7050   19.2540 C.2    31  PHE31       0.2290
     12  O         -3.2400   14.4770   20.3830 O.2    31  PHE31      -0.2864
     13  CB        -5.0120   15.1300   18.1520 C.3    31  PHE31       0.0560
     14  CG        -5.9340   16.1020   17.4450 C.ar   31  PHE31      -0.0200
     15  CD1       -6.4880   17.1840   18.0870 C.ar   31  PHE31      -0.0042
     16  CD2       -6.2130   15.9610   16.1260 C.ar   31  PHE31      -0.0042
     17  CE1       -7.2870   18.0930   17.4050 C.ar   31  PHE31      -0.0003
     18  CE2       -7.0030   16.8500   15.4330 C.ar   31  PHE31      -0.0003
     19  CZ        -7.5300   17.9600   16.0610 C.ar   31  PHE31      -0.0000
     20  N          0.0200   14.8960   20.8670 N.3    33  ARG33      -0.1231
     21  CA         0.6220   15.5030   22.0380 C.3    33  ARG33       0.1694
     22  C          0.4120   17.0080   22.0650 C.2    33  ARG33       0.2592
     23  O          0.7580   17.7190   21.1470 O.2    33  ARG33      -0.2718
     24  CB         2.1040   15.1710   22.0610 C.3    33  ARG33       0.0321
     25  CG         2.7560   15.3050   23.3910 C.3    33  ARG33       0.0489
     26  CD         2.2950   14.1900   24.3440 C.3    33  ARG33       0.2205
     27  NE         2.9950   14.1730   25.6130 N.pl3  33  ARG33      -0.0865
     28  CZ         2.5910   14.7810   26.7150 C.cat  33  ARG33       0.5346
     29  NH1        1.4970   15.5310   26.7090 N.pl3  33  ARG33       0.1354
     30  NH2        3.3020   14.6590   27.8350 N.pl3  33  ARG33       0.1354
     31  N         -0.1220   17.4760   23.1640 N.am   34  LEU34      -0.1966
     32  CA        -0.1520   18.8600   23.4780 C.3    34  LEU34       0.1713
     33  C          1.2430   19.4180   23.7200 C.2    34  LEU34       0.2458
     34  O          2.0670   18.7580   24.3600 O.2    34  LEU34      -0.2730
     35  CB        -0.9560   19.0560   24.7500 C.3    34  LEU34       0.0310
     36  CG        -1.8770   20.2390   24.9070 C.3    34  LEU34       0.0022
     37  CD1       -2.7350   20.6030   23.7200 C.3    34  LEU34       0.0001
     38  CD2       -2.7320   19.8970   26.1270 C.3    34  LEU34       0.0001
     39  N          1.5370   20.6110   23.1850 N.am   35  PRO35      -0.2727
     40  CA         2.7520   21.2850   23.7040 C.3    35  PRO35       0.1402
     41  C          2.7530   21.4560   25.2400 C.2    35  PRO35       0.2269
     42  O          1.6620   21.5600   25.8590 O.2    35  PRO35      -0.2865
     43  CB         2.7390   22.6320   22.9820 C.3    35  PRO35       0.0296
     44  CG         1.8150   22.4110   21.8020 C.3    35  PRO35       0.0237
     45  CD         0.7410   21.5030   22.3420 C.3    35  PRO35       0.0939
     46  N          3.7350   26.5570   25.6130 N.3    40  LEU40      -0.1245
     47  CA         2.5290   27.2160   25.1820 C.3    40  LEU40       0.1561
     48  C          1.6760   27.5440   26.4000 C.2    40  LEU40       0.2260
     49  O          0.5610   27.0060   26.5830 O.2    40  LEU40      -0.2867
     50  CB         1.7910   26.3290   24.1910 C.3    40  LEU40       0.0270
     51  CG         0.7220   27.0150   23.3580 C.3    40  LEU40       0.0019
     52  CD1        1.3600   28.0100   22.4050 C.3    40  LEU40       0.0001
     53  CD2       -0.1220   26.0160   22.6040 C.3    40  LEU40       0.0001
     54  N         -2.2140   28.3310   26.2730 N.3    43  TYR43      -0.1241
     55  CA        -3.2020   27.2690   26.0530 C.3    43  TYR43       0.1605
     56  C         -3.8040   26.8300   27.3850 C.2    43  TYR43       0.2264
     57  O         -5.0140   26.6560   27.5070 O.2    43  TYR43      -0.2867
     58  CB        -2.5660   26.0630   25.3700 C.3    43  TYR43       0.0534
     59  CG        -3.5350   25.0350   24.9210 C.ar   43  TYR43      -0.0201
     60  CD1       -3.9480   23.9830   25.7540 C.ar   43  TYR43      -0.0009
     61  CD2       -4.0640   25.0830   23.6440 C.ar   43  TYR43      -0.0009
     62  CE1       -4.8470   23.0230   25.3130 C.ar   43  TYR43       0.0417
     63  CE2       -4.9140   24.0940   23.1750 C.ar   43  TYR43       0.0417
     64  CZ        -5.3600   23.0660   24.0120 C.ar   43  TYR43       0.1957
     65  OH        -6.2610   22.1140   23.5770 O.3    43  TYR43      -0.2866
     66  N         -6.0660   17.8300   27.1780 N.3    51  MET51      -0.1230
     67  CA        -6.1850   16.4250   26.7920 C.3    51  MET51       0.1702
     68  C         -5.4890   16.2240   25.4640 C.2    51  MET51       0.2592
     69  O         -5.5780   17.0930   24.5940 O.2    51  MET51      -0.2718
     70  CB        -7.6840   16.0510   26.6570 C.3    51  MET51       0.0401
     71  CG        -7.9360   14.6220   26.3610 C.3    51  MET51       0.0596
     72  SD        -7.2660   13.4680   27.6060 S.3    51  MET51      -0.1393
     73  CE        -8.1310   13.9600   29.0900 C.3    51  MET51       0.0692
     74  N         -4.7800   15.1100   25.3240 N.am   52  ASP52      -0.1974
     75  CA        -4.2240   14.7180   24.0370 C.3    52  ASP52       0.1709
     76  C         -4.3300   13.2370   23.8690 C.2    52  ASP52       0.2293
     77  O         -4.7820   12.5110   24.7900 O.2    52  ASP52      -0.2864
     78  CB        -2.7930   15.3280   23.8480 C.3    52  ASP52       0.1436
     79  CG        -1.7420   14.8400   24.8860 C.2    52  ASP52       0.3671
     80  OD1       -1.8980   13.7110   25.4780 O.co2  52  ASP52      -0.2456
     81  OD2       -0.7590   15.6350   25.1380 O.co2  52  ASP52      -0.2456
     82  N        -11.2190   16.5670   24.1490 N.3    78  MET78      -0.1245
     83  CA       -10.0600   16.9480   23.3410 C.3    78  MET78       0.1570
     84  C        -10.4930   17.7340   22.1360 C.2    78  MET78       0.2261
     85  O         -9.9190   18.8140   21.8410 O.2    78  MET78      -0.2867
     86  CB        -9.2340   15.7250   22.9870 C.3    78  MET78       0.0387
     87  CG        -7.9530   16.0430   22.2170 C.3    78  MET78       0.0595
     88  SD        -7.0480   14.5790   21.7190 S.3    78  MET78      -0.1393
     89  CE        -8.0650   14.0310   20.4050 C.3    78  MET78       0.0692
     90  N        -11.8170   21.0760   23.1020 N.3    81  ASN81      -0.1225
     91  CA       -10.7200   21.9460   23.4190 C.3    81  ASN81       0.1785
     92  C        -10.0660   22.5460   22.1770 C.2    81  ASN81       0.2597
     93  O         -9.7770   23.7300   22.1280 O.2    81  ASN81      -0.2718
     94  CB        -9.6380   21.2040   24.2240 C.3    81  ASN81       0.1169
     95  CG       -10.0930   20.8530   25.6430 C.2    81  ASN81       0.2627
     96  OD1      -11.1010   21.3710   26.1580 O.2    81  ASN81      -0.2716
     97  ND2       -9.3290   19.9670   26.2860 N.am   81  ASN81      -0.0877
     98  N         -9.8770   21.6910   21.1730 N.am   82  ALA82      -0.1979
     99  CA        -9.2310   22.1960   19.9390 C.3    82  ALA82       0.1597
    100  C        -10.0620   23.2510   19.2630 C.2    82  ALA82       0.2287
    101  O         -9.5180   24.2970   18.8540 O.2    82  ALA82      -0.2864
    102  CB        -8.9860   21.0690   18.9580 C.3    82  ALA82       0.0319
    103  N         -9.8890   26.6390   21.5050 N.3    85  TYR85      -0.1227
    104  CA        -8.6670   27.3850   21.3990 C.3    85  TYR85       0.1736
    105  C         -8.3920   27.9420   20.0020 C.2    85  TYR85       0.2595
    106  O         -7.9410   29.0710   19.8900 O.2    85  TYR85      -0.2718
    107  CB        -7.4740   26.5500   21.8490 C.3    85  TYR85       0.0548
    108  CG        -6.1780   27.3060   21.9300 C.ar   85  TYR85      -0.0200
    109  CD1       -5.8940   28.1310   23.0210 C.ar   85  TYR85      -0.0009
    110  CD2       -5.2380   27.1820   20.9210 C.ar   85  TYR85      -0.0009
    111  CE1       -4.7120   28.8250   23.0860 C.ar   85  TYR85       0.0417
    112  CE2       -4.0390   27.8530   20.9890 C.ar   85  TYR85       0.0417
    113  CZ        -3.7880   28.6660   22.0560 C.ar   85  TYR85       0.1957
    114  OH        -2.5690   29.3310   22.0840 O.3    85  TYR85      -0.2866
    115  N         -8.7110   27.1660   18.9640 N.am   86  ASN86      -0.1974
    116  CA        -8.2610   27.5070   17.5920 C.3    86  ASN86       0.1688
    117  C         -9.3860   28.1730   16.7920 C.2    86  ASN86       0.2292
    118  O        -10.5780   28.0280   17.0800 O.2    86  ASN86      -0.2864
    119  CB        -7.7360   26.2150   16.9130 C.3    86  ASN86       0.1181
    120  CG        -6.4860   25.6870   17.6000 C.2    86  ASN86       0.2629
    121  OD1       -5.4110   26.2630   17.4370 O.2    86  ASN86      -0.2716
    122  ND2       -6.6090   24.6250   18.3720 N.am   86  ASN86      -0.0877
    123  N         -8.9370   27.6020   10.8670 N.3    90  SER90      -0.1217
    124  CA        -7.7120   26.7720   10.9900 C.3    90  SER90       0.1889
    125  C         -7.9280   25.3220   10.6470 C.2    90  SER90       0.2288
    126  O         -8.9460   24.7300   10.9160 O.2    90  SER90      -0.2866
    127  CB        -7.1020   26.8690   12.4010 C.3    90  SER90       0.2089
    128  OG        -7.9040   26.1450   13.3760 O.3    90  SER90      -0.2183
    129  N         -6.5860   22.7740   12.1010 N.3    92  ILE92      -0.1245
    130  CA        -6.7640   21.9640   13.2970 C.3    92  ILE92       0.1561
    131  C         -8.2180   21.9410   13.7690 C.2    92  ILE92       0.2260
    132  O         -8.7410   20.8710   14.1620 O.2    92  ILE92      -0.2867
    133  CB        -5.7660   22.2900   14.4570 C.3    92  ILE92       0.0252
    134  CG1       -5.9500   21.1870   15.5590 C.3    92  ILE92       0.0019
    135  CG2       -5.9210   23.7170   14.9520 C.3    92  ILE92       0.0019
    136  CD1       -4.9070   21.3090   16.6190 C.3    92  ILE92       0.0001
@<TRIPOS>BOND
     1   125   126    2
     2   125   124    1
     3   123   124    1
     4   124   127    1
     5   129   130    1
     6   127   128    1
     7   130   131    1
     8   130   133    1
     9   131   132    2
    10     8     6    1
    11   133   135    1
    12   133   134    1
    13     1     2    1
    14     5     7    1
    15     5     6    1
    16     5     2    1
    17     2     3    1
    18    18    19   ar
    19    18    16   ar
    20   134   136    1
    21    19    17   ar
    22    16    14   ar
    23   117   118    2
    24   117   116    1
    25     3     9   am
    26     3     4    2
    27   119   116    1
    28   119   120    1
    29     9    10    1
    30    17    15   ar
    31   121   120    2
    32    14    15   ar
    33    14    13    1
    34   116   115    1
    35   120   122   am
    36    13    10    1
    37    10    11    1
    38   101   100    2
    39   102    99    1
    40   115   105   am
    41    11    12    2
    42   100    99    1
    43   106   105    2
    44    99    98    1
    45   105   104    1
    46    89    88    1
    47    20    21    1
    48   110   112   ar
    49   110   108   ar
    50   112   113   ar
    51    23    22    2
    52    98    92   am
    53   104   103    1
    54   104   107    1
    55    88    87    1
    56    44    45    1
    57    44    43    1
    58    85    84    2
    59   107   108    1
    60   108   109   ar
    61    21    24    1
    62    21    22    1
    63   113   114    1
    64   113   111   ar
    65    24    25    1
    66    22    31   am
    67    93    92    2
    68    84    83    1
    69    92    91    1
    70    87    86    1
    71    45    39    1
    72    52    51    1
    73    53    51    1
    74    43    40    1
    75    86    83    1
    76   109   111   ar
    77    90    91    1
    78    31    32    1
    79    63    61   ar
    80    63    64   ar
    81    39    40    1
    82    39    33   am
    83    83    82    1
    84    51    50    1
    85    25    26    1
    86    91    94    1
    87    32    33    1
    88    32    35    1
    89    65    64    1
    90    61    59   ar
    91    40    41    1
    92    33    34    2
    93    37    36    1
    94    78    75    1
    95    78    79    1
    96    76    75    1
    97    76    77    2
    98    64    62   ar
    99    75    74    1
   100    50    47    1
   101    94    95    1
   102    26    27    1
   103    69    68    2
   104    35    36    1
   105    79    81   ar
   106    79    80   ar
   107    36    38    1
   108    59    58    1
   109    59    60   ar
   110    47    46    1
   111    47    48    1
   112    41    42    2
   113    62    60   ar
   114    74    68   am
   115    58    55    1
   116    68    67    1
   117    27    28    2
   118    95    96    2
   119    95    97   am
   120    55    54    1
   121    55    56    1
   122    71    70    1
   123    71    72    1
   124    48    49    2
   125    70    67    1
   126    29    28    1
   127    28    30    1
   128    67    66    1
   129    56    57    2
   130    72    73    1
