@<TRIPOS>MOLECULE
tmp/5fhnA00.pdb
 217 214 0 0 0
SMALL
GASTEIGER

@<TRIPOS>ATOM
      1  N        -25.1110   -4.6300    5.2990 N.3     9  GLU9       -0.1231
      2  CA       -24.7220   -4.7710    6.7020 C.3     9  GLU9        0.1699
      3  C        -24.8320   -3.3990    7.3440 C.2     9  GLU9        0.2593
      4  O        -24.1560   -2.4670    6.9160 O.2     9  GLU9       -0.2718
      5  CB       -23.2790   -5.2750    6.8500 C.3     9  GLU9        0.0402
      6  CG       -22.9520   -6.6340    6.2490 C.3     9  GLU9        0.1161
      7  CD       -23.1180   -7.7280    7.2550 C.2     9  GLU9        0.3649
      8  OE1      -24.0720   -7.6110    8.0710 O.co2   9  GLU9       -0.2457
      9  OE2      -22.2860   -8.6660    7.2680 O.co2   9  GLU9       -0.2457
     10  N        -25.6490   -3.2750    8.3800 N.am   10  SER10      -0.1939
     11  CA       -25.7380   -2.0250    9.1320 C.3    10  SER10       0.2040
     12  C        -24.4910   -1.8630    9.9930 C.2    10  SER10       0.2485
     13  O        -24.0630   -2.8260   10.6230 O.2    10  SER10      -0.2729
     14  CB       -26.9610   -2.0180   10.0460 C.3    10  SER10       0.2129
     15  OG       -28.1490   -2.1780    9.2960 O.3    10  SER10      -0.2179
     16  N        -23.9160   -0.6480   10.0660 N.am   11  PRO11      -0.2715
     17  CA       -24.3680    0.6430    9.5410 C.3    11  PRO11       0.1536
     18  C        -23.6900    1.0560    8.2550 C.2    11  PRO11       0.2598
     19  O        -23.6890    2.2440    7.9150 O.2    11  PRO11      -0.2715
     20  CB       -23.9790    1.5980   10.6600 C.3    11  PRO11       0.0310
     21  CG       -22.6830    1.0540   11.0990 C.3    11  PRO11       0.0237
     22  CD       -22.7940   -0.4480   10.9900 C.3    11  PRO11       0.0939
     23  N        -23.1110    0.0930    7.5420 N.am   12  TYR12      -0.1974
     24  CA       -22.3950    0.4090    6.3160 C.3    12  TYR12       0.1639
     25  C        -23.3540    0.6840    5.1630 C.2    12  TYR12       0.2290
     26  O        -23.1840    1.6530    4.4170 O.2    12  TYR12      -0.2864
     27  CB       -21.4460   -0.7380    5.9830 C.3    12  TYR12       0.0560
     28  CG       -20.3010   -0.8420    6.9320 C.ar   12  TYR12      -0.0198
     29  CD1      -19.2950    0.1070    6.9280 C.ar   12  TYR12      -0.0009
     30  CD2      -20.2120   -1.8830    7.8400 C.ar   12  TYR12      -0.0009
     31  CE1      -18.2140    0.0380    7.7820 C.ar   12  TYR12       0.0417
     32  CE2      -19.1460   -1.9520    8.7070 C.ar   12  TYR12       0.0417
     33  CZ       -18.1560   -0.9990    8.6760 C.ar   12  TYR12       0.1957
     34  OH       -17.1050   -1.1410    9.5590 O.3    12  TYR12      -0.2866
     35  N        -18.8420  -12.2920    1.5020 N.3    57  TYR57      -0.1241
     36  CA       -17.6600  -11.4470    1.4080 C.3    57  TYR57       0.1605
     37  C        -16.7180  -11.9700    0.3310 C.2    57  TYR57       0.2264
     38  O        -16.4000  -11.2650   -0.6340 O.2    57  TYR57      -0.2867
     39  CB       -16.9870  -11.3560    2.7750 C.3    57  TYR57       0.0534
     40  CG       -17.7490  -10.4810    3.7670 C.ar   57  TYR57      -0.0201
     41  CD1      -18.7810  -10.9960    4.5610 C.ar   57  TYR57      -0.0009
     42  CD2      -17.4590   -9.1300    3.8880 C.ar   57  TYR57      -0.0009
     43  CE1      -19.4940  -10.1810    5.4490 C.ar   57  TYR57       0.0417
     44  CE2      -18.1570   -8.3240    4.7850 C.ar   57  TYR57       0.0417
     45  CZ       -19.1910   -8.8450    5.5240 C.ar   57  TYR57       0.1957
     46  OH       -19.8620   -8.0260    6.4060 O.3    57  TYR57      -0.2866
     47  N        -17.1610   -3.3590    4.0600 N.3    85  PRO85      -0.2102
     48  CA       -16.2020   -3.8190    5.1020 C.3    85  PRO85       0.1504
     49  C        -15.5470   -5.1290    4.6870 C.2    85  PRO85       0.2576
     50  O        -15.7500   -6.1960    5.2710 O.2    85  PRO85      -0.2718
     51  CB       -17.1020   -3.9500    6.3440 C.3    85  PRO85       0.0282
     52  CG       -18.4930   -4.2310    5.7500 C.3    85  PRO85       0.0208
     53  CD       -18.5570   -3.3830    4.5350 C.3    85  PRO85       0.0893
     54  N        -14.7270   -5.0250    3.6390 N.am   86  LEU86      -0.1966
     55  CA       -14.0390   -6.1510    3.0150 C.3    86  LEU86       0.1728
     56  C        -12.5950   -6.1710    3.5000 C.2    86  LEU86       0.2616
     57  O        -11.8280   -5.2340    3.2460 O.2    86  LEU86      -0.2715
     58  CB       -14.0940   -6.0360    1.4910 C.3    86  LEU86       0.0311
     59  CG       -13.5420   -7.2280    0.7290 C.3    86  LEU86       0.0022
     60  CD1      -14.3020   -8.4810    0.9320 C.3    86  LEU86       0.0001
     61  CD2      -13.4570   -6.8680   -0.7500 C.3    86  LEU86       0.0001
     62  N        -12.2220   -7.2370    4.2000 N.am   87  THR87      -0.1951
     63  CA       -10.9270   -7.3130    4.8480 C.3    87  THR87       0.1897
     64  C         -9.7980   -7.5500    3.8590 C.2    87  THR87       0.2313
     65  O         -9.8750   -8.4280    3.0030 O.2    87  THR87      -0.2863
     66  CB       -10.9800   -8.4220    5.8760 C.3    87  THR87       0.1794
     67  OG1      -12.0740   -8.0910    6.7360 O.3    87  THR87      -0.2208
     68  CG2       -9.6960   -8.5270    6.6620 C.3    87  THR87       0.0378
     69  N         -6.5650  -12.7740   -0.8030 N.3    92  ARG92      -0.1245
     70  CA        -7.4100  -11.9720   -1.6970 C.3    92  ARG92       0.1563
     71  C         -6.5590  -11.0980   -2.6120 C.2    92  ARG92       0.2260
     72  O         -6.9150  -10.8920   -3.7790 O.2    92  ARG92      -0.2867
     73  CB        -8.4050  -11.1290   -0.8930 C.3    92  ARG92       0.0307
     74  CG        -9.5570  -11.9430   -0.3180 C.3    92  ARG92       0.0489
     75  CD       -10.3420  -11.1400    0.6360 C.3    92  ARG92       0.2205
     76  NE       -11.4720  -11.9030    1.1390 N.pl3  92  ARG92      -0.0865
     77  CZ       -12.2510  -11.5090    2.1300 C.cat  92  ARG92       0.5346
     78  NH1      -12.0130  -10.3630    2.7410 N.pl3  92  ARG92       0.1354
     79  NH2      -13.3030  -12.2490    2.4500 N.pl3  92  ARG92       0.1354
     80  N        -17.5950  -19.3900   13.1840 N.3   133  THR133     -0.1203
     81  CA       -17.3730  -18.1650   12.4550 C.3   133  THR133      0.1994
     82  C        -18.1800  -18.1920   11.1540 C.2   133  THR133      0.2617
     83  O        -18.9390  -19.1210   10.8850 O.2   133  THR133     -0.2717
     84  CB       -15.8740  -17.9630   12.2010 C.3   133  THR133      0.1784
     85  OG1      -15.6640  -16.6120   11.8090 O.3   133  THR133     -0.2211
     86  CG2      -15.4040  -18.9060   11.1220 C.3   133  THR133      0.0376
     87  N        -17.9820  -17.1520   10.3470 N.am  134  LEU134     -0.1979
     88  CA       -18.7290  -16.9280    9.1140 C.3   134  LEU134      0.1596
     89  C        -18.1630  -17.7230    7.9330 C.2   134  LEU134      0.2287
     90  O        -16.9570  -17.7260    7.7050 O.2   134  LEU134     -0.2864
     91  CB       -18.6570  -15.4380    8.8130 C.3   134  LEU134      0.0297
     92  CG       -19.3280  -14.9360    7.5640 C.3   134  LEU134      0.0022
     93  CD1      -20.8350  -15.0170    7.7130 C.3   134  LEU134      0.0001
     94  CD2      -18.9010  -13.5250    7.2320 C.3   134  LEU134      0.0001
     95  N        -15.6030  -16.0610    4.4870 N.3   137  GLY137     -0.1210
     96  CA       -14.9910  -14.8130    4.8910 C.3   137  GLY137      0.1956
     97  C        -13.5510  -14.9800    5.3420 C.2   137  GLY137      0.2613
     98  O        -12.9910  -16.0790    5.3680 O.2   137  GLY137     -0.2717
     99  N        -12.9780  -13.8520    5.7280 N.am  138  SER138     -0.1938
    100  CA       -11.5620  -13.8420    6.0730 C.3   138  SER138      0.2055
    101  C        -11.2620  -14.5040    7.4170 C.2   138  SER138      0.2644
    102  O        -10.1540  -15.0150    7.6000 O.2   138  SER138     -0.2714
    103  CB       -11.0610  -12.4020    6.0360 C.3   138  SER138      0.2130
    104  OG       -11.8370  -11.5650    6.8610 O.3   138  SER138     -0.2179
    105  N        -12.1800  -14.5000    8.3780 N.am  139  THR139     -0.1936
    106  CA       -11.8760  -15.1150    9.6730 C.3   139  THR139      0.2028
    107  C        -11.7400  -16.6290    9.5590 C.2   139  THR139      0.2642
    108  O        -10.8390  -17.2320   10.1660 O.2   139  THR139     -0.2714
    109  CB       -12.9480  -14.7270   10.6920 C.3   139  THR139      0.1808
    110  OG1      -12.9890  -13.3000   10.8050 O.3   139  THR139     -0.2208
    111  CG2      -12.6590  -15.3110   12.0540 C.3   139  THR139      0.0379
    112  N        -12.6260  -17.2640    8.8040 N.am  140  LYS140     -0.1977
    113  CA       -12.5260  -18.7040    8.5960 C.3   140  LYS140      0.1596
    114  C        -11.2080  -19.0710    7.9260 C.2   140  LYS140      0.2287
    115  O        -10.5330  -20.0270    8.3350 O.2   140  LYS140     -0.2864
    116  CB       -13.7270  -19.1750    7.7770 C.3   140  LYS140      0.0298
    117  CG       -13.9260  -20.6790    7.8240 C.3   140  LYS140      0.0038
    118  CD       -15.2140  -21.1020    7.1550 C.3   140  LYS140      0.0206
    119  CE       -15.3290  -22.6040    7.1130 C.3   140  LYS140      0.1093
    120  NZ       -16.4940  -23.0370    6.2640 N.3   140  LYS140     -0.1314
    121  N        -23.3020  -12.6330    9.1140 N.3   170  THR170     -0.1218
    122  CA       -22.8340  -12.1310   10.4030 C.3   170  THR170      0.1862
    123  C        -23.9950  -11.9610   11.3710 C.2   170  THR170      0.2287
    124  O        -23.8640  -12.2600   12.5630 O.2   170  THR170     -0.2866
    125  CB       -22.0710  -10.8050   10.2580 C.3   170  THR170      0.1770
    126  OG1      -22.9000   -9.8090    9.6880 O.3   170  THR170     -0.2211
    127  CG2      -20.8070  -10.9450    9.4160 C.3   170  THR170      0.0375
    128  N        -19.0850  -16.4790   19.0720 N.3   186  TYR186     -0.1227
    129  CA       -18.9420  -16.1940   17.6550 C.3   186  TYR186      0.1736
    130  C        -17.6360  -15.4380   17.4240 C.2   186  TYR186      0.2595
    131  O        -17.3590  -14.4410   18.0960 O.2   186  TYR186     -0.2718
    132  CB       -20.1850  -15.4250   17.1770 C.3   186  TYR186      0.0548
    133  CG       -20.2000  -14.9750   15.7640 C.ar  186  TYR186     -0.0200
    134  CD1      -19.8390  -15.8290   14.7350 C.ar  186  TYR186     -0.0009
    135  CD2      -20.6560  -13.7040   15.4340 C.ar  186  TYR186     -0.0009
    136  CE1      -19.8360  -15.3860   13.4240 C.ar  186  TYR186      0.0417
    137  CE2      -20.6620  -13.2620   14.1270 C.ar  186  TYR186      0.0417
    138  CZ       -20.2550  -14.0960   13.1360 C.ar  186  TYR186      0.1957
    139  OH       -20.2280  -13.6470   11.8440 O.3   186  TYR186     -0.2866
    140  N        -16.8200  -15.9470   16.4980 N.am  187  LEU187     -0.1966
    141  CA       -15.5690  -15.3160   16.0990 C.3   187  LEU187      0.1728
    142  C        -15.8830  -14.3710   14.9430 C.2   187  LEU187      0.2616
    143  O        -16.3060  -14.8140   13.8650 O.2   187  LEU187     -0.2715
    144  CB       -14.5500  -16.3680   15.6920 C.3   187  LEU187      0.0311
    145  CG       -14.1290  -17.3190   16.7980 C.3   187  LEU187      0.0022
    146  CD1      -13.6150  -18.6320   16.2230 C.3   187  LEU187      0.0001
    147  CD2      -13.1120  -16.5960   17.6530 C.3   187  LEU187      0.0001
    148  N        -15.7000  -13.0670   15.1760 N.am  188  LEU188     -0.1963
    149  CA       -16.0910  -12.0430   14.2130 C.3   188  LEU188      0.1728
    150  C        -15.1790  -10.8390   14.3940 C.2   188  LEU188      0.2616
    151  O        -14.4240  -10.7330   15.3680 O.2   188  LEU188     -0.2715
    152  CB       -17.5670  -11.6080   14.3660 C.3   188  LEU188      0.0311
    153  CG       -17.8440  -10.6010   15.4950 C.3   188  LEU188      0.0022
    154  CD1      -19.2950  -10.1460   15.4480 C.3   188  LEU188      0.0001
    155  CD2      -17.4910  -11.2170   16.8650 C.3   188  LEU188      0.0001
    156  N        -15.2580   -9.9060   13.4630 N.am  189  GLU189     -0.1977
    157  CA       -14.3350   -8.7900   13.5600 C.3   189  GLU189      0.1602
    158  C        -14.7510   -7.7910   14.6290 C.2   189  GLU189      0.2287
    159  O        -15.9290   -7.6250   14.9530 O.2   189  GLU189     -0.2864
    160  CB       -14.1380   -8.1180   12.2140 C.3   189  GLU189      0.0415
    161  CG       -13.5170   -9.1220   11.2560 C.3   189  GLU189      0.1163
    162  CD       -13.5000   -8.6990    9.8180 C.2   189  GLU189      0.3649
    163  OE1      -14.3360   -7.8540    9.4080 O.co2 189  GLU189     -0.2457
    164  OE2      -12.6390   -9.2480    9.0900 O.co2 189  GLU189     -0.2457
    165  N        -14.9310   -4.6840   14.7820 N.3   191  THR191     -0.1203
    166  CA       -15.8680   -3.6530   14.3540 C.3   191  THR191      0.1994
    167  C        -17.2980   -4.0370   14.7080 C.2   191  THR191      0.2617
    168  O        -18.0010   -3.3070   15.4240 O.2   191  THR191     -0.2717
    169  CB       -15.7130   -3.4550   12.8540 C.3   191  THR191      0.1784
    170  OG1      -15.6240   -4.7480   12.2410 O.3   191  THR191     -0.2211
    171  CG2      -14.4390   -2.6800   12.5620 C.3   191  THR191      0.0376
    172  N        -17.7470   -5.1910   14.2080 N.am  192  MET192     -0.1979
    173  CA       -19.1030   -5.6210   14.4840 C.3   192  MET192      0.1605
    174  C        -19.2660   -5.9320   15.9580 C.2   192  MET192      0.2287
    175  O        -20.2740   -5.5630   16.5640 O.2   192  MET192     -0.2864
    176  CB       -19.4890   -6.8340   13.6500 C.3   192  MET192      0.0413
    177  CG       -20.9240   -7.2070   13.9070 C.3   192  MET192      0.0598
    178  SD       -21.4820   -8.4830   12.7810 S.3   192  MET192     -0.1393
    179  CE       -23.2520   -8.1910   12.7670 C.3   192  MET192      0.0692
    180  N        -19.6300   -2.6440   17.8090 N.3   195  TYR195     -0.1241
    181  CA       -20.8710   -1.9950   17.3970 C.3   195  TYR195      0.1605
    182  C        -22.0660   -2.6340   18.0920 C.2   195  TYR195      0.2264
    183  O        -22.9100   -1.9400   18.6700 O.2   195  TYR195     -0.2867
    184  CB       -21.0030   -2.0870   15.8810 C.3   195  TYR195      0.0534
    185  CG       -22.2380   -1.4370   15.3150 C.ar  195  TYR195     -0.0201
    186  CD1      -22.2910   -0.0660   15.1220 C.ar  195  TYR195     -0.0009
    187  CD2      -23.3400   -2.1880   14.9650 C.ar  195  TYR195     -0.0009
    188  CE1      -23.4110    0.5380   14.5930 C.ar  195  TYR195      0.0417
    189  CE2      -24.4720   -1.5840   14.4360 C.ar  195  TYR195      0.0417
    190  CZ       -24.4900   -0.2230   14.2490 C.ar  195  TYR195      0.1957
    191  OH       -25.5940    0.4240   13.7420 O.3   195  TYR195     -0.2866
    192  N         -9.9970   -2.8500    6.5430 N.3   216  TYR216     -0.1241
    193  CA       -10.8900   -2.8670    5.4020 C.3   216  TYR216      0.1605
    194  C        -10.3540   -1.9500    4.3210 C.2   216  TYR216      0.2264
    195  O         -9.9050   -0.8410    4.6040 O.2   216  TYR216     -0.2867
    196  CB       -12.2990   -2.3850    5.7770 C.3   216  TYR216      0.0534
    197  CG       -12.9990   -3.1700    6.8380 C.ar  216  TYR216     -0.0201
    198  CD1      -12.8600   -4.5520    6.9230 C.ar  216  TYR216     -0.0009
    199  CD2      -13.8490   -2.5500    7.7110 C.ar  216  TYR216     -0.0009
    200  CE1      -13.5180   -5.2690    7.8660 C.ar  216  TYR216      0.0417
    201  CE2      -14.5260   -3.2660    8.6820 C.ar  216  TYR216      0.0417
    202  CZ       -14.3540   -4.6310    8.7540 C.ar  216  TYR216      0.1957
    203  OH       -15.0180   -5.3430    9.7050 O.3   216  TYR216     -0.2866
    204  N        -21.8940    5.4800   13.6050 N.3   251  TRP251     -0.1241
    205  CA       -21.5980    4.4420   14.5820 C.3   251  TRP251      0.1605
    206  C        -22.4640    4.4940   15.8210 C.2   251  TRP251      0.2264
    207  O        -22.6800    3.4500   16.4580 O.2   251  TRP251     -0.2867
    208  CB       -20.1440    4.5150   15.0250 C.3   251  TRP251      0.0550
    209  CG       -19.5310    3.2290   14.8600 C.ar  251  TRP251      0.0003
    210  CD1      -19.1180    2.3810   15.8250 C.ar  251  TRP251      0.0946
    211  CD2      -19.2690    2.5990   13.6150 C.ar  251  TRP251      0.0152
    212  NE1      -18.6040    1.2470   15.2510 N.ar  251  TRP251     -0.2442
    213  CE2      -18.6900    1.3650   13.8910 C.ar  251  TRP251      0.0810
    214  CE3      -19.4750    2.9730   12.2870 C.ar  251  TRP251      0.0012
    215  CZ2      -18.2930    0.4870   12.8850 C.ar  251  TRP251      0.0191
    216  CZ3      -19.0810    2.0960   11.2860 C.ar  251  TRP251      0.0001
    217  CH2      -18.4970    0.8820   11.5960 C.ar  251  TRP251      0.0015
@<TRIPOS>BOND
     1    72    71    2
     2    71    70    1
     3    70    73    1
     4    70    69    1
     5    73    74    1
     6    61    59    1
     7    38    37    2
     8    74    75    1
     9    37    36    1
    10    75    76    1
    11    59    60    1
    12    59    58    1
    13    76    77    2
    14    36    35    1
    15    36    39    1
    16    58    55    1
    17    77    79    1
    18    77    78    1
    19    39    40    1
    20    65    64    2
    21    55    56    1
    22    55    54    1
    23    57    56    2
    24    56    62   am
    25    54    49   am
    26    40    42   ar
    27    40    41   ar
    28    64    63    1
    29    42    44   ar
    30    47    53    1
    31    47    48    1
    32    62    63    1
    33   194   195    2
    34   194   193    1
    35    26    25    2
    36    95    96    1
    37    53    52    1
    38    41    43   ar
    39    49    48    1
    40    49    50    2
    41    44    45   ar
    42    63    66    1
    43    96    97    1
    44    48    51    1
    45    25    24    1
    46     1     2    1
    47    97    98    2
    48    97    99   am
    49   193   196    1
    50   193   192    1
    51    43    45   ar
    52    45    46    1
    53    99   100    1
    54    52    51    1
    55   196   197    1
    56    66    68    1
    57    66    67    1
    58    27    24    1
    59    27    28    1
    60   103   100    1
    61   103   104    1
    62   100   101    1
    63     6     5    1
    64     6     7    1
    65   120   119    1
    66    24    23    1
    67     2     5    1
    68     2     3    1
    69   197   198   ar
    70   197   199   ar
    71     4     3    2
    72   198   200   ar
    73    29    28   ar
    74    29    31   ar
    75    28    30   ar
    76   119   118    1
    77   118   117    1
    78    94    92    1
    79     7     9   ar
    80     7     8   ar
    81     3    10   am
    82   101   102    2
    83   101   105   am
    84    23    18   am
    85    92    93    1
    86    92    91    1
    87    90    89    2
    88   199   201   ar
    89   116   117    1
    90   116   113    1
    91    31    33   ar
    92    30    32   ar
    93   200   202   ar
    94    19    18    2
    95   114   115    2
    96   114   113    1
    97    89    88    1
    98    18    17    1
    99   105   106    1
   100    10    11    1
   101   113   112    1
   102    33    32   ar
   103    33    34    1
   104   201   202   ar
   105   202   203    1
   106   112   107   am
   107    91    88    1
   108   164   162   ar
   109   121   122    1
   110    88    87    1
   111    11    12    1
   112    11    14    1
   113    15    14    1
   114   163   162   ar
   115   127   125    1
   116    17    16    1
   117    17    20    1
   118   107   106    1
   119   107   108    2
   120   106   109    1
   121   126   125    1
   122   162   161    1
   123    12    16   am
   124    12    13    2
   125    16    22    1
   126   125   122    1
   127    87    82   am
   128   122   123    1
   129    20    21    1
   130   109   110    1
   131   109   111    1
   132    83    82    2
   133    22    21    1
   134    86    84    1
   135    82    81    1
   136   161   160    1
   137   216   217   ar
   138   216   214   ar
   139   123   124    2
   140   217   215   ar
   141    85    84    1
   142   139   138    1
   143    84    81    1
   144   160   157    1
   145   170   169    1
   146   214   211   ar
   147    81    80    1
   148   171   169    1
   149   179   178    1
   150   178   177    1
   151   169   166    1
   152   215   213   ar
   153   138   136   ar
   154   138   137   ar
   155   136   134   ar
   156   156   157    1
   157   156   150   am
   158   157   158    1
   159   204   205    1
   160   211   213   ar
   161   211   209   ar
   162   176   177    1
   163   176   173    1
   164   191   190    1
   165   143   142    2
   166   213   212   ar
   167   137   135   ar
   168   172   173    1
   169   172   167   am
   170   149   152    1
   171   149   150    1
   172   149   148    1
   173   190   189   ar
   174   190   188   ar
   175   166   167    1
   176   166   165    1
   177   152   153    1
   178   150   151    2
   179   189   187   ar
   180   173   174    1
   181   205   208    1
   182   205   206    1
   183   188   186   ar
   184   158   159    2
   185   167   168    2
   186   134   133   ar
   187   209   208    1
   188   209   210   ar
   189   142   148   am
   190   142   141    1
   191   187   185   ar
   192   186   185   ar
   193   212   210   ar
   194   185   184    1
   195   135   133   ar
   196   154   153    1
   197   153   155    1
   198   144   141    1
   199   144   145    1
   200   133   132    1
   201   206   207    2
   202   184   181    1
   203   174   175    2
   204   141   140    1
   205   146   145    1
   206   140   130   am
   207   145   147    1
   208   132   129    1
   209   181   180    1
   210   181   182    1
   211   130   129    1
   212   130   131    2
   213   129   128    1
   214   182   183    2
