@<TRIPOS>MOLECULE
tmp/5fhzC00.pdb
 213 208 0 0 0
SMALL
GASTEIGER

@<TRIPOS>ATOM
      1  N          2.6530   35.2340   84.0710 N.3   158  ILE158     -0.1231
      2  CA         2.3580   34.0640   84.8980 C.3   158  ILE158      0.1692
      3  C          2.3650   34.5150   86.3730 C.2   158  ILE158      0.2593
      4  O          3.3770   35.0220   86.8730 O.2   158  ILE158     -0.2718
      5  CB         3.4030   32.9440   84.6520 C.3   158  ILE158      0.0266
      6  CG1        3.2620   32.4210   83.2050 C.3   158  ILE158      0.0019
      7  CG2        3.3180   31.8380   85.7190 C.3   158  ILE158      0.0020
      8  CD1        4.3730   31.5020   82.7430 C.3   158  ILE158      0.0001
      9  N          1.2350   34.2880   87.0520 N.am  159  THR159     -0.1940
     10  CA         0.9560   34.8580   88.3500 C.3   159  THR159      0.2013
     11  C          0.5210   33.8160   89.3580 C.2   159  THR159      0.2484
     12  O          0.1190   32.7280   88.9870 O.2   159  THR159     -0.2729
     13  CB        -0.1880   35.8440   88.2120 C.3   159  THR159      0.1807
     14  OG1       -1.1310   35.3280   87.2800 O.3   159  THR159     -0.2208
     15  CG2        0.3190   37.1150   87.6660 C.3   159  THR159      0.0379
     16  N          0.5700   34.1680   90.6520 N.am  160  PRO160     -0.2715
     17  CA         0.3070   33.2740   91.7430 C.3   160  PRO160      0.1536
     18  C         -1.1590   33.4110   92.1840 C.2   160  PRO160      0.2599
     19  O         -1.9210   34.1320   91.5230 O.2   160  PRO160     -0.2715
     20  CB         1.2440   33.8210   92.8050 C.3   160  PRO160      0.0310
     21  CG         1.1140   35.2920   92.6340 C.3   160  PRO160      0.0237
     22  CD         0.7920   35.5260   91.1740 C.3   160  PRO160      0.0939
     23  N         -1.5380   32.7290   93.2750 N.am  161  TRP161     -0.1960
     24  CA        -2.9130   32.8070   93.8510 C.3   161  TRP161      0.1771
     25  C         -3.0810   33.8660   94.9280 C.2   161  TRP161      0.2619
     26  O         -4.1980   34.1380   95.3310 O.2   161  TRP161     -0.2715
     27  CB        -3.3830   31.4610   94.4480 C.3   161  TRP161      0.0590
     28  CG        -2.3900   30.8470   95.3730 C.ar  161  TRP161      0.0006
     29  CD1       -1.4850   29.8880   95.0490 C.ar  161  TRP161      0.0946
     30  CD2       -2.1610   31.1600   96.7500 C.ar  161  TRP161      0.0152
     31  NE1       -0.6930   29.5910   96.1330 N.ar  161  TRP161     -0.2442
     32  CE2       -1.0940   30.3560   97.1920 C.ar  161  TRP161      0.0810
     33  CE3       -2.7490   32.0330   97.6490 C.ar  161  TRP161      0.0012
     34  CZ2       -0.6020   30.4000   98.4900 C.ar  161  TRP161      0.0191
     35  CZ3       -2.2530   32.0760   98.9510 C.ar  161  TRP161      0.0001
     36  CH2       -1.1880   31.2630   99.3500 C.ar  161  TRP161      0.0015
     37  N         -2.0050   34.4390   95.4510 N.am  162  ASN162     -0.1972
     38  CA        -2.2070   35.3460   96.5940 C.3   162  ASN162      0.1688
     39  C         -2.8560   36.6580   96.1940 C.2   162  ASN162      0.2292
     40  O         -3.7410   37.1210   96.9050 O.2   162  ASN162     -0.2864
     41  CB        -0.9810   35.5230   97.5090 C.3   162  ASN162      0.1181
     42  CG         0.2930   35.7700   96.7640 C.2   162  ASN162      0.2629
     43  OD1        0.5930   35.1200   95.7400 O.2   162  ASN162     -0.2716
     44  ND2        1.0790   36.7170   97.2810 N.am  162  ASN162     -0.0877
     45  N         -1.8620   33.8960   82.0190 N.3   185  LYS185     -0.1231
     46  CA        -1.8770   32.5670   82.5970 C.3   185  LYS185      0.1678
     47  C         -1.9130   32.6840   84.1160 C.2   185  LYS185      0.2434
     48  O         -0.8710   32.7620   84.7810 O.2   185  LYS185     -0.2733
     49  CB        -0.6730   31.7710   82.1200 C.3   185  LYS185      0.0284
     50  CG        -0.2150   30.6800   83.0630 C.3   185  LYS185      0.0035
     51  CD        -1.0640   29.4290   83.0940 C.3   185  LYS185      0.0206
     52  CE        -0.5440   28.4830   84.1710 C.3   185  LYS185      0.1093
     53  NZ        -0.6790   29.0620   85.5340 N.3   185  LYS185     -0.1314
     54  N         -3.1300   32.7420   84.6650 N.am  186  PRO186     -0.2718
     55  CA        -3.3140   32.7590   86.0920 C.3   186  PRO186      0.1535
     56  C         -3.0510   31.4380   86.7320 C.2   186  PRO186      0.2598
     57  O         -2.9540   30.4120   86.0630 O.2   186  PRO186     -0.2715
     58  CB        -4.7990   33.0910   86.2550 C.3   186  PRO186      0.0310
     59  CG        -5.4220   32.6470   85.0110 C.3   186  PRO186      0.0237
     60  CD        -4.3980   32.9860   83.9640 C.3   186  PRO186      0.0939
     61  N         -2.9550   31.4800   88.0540 N.am  187  ALA187     -0.1964
     62  CA        -2.7290   30.2950   88.8520 C.3   187  ALA187      0.1728
     63  C         -3.9200   29.3460   88.6690 C.2   187  ALA187      0.2616
     64  O         -5.0410   29.7790   88.3490 O.2   187  ALA187     -0.2715
     65  CB        -2.5450   30.6850   90.3110 C.3   187  ALA187      0.0334
     66  N         -3.6760   28.0530   88.8580 N.am  188  GLU188     -0.1963
     67  CA        -4.7410   27.0550   88.7400 C.3   188  GLU188      0.1733
     68  C         -5.7220   27.1310   89.9060 C.2   188  GLU188      0.2616
     69  O         -6.8760   26.7610   89.7670 O.2   188  GLU188     -0.2715
     70  CB        -4.1630   25.6400   88.6460 C.3   188  GLU188      0.0429
     71  CG        -3.2530   25.2010   89.7980 C.3   188  GLU188      0.1163
     72  CD        -1.7820   25.4710   89.5490 C.2   188  GLU188      0.3649
     73  OE1       -0.9610   24.5920   89.8590 O.co2 188  GLU188     -0.2457
     74  OE2       -1.4500   26.5590   89.0250 O.co2 188  GLU188     -0.2457
     75  N         -5.2590   27.6080   91.0540 N.am  189  GLN189     -0.1977
     76  CA        -6.1180   27.7410   92.2210 C.3   189  GLN189      0.1601
     77  C         -7.0990   28.8900   92.0460 C.2   189  GLN189      0.2287
     78  O         -8.1390   28.9460   92.7060 O.2   189  GLN189     -0.2864
     79  CB        -5.2980   27.9810   93.4930 C.3   189  GLN189      0.0394
     80  CG        -4.2800   26.9010   93.8010 C.3   189  GLN189      0.0908
     81  CD        -2.9580   27.1230   93.0720 C.2   189  GLN189      0.2608
     82  OE1       -2.9360   27.5560   91.9080 O.2   189  GLN189     -0.2717
     83  NE2       -1.8480   26.8130   93.7400 N.am  189  GLN189     -0.0878
     84  N          0.5930   24.8530   85.9380 N.3   218  GLY218     -0.1210
     85  CA         1.9690   25.3580   85.8240 C.3   218  GLY218      0.1940
     86  C          2.8810   24.4880   84.9780 C.2   218  GLY218      0.2453
     87  O          3.3890   24.9540   83.9470 O.2   218  GLY218     -0.2732
     88  N          3.0880   23.2250   85.4020 N.am  219  PRO219     -0.2728
     89  CA         3.9490   22.3420   84.6300 C.3   219  PRO219      0.1401
     90  C          3.4450   22.0780   83.2220 C.2   219  PRO219      0.2269
     91  O          4.2110   21.6160   82.3880 O.2   219  PRO219     -0.2865
     92  CB         3.9820   21.0670   85.4700 C.3   219  PRO219      0.0296
     93  CG         3.7990   21.5760   86.8590 C.3   219  PRO219      0.0237
     94  CD         2.7440   22.6340   86.7000 C.3   219  PRO219      0.0939
     95  N          2.0030   26.9930   81.9260 N.3   222  GLY222     -0.1210
     96  CA         3.1630   27.8180   82.2950 C.3   222  GLY222      0.1956
     97  C          4.4860   27.4370   81.6070 C.2   222  GLY222      0.2611
     98  O          5.1940   28.2980   81.0220 O.2   222  GLY222     -0.2717
     99  N          4.8150   26.1510   81.6870 N.am  223  ALA223     -0.1979
    100  CA         5.9380   25.5970   80.9680 C.3   223  ALA223      0.1597
    101  C          5.8430   25.7650   79.4540 C.2   223  ALA223      0.2287
    102  O          6.8380   25.8950   78.7930 O.2   223  ALA223     -0.2864
    103  CB         6.0830   24.1380   81.3100 C.3   223  ALA223      0.0319
    104  N          6.8860   29.6790   79.0890 N.3   226  SER226     -0.1217
    105  CA         8.3030   29.8720   79.3450 C.3   226  SER226      0.1889
    106  C          9.1890   29.2290   78.2890 C.2   226  SER226      0.2288
    107  O         10.3180   29.6570   78.0890 O.2   226  SER226     -0.2866
    108  CB         8.6510   29.2610   80.6780 C.3   226  SER226      0.2089
    109  OG         8.4850   27.8510   80.5830 O.3   226  SER226     -0.2183
    110  N          7.0910   36.7820   85.4770 N.3   236  PHE236     -0.1227
    111  CA         6.5720   35.7810   86.4180 C.3   236  PHE236      0.1736
    112  C          6.5730   36.3350   87.8670 C.2   236  PHE236      0.2596
    113  O          7.5630   36.8810   88.3290 O.2   236  PHE236     -0.2718
    114  CB         7.4210   34.4920   86.3020 C.3   236  PHE236      0.0547
    115  CG         7.3640   33.6040   87.5150 C.ar  236  PHE236     -0.0202
    116  CD1        6.4570   32.5840   87.5850 C.ar  236  PHE236     -0.0042
    117  CD2        8.1990   33.8040   88.5790 C.ar  236  PHE236     -0.0042
    118  CE1        6.3670   31.7750   88.6990 C.ar  236  PHE236     -0.0003
    119  CE2        8.1190   33.0000   89.6960 C.ar  236  PHE236     -0.0003
    120  CZ         7.2040   31.9800   89.7520 C.ar  236  PHE236     -0.0000
    121  N          5.4580   36.2060   88.5700 N.am  237  THR237     -0.1939
    122  CA         5.4480   36.3420   90.0280 C.3   237  THR237      0.2028
    123  C          5.0470   35.0300   90.6450 C.2   237  THR237      0.2643
    124  O          4.1150   34.3940   90.1920 O.2   237  THR237     -0.2714
    125  CB         4.4460   37.3620   90.5360 C.3   237  THR237      0.1808
    126  OG1        4.7080   38.6330   89.9480 O.3   237  THR237     -0.2208
    127  CG2        4.5950   37.5050   92.0000 C.3   237  THR237      0.0379
    128  N          5.7350   34.6460   91.7110 N.am  238  GLY238     -0.1939
    129  CA         5.5340   33.3310   92.3080 C.3   238  GLY238      0.2014
    130  C          6.6740   32.9860   93.2150 C.2   238  GLY238      0.2639
    131  O          7.2820   33.8630   93.7980 O.2   238  GLY238     -0.2714
    132  N          6.9470   31.6980   93.3330 N.am  239  SER239     -0.1949
    133  CA         7.9640   31.1820   94.2320 C.3   239  SER239      0.1924
    134  C          9.3080   31.1250   93.5160 C.2   239  SER239      0.2314
    135  O          9.3550   30.9570   92.2940 O.2   239  SER239     -0.2863
    136  CB         7.5780   29.7640   94.6290 C.3   239  SER239      0.2116
    137  OG         7.6840   28.8630   93.5110 O.3   239  SER239     -0.2180
    138  N         10.1540   27.9130   91.1500 N.3   242  VAL242     -0.1245
    139  CA         9.4830   28.0010   89.8620 C.3   242  VAL242      0.1561
    140  C         10.1570   29.0920   89.0390 C.2   242  VAL242      0.2260
    141  O         10.2840   28.9800   87.8070 O.2   242  VAL242     -0.2867
    142  CB         7.9950   28.3230   90.0220 C.3   242  VAL242      0.0252
    143  CG1        7.3330   28.4530   88.6550 C.3   242  VAL242      0.0019
    144  CG2        7.3270   27.2300   90.8530 C.3   242  VAL242      0.0019
    145  N         13.2520   27.9630   87.1800 N.3   245  LEU245     -0.1231
    146  CA        12.8080   27.1050   86.0920 C.3   245  LEU245      0.1693
    147  C         12.4040   27.8970   84.8850 C.2   245  LEU245      0.2591
    148  O         12.7790   27.5460   83.7800 O.2   245  LEU245     -0.2718
    149  CB        11.6280   26.2650   86.5260 C.3   245  LEU245      0.0284
    150  CG        12.0450   25.0950   87.3760 C.3   245  LEU245      0.0019
    151  CD1       10.8240   24.4630   88.0100 C.3   245  LEU245      0.0001
    152  CD2       12.8020   24.1110   86.4950 C.3   245  LEU245      0.0001
    153  N         11.6280   28.9640   85.0980 N.am  246  VAL246     -0.1980
    154  CA        11.1900   29.8000   83.9910 C.3   246  VAL246      0.1595
    155  C         12.3810   30.4850   83.3600 C.2   246  VAL246      0.2287
    156  O         12.4600   30.6090   82.1420 O.2   246  VAL246     -0.2864
    157  CB        10.2240   30.8870   84.4260 C.3   246  VAL246      0.0276
    158  CG1        9.8850   31.7730   83.2340 C.3   246  VAL246      0.0022
    159  CG2        8.9600   30.2830   84.9940 C.3   246  VAL246      0.0022
    160  N         -5.5490   29.8630  102.1360 N.3   338  ILE338     -0.1231
    161  CA        -5.9660   29.6490  100.7480 C.3   338  ILE338      0.1692
    162  C         -6.5070   28.2610  100.5040 C.2   338  ILE338      0.2592
    163  O         -7.3690   28.0630   99.6540 O.2   338  ILE338     -0.2718
    164  CB        -4.8220   29.9140   99.7460 C.3   338  ILE338      0.0266
    165  CG1       -5.3090   29.8280   98.2870 C.3   338  ILE338      0.0019
    166  CG2       -3.7020   28.9110   99.9220 C.3   338  ILE338      0.0020
    167  CD1       -6.2400   30.9440   97.8570 C.3   338  ILE338      0.0001
    168  N         -5.9910   27.2920  101.2310 N.am  339  ASP339     -0.1974
    169  CA        -6.4780   25.9450  101.0650 C.3   339  ASP339      0.1709
    170  C         -5.9810   25.0810  102.2020 C.2   339  ASP339      0.2293
    171  O         -5.2700   25.5700  103.0830 O.2   339  ASP339     -0.2864
    172  CB        -6.0840   25.3720   99.6820 C.3   339  ASP339      0.1436
    173  CG        -4.6120   25.5290   99.3630 C.2   339  ASP339      0.3671
    174  OD1       -3.7710   25.5620  100.2920 O.co2 339  ASP339     -0.2456
    175  OD2       -4.3070   25.6040   98.1560 O.co2 339  ASP339     -0.2456
    176  N         -3.8130   22.7490  102.1230 N.3   341  LYS341     -0.1231
    177  CA        -2.3860   22.4550  102.0990 C.3   341  LYS341      0.1693
    178  C         -1.5760   23.5970  102.6990 C.2   341  LYS341      0.2591
    179  O         -0.8480   23.3810  103.6540 O.2   341  LYS341     -0.2718
    180  CB        -1.9230   22.0830  100.6970 C.3   341  LYS341      0.0285
    181  CG        -2.5290   20.7650  100.2090 C.3   341  LYS341      0.0035
    182  CD        -2.2880   20.5320   98.7190 C.3   341  LYS341      0.0206
    183  CE        -0.8040   20.5940   98.3320 C.3   341  LYS341      0.1093
    184  NZ        -0.6350   20.6810   96.8520 N.3   341  LYS341     -0.1314
    185  N         -1.7390   24.8120  102.1890 N.am  342  GLN342     -0.1979
    186  CA        -1.0400   25.9740  102.7620 C.3   342  GLN342      0.1601
    187  C         -1.4190   26.2410  104.2280 C.2   342  GLN342      0.2287
    188  O         -0.6540   26.8580  104.9610 O.2   342  GLN342     -0.2864
    189  CB        -1.3080   27.2340  101.9270 C.3   342  GLN342      0.0394
    190  CG        -0.3030   28.3640  102.1410 C.3   342  GLN342      0.0908
    191  CD         1.1110   27.9840  101.7220 C.2   342  GLN342      0.2608
    192  OE1        2.0420   28.0390  102.5290 O.2   342  GLN342     -0.2717
    193  NE2        1.2750   27.5720  100.4600 N.am  342  GLN342     -0.0878
    194  N          0.9960   23.5530  105.9930 N.3   345  LYS345     -0.1245
    195  CA         2.4000   23.9080  105.7790 C.3   345  LYS345      0.1561
    196  C          2.9190   24.6820  106.9820 C.2   345  LYS345      0.2260
    197  O          3.9130   24.3120  107.6110 O.2   345  LYS345     -0.2867
    198  CB         2.5470   24.7820  104.5160 C.3   345  LYS345      0.0271
    199  CG         2.9350   24.0540  103.2340 C.3   345  LYS345      0.0035
    200  CD         1.7960   23.3050  102.5430 C.3   345  LYS345      0.0206
    201  CE         1.5040   21.9200  103.1260 C.3   345  LYS345      0.1093
    202  NZ         2.7160   21.0740  103.3040 N.3   345  LYS345     -0.1314
    203  N          4.9080   31.8560  104.9520 N.3   394  PHE394     -0.1241
    204  CA         3.6840   31.8670  104.1550 C.3   394  PHE394      0.1605
    205  C          2.4450   31.9060  105.0590 C.2   394  PHE394      0.2264
    206  O          1.4960   31.1730  104.7960 O.2   394  PHE394     -0.2867
    207  CB         3.5930   30.5810  103.2890 C.3   394  PHE394      0.0534
    208  CG         4.2280   30.6700  101.9110 C.ar  394  PHE394     -0.0203
    209  CD1        5.6050   30.8310  101.7540 C.ar  394  PHE394     -0.0042
    210  CD2        3.4440   30.4970  100.7570 C.ar  394  PHE394     -0.0042
    211  CE1        6.1760   30.8790  100.4800 C.ar  394  PHE394     -0.0003
    212  CE2        4.0120   30.5330   99.4820 C.ar  394  PHE394     -0.0003
    213  CZ         5.3800   30.7280   99.3420 C.ar  394  PHE394     -0.0000
@<TRIPOS>BOND
     1   107   106    2
     2   106   105    1
     3   102   101    2
     4   104   105    1
     5   105   108    1
     6   101   100    1
     7   109   108    1
     8   100   103    1
     9   100    99    1
    10    98    97    2
    11    97    99   am
    12    97    96    1
    13    95    96    1
    14    45    46    1
    15    49    46    1
    16    49    50    1
    17   156   155    2
    18    91    90    2
    19    46    47    1
    20     8     6    1
    21    50    51    1
    22    51    52    1
    23     6     5    1
    24    90    89    1
    25   158   157    1
    26   155   154    1
    27   148   147    2
    28    87    86    2
    29    60    54    1
    30    60    59    1
    31   154   157    1
    32   154   153    1
    33     1     2    1
    34    47    54   am
    35    47    48    2
    36    52    53    1
    37   157   159    1
    38    89    88    1
    39    89    92    1
    40     5     2    1
    41     5     7    1
    42    54    55    1
    43   147   153   am
    44   147   146    1
    45     2     3    1
    46    86    88   am
    47    86    85    1
    48    59    58    1
    49    88    94    1
    50    92    93    1
    51   110   111    1
    52    85    84    1
    53    57    56    2
    54   146   149    1
    55   146   145    1
    56    55    58    1
    57    55    56    1
    58   114   111    1
    59   114   115    1
    60     3     4    2
    61     3     9   am
    62   111   112    1
    63   152   150    1
    64   149   150    1
    65    94    93    1
    66    56    61   am
    67     9    10    1
    68    14    13    1
    69   150   151    1
    70   115   116   ar
    71   115   117   ar
    72   116   118   ar
    73    15    13    1
    74   141   140    2
    75   112   113    2
    76   112   121   am
    77    61    62    1
    78    13    10    1
    79    64    63    2
    80    10    11    1
    81   121   122    1
    82   117   119   ar
    83    70    67    1
    84    70    71    1
    85   143   142    1
    86    63    62    1
    87    63    66   am
    88   118   120   ar
    89    67    66    1
    90    67    68    1
    91    62    65    1
    92    12    11    2
    93    74    72   ar
    94   140   139    1
    95    11    16   am
    96    72    71    1
    97    72    73   ar
    98   119   120   ar
    99    69    68    2
   100   139   142    1
   101   139   138    1
   102    68    75   am
   103   126   125    1
   104   142   144    1
   105   122   125    1
   106   122   123    1
   107   124   123    2
   108   125   127    1
   109   123   128   am
   110    16    22    1
   111    16    17    1
   112    75    76    1
   113    22    21    1
   114    19    18    2
   115   128   129    1
   116    17    18    1
   117    17    20    1
   118    82    81    2
   119    77    76    1
   120    77    78    2
   121    18    23   am
   122    76    79    1
   123   135   134    2
   124   129   130    1
   125    21    20    1
   126    81    83   am
   127    81    80    1
   128   130   132   am
   129   130   131    2
   130    23    24    1
   131   132   133    1
   132    79    80    1
   133   137   136    1
   134   134   133    1
   135    24    27    1
   136    24    25    1
   137   133   136    1
   138    27    28    1
   139    25    26    2
   140    25    37   am
   141    29    28   ar
   142    29    31   ar
   143    28    30   ar
   144    37    38    1
   145    43    42    2
   146    31    32   ar
   147    39    38    1
   148    39    40    2
   149    38    41    1
   150    30    32   ar
   151    30    33   ar
   152    42    44   am
   153    42    41    1
   154   184   183    1
   155    32    34   ar
   156    33    35   ar
   157   167   165    1
   158   175   173   ar
   159   165   164    1
   160   183   182    1
   161    34    36   ar
   162   182   181    1
   163    35    36   ar
   164   213   212   ar
   165   213   211   ar
   166   173   172    1
   167   173   174   ar
   168   212   210   ar
   169   163   162    2
   170   172   169    1
   171   164   166    1
   172   164   161    1
   173   181   180    1
   174   193   191   am
   175   211   209   ar
   176   162   161    1
   177   162   168   am
   178   180   177    1
   179   161   160    1
   180   210   208   ar
   181   169   168    1
   182   169   170    1
   183   191   190    1
   184   191   192    2
   185   209   208   ar
   186   208   207    1
   187   189   190    1
   188   189   186    1
   189   177   176    1
   190   177   178    1
   191   185   178   am
   192   185   186    1
   193   170   171    2
   194   200   201    1
   195   200   199    1
   196   178   179    2
   197   186   187    1
   198   201   202    1
   199   199   198    1
   200   207   204    1
   201   204   203    1
   202   204   205    1
   203   187   188    2
   204   198   195    1
   205   206   205    2
   206   195   194    1
   207   195   196    1
   208   196   197    2
