@<TRIPOS>MOLECULE
tmp/5fhzC01.pdb
 179 173 0 0 0
SMALL
GASTEIGER

@<TRIPOS>ATOM
      1  N        -11.3320   43.6200  101.7040 N.3   109  HIS109     -0.1241
      2  CA        -9.9350   43.7120  101.3380 C.3   109  HIS109      0.1621
      3  C         -9.8060   43.5260   99.8110 C.2   109  HIS109      0.2264
      4  O         -8.9730   44.1570   99.1720 O.2   109  HIS109     -0.2867
      5  CB        -9.1070   42.6790  102.1080 C.3   109  HIS109      0.0745
      6  CG        -9.0000   42.9440  103.5780 C.ar  109  HIS109      0.0817
      7  ND1       -9.6850   43.9600  104.2170 N.ar  109  HIS109     -0.2268
      8  CD2       -8.3090   42.2930  104.5440 C.ar  109  HIS109      0.1154
      9  CE1       -9.4060   43.9290  105.5100 C.ar  109  HIS109      0.1986
     10  NE2       -8.5740   42.9270  105.7330 N.ar  109  HIS109     -0.2212
     11  N        -11.3540   47.2600   98.5310 N.3   112  PHE112     -0.1227
     12  CA       -10.5600   48.4770   98.7960 C.3   112  PHE112      0.1736
     13  C         -9.0310   48.3510   98.6320 C.2   112  PHE112      0.2595
     14  O         -8.3330   49.3750   98.7070 O.2   112  PHE112     -0.2718
     15  CB       -10.8960   48.9800  100.2100 C.3   112  PHE112      0.0547
     16  CG       -12.3260   49.3460  100.3520 C.ar  112  PHE112     -0.0202
     17  CD1      -12.7890   50.5230   99.8060 C.ar  112  PHE112     -0.0042
     18  CD2      -13.2230   48.4800  100.9360 C.ar  112  PHE112     -0.0042
     19  CE1      -14.1170   50.8450   99.8730 C.ar  112  PHE112     -0.0003
     20  CE2      -14.5580   48.7980  101.0120 C.ar  112  PHE112     -0.0003
     21  CZ       -15.0040   49.9770  100.4750 C.ar  112  PHE112     -0.0000
     22  N         -8.5160   47.1300   98.4270 N.am  113  ILE113     -0.1980
     23  CA        -7.0670   46.9260   98.2150 C.3   113  ILE113      0.1595
     24  C         -6.7610   46.3510   96.8220 C.2   113  ILE113      0.2287
     25  O         -6.3370   47.0760   95.9180 O.2   113  ILE113     -0.2864
     26  CB        -6.4160   46.1040   99.3480 C.3   113  ILE113      0.0276
     27  CG1       -6.6760   46.8000  100.6910 C.3   113  ILE113      0.0022
     28  CG2       -4.9170   45.9930   99.1250 C.3   113  ILE113      0.0022
     29  CD1       -6.1450   46.0590  101.9000 C.3   113  ILE113      0.0001
     30  N         -8.9260   48.3080   94.1490 N.3   116  GLU116     -0.1231
     31  CA        -8.4220   49.6820   94.1810 C.3   116  GLU116      0.1699
     32  C         -7.1050   49.7400   93.4170 C.2   116  GLU116      0.2592
     33  O         -6.8610   50.6500   92.6140 O.2   116  GLU116     -0.2718
     34  CB        -8.1580   50.1640   95.5940 C.3   116  GLU116      0.0402
     35  CG        -7.9410   51.6780   95.6510 C.3   116  GLU116      0.1161
     36  CD        -9.2490   52.4450   95.5180 C.2   116  GLU116      0.3649
     37  OE1       -9.5230   52.9830   94.4030 O.co2 116  GLU116     -0.2457
     38  OE2      -10.0180   52.4700   96.5260 O.co2 116  GLU116     -0.2457
     39  N         -6.2680   48.7440   93.6920 N.am  117  GLY117     -0.1957
     40  CA        -4.9170   48.6750   93.1460 C.3   117  GLY117      0.1869
     41  C         -4.8550   48.5140   91.6450 C.2   117  GLY117      0.2309
     42  O         -4.1150   49.2340   90.9790 O.2   117  GLY117     -0.2863
     43  N         -5.9530   51.9250   89.9560 N.3   120  ARG120     -0.1231
     44  CA        -4.9450   52.9630   90.0130 C.3   120  ARG120      0.1694
     45  C         -3.7660   52.6230   89.1310 C.2   120  ARG120      0.2592
     46  O         -3.1840   53.5050   88.4990 O.2   120  ARG120     -0.2718
     47  CB        -4.4890   53.1450   91.4410 C.3   120  ARG120      0.0321
     48  CG        -5.5090   53.9190   92.2180 C.3   120  ARG120      0.0489
     49  CD        -5.2880   53.8180   93.6910 C.3   120  ARG120      0.2205
     50  NE        -6.2660   54.6540   94.3550 N.pl3 120  ARG120     -0.0865
     51  CZ        -6.0250   55.3970   95.4300 C.cat 120  ARG120      0.5346
     52  NH1       -4.8210   55.4330   96.0040 N.pl3 120  ARG120      0.1354
     53  NH2       -7.0080   56.1280   95.9370 N.pl3 120  ARG120      0.1354
     54  N         -3.4170   51.3480   89.0820 N.am  121  THR121     -0.1953
     55  CA        -2.3060   50.9080   88.2800 C.3   121  THR121      0.1897
     56  C         -2.6950   51.0350   86.8270 C.2   121  THR121      0.2313
     57  O         -1.9230   51.5070   86.0130 O.2   121  THR121     -0.2863
     58  CB        -1.9190   49.4690   88.6330 C.3   121  THR121      0.1794
     59  OG1       -1.5570   49.3940   90.0300 O.3   121  THR121     -0.2208
     60  CG2       -0.7840   48.9970   87.7660 C.3   121  THR121      0.0378
     61  N         -2.4680   37.2390   95.0580 N.3   163  PHE163     -0.1241
     62  CA        -3.1780   38.4240   94.5380 C.3   163  PHE163      0.1605
     63  C         -3.4140   38.2740   93.0570 C.2   163  PHE163      0.2264
     64  O         -2.7520   38.8980   92.2330 O.2   163  PHE163     -0.2867
     65  CB        -2.4280   39.7030   94.8290 C.3   163  PHE163      0.0534
     66  CG        -2.3940   40.0550   96.2770 C.ar  163  PHE163     -0.0203
     67  CD1       -1.6240   39.3220   97.1650 C.ar  163  PHE163     -0.0042
     68  CD2       -3.0990   41.1460   96.7420 C.ar  163  PHE163     -0.0042
     69  CE1       -1.5760   39.6580   98.4970 C.ar  163  PHE163     -0.0003
     70  CE2       -3.0390   41.5040   98.0620 C.ar  163  PHE163     -0.0003
     71  CZ        -2.2780   40.7510   98.9450 C.ar  163  PHE163     -0.0000
     72  N         -4.4730   41.5820   90.7980 N.3   166  LEU166     -0.1245
     73  CA        -3.4890   42.6380   91.0280 C.3   166  LEU166      0.1561
     74  C         -2.1690   42.3370   90.3080 C.2   166  LEU166      0.2260
     75  O         -1.6920   43.1450   89.5270 O.2   166  LEU166     -0.2867
     76  CB        -3.2550   42.7860   92.5320 C.3   166  LEU166      0.0270
     77  CG        -2.5130   44.0210   92.9860 C.3   166  LEU166      0.0019
     78  CD1       -3.1760   45.2350   92.3740 C.3   166  LEU166      0.0001
     79  CD2       -2.5180   44.0870   94.5040 C.3   166  LEU166      0.0001
     80  N         -0.3990   44.5070   87.2810 N.3   170  TRP170     -0.1241
     81  CA         0.9440   45.0890   87.3370 C.3   170  TRP170      0.1605
     82  C          1.6670   44.8870   86.0300 C.2   170  TRP170      0.2264
     83  O          2.4590   45.7320   85.6140 O.2   170  TRP170     -0.2867
     84  CB         1.7600   44.4770   88.4810 C.3   170  TRP170      0.0550
     85  CG         1.3550   44.9500   89.7730 C.ar  170  TRP170      0.0003
     86  CD1        0.2530   45.6730   90.0460 C.ar  170  TRP170      0.0946
     87  CD2        2.0060   44.7330   91.0110 C.ar  170  TRP170      0.0152
     88  NE1        0.1890   45.9630   91.3800 N.ar  170  TRP170     -0.2442
     89  CE2        1.2620   45.3850   91.9960 C.ar  170  TRP170      0.0810
     90  CE3        3.1510   44.0590   91.3890 C.ar  170  TRP170      0.0012
     91  CZ2        1.6160   45.3670   93.3290 C.ar  170  TRP170      0.0191
     92  CZ3        3.5050   44.0420   92.7330 C.ar  170  TRP170      0.0001
     93  CH2        2.7330   44.6900   93.6770 C.ar  170  TRP170      0.0015
     94  N          0.0410   44.6840  111.0730 N.3   285  GLN285     -0.1245
     95  CA        -0.6000   44.5640  109.7680 C.3   285  GLN285      0.1566
     96  C          0.3850   43.9010  108.8020 C.2   285  GLN285      0.2260
     97  O          0.0190   43.0610  107.9880 O.2   285  GLN285     -0.2867
     98  CB        -1.0790   45.9260  109.2300 C.3   285  GLN285      0.0367
     99  CG        -2.1030   46.6740  110.0950 C.3   285  GLN285      0.0905
    100  CD        -3.4660   45.9890  110.2220 C.2   285  GLN285      0.2608
    101  OE1       -3.6760   44.8540  109.7830 O.2   285  GLN285     -0.2717
    102  NE2       -4.4020   46.6910  110.8370 N.am  285  GLN285     -0.0878
    103  N         -1.1070   40.6820  107.1850 N.3   289  PHE289     -0.1241
    104  CA        -2.0000   41.0810  106.0990 C.3   289  PHE289      0.1605
    105  C         -2.1620   39.9690  105.0850 C.2   289  PHE289      0.2264
    106  O         -1.1870   39.2830  104.7570 O.2   289  PHE289     -0.2867
    107  CB        -1.4700   42.3080  105.3790 C.3   289  PHE289      0.0534
    108  CG        -2.2490   42.6730  104.1400 C.ar  289  PHE289     -0.0203
    109  CD1       -3.6230   42.8750  104.2070 C.ar  289  PHE289     -0.0042
    110  CD2       -1.6020   42.8540  102.9140 C.ar  289  PHE289     -0.0042
    111  CE1       -4.3420   43.2320  103.0730 C.ar  289  PHE289     -0.0003
    112  CE2       -2.3070   43.2250  101.7820 C.ar  289  PHE289     -0.0003
    113  CZ        -3.6810   43.4130  101.8590 C.ar  289  PHE289     -0.0000
    114  N          1.3560   37.0690  101.7330 N.3   294  CYS294     -0.1235
    115  CA         1.7770   38.1870  100.9110 C.3   294  CYS294      0.1677
    116  C          3.3160   38.1740  100.7770 C.2   294  CYS294      0.2270
    117  O          4.0320   37.8760  101.7340 O.2   294  CYS294     -0.2867
    118  CB         1.2730   39.4810  101.5530 C.3   294  CYS294      0.0956
    119  SG         1.6800   40.9790  100.6390 S.3   294  CYS294     -0.0801
    120  N          5.2030   40.6470  100.5330 N.3   296  THR296     -0.1218
    121  CA         5.7540   41.7710  101.2820 C.3   296  THR296      0.1862
    122  C          5.8030   41.4870  102.7670 C.2   296  THR296      0.2287
    123  O          6.1460   42.3570  103.5560 O.2   296  THR296     -0.2866
    124  CB         4.9170   43.0490  101.1130 C.3   296  THR296      0.1770
    125  OG1        3.7100   42.9320  101.8600 O.3   296  THR296     -0.2211
    126  CG2        4.5750   43.2970   99.6750 C.3   296  THR296      0.0375
    127  N          4.2600   50.6090  106.5050 N.3   449  TYR449     -0.1227
    128  CA         4.4110   49.2880  105.9650 C.3   449  TYR449      0.1736
    129  C          3.3650   49.0670  104.9210 C.2   449  TYR449      0.2595
    130  O          2.2620   49.5590  105.0450 O.2   449  TYR449     -0.2718
    131  CB         4.2970   48.2130  107.0530 C.3   449  TYR449      0.0548
    132  CG         5.0970   46.9930  106.6820 C.ar  449  TYR449     -0.0200
    133  CD1        4.5530   45.9730  105.9220 C.ar  449  TYR449     -0.0009
    134  CD2        6.4330   46.8940  107.0400 C.ar  449  TYR449     -0.0009
    135  CE1        5.3170   44.8710  105.5760 C.ar  449  TYR449      0.0417
    136  CE2        7.2020   45.7990  106.6940 C.ar  449  TYR449      0.0417
    137  CZ         6.6450   44.8020  105.9640 C.ar  449  TYR449      0.1957
    138  OH         7.4310   43.7420  105.6180 O.3   449  TYR449     -0.2866
    139  N          3.7360   48.3190  103.8920 N.am  450  ASN450     -0.1974
    140  CA         2.8590   48.0320  102.7700 C.3   450  ASN450      0.1688
    141  C          2.3360   49.2970  102.0950 C.2   450  ASN450      0.2292
    142  O          1.2620   49.3030  101.5020 O.2   450  ASN450     -0.2864
    143  CB         1.6950   47.1250  103.2160 C.3   450  ASN450      0.1181
    144  CG         2.0220   45.6370  103.1120 C.2   450  ASN450      0.2629
    145  OD1        2.6920   45.1840  102.1690 O.2   450  ASN450     -0.2716
    146  ND2        1.5120   44.8580  104.0690 N.am  450  ASN450     -0.0877
    147  N          2.4930   51.1170   99.1010 N.3   452  LEU452     -0.1231
    148  CA         2.8630   50.9290   97.7120 C.3   452  LEU452      0.1693
    149  C          2.1300   51.9360   96.8410 C.2   452  LEU452      0.2592
    150  O          1.0230   52.3920   97.1770 O.2   452  LEU452     -0.2718
    151  CB         2.4950   49.5310   97.2520 C.3   452  LEU452      0.0284
    152  CG         3.0850   48.2750   97.9350 C.3   452  LEU452      0.0019
    153  CD1        2.2850   47.0570   97.4500 C.3   452  LEU452      0.0001
    154  CD2        4.5920   48.0080   97.7110 C.3   452  LEU452      0.0001
    155  N          2.7310   52.2850   95.7120 N.am  453  TYR453     -0.1962
    156  CA         2.0980   53.2110   94.7780 C.3   453  TYR453      0.1771
    157  C          2.2540   52.6900   93.3610 C.2   453  TYR453      0.2619
    158  O          3.2420   52.0820   93.0210 O.2   453  TYR453     -0.2715
    159  CB         2.6560   54.6440   94.9760 C.3   453  TYR453      0.0574
    160  CG         2.3540   55.1780   96.3760 C.ar  453  TYR453     -0.0198
    161  CD1        3.1760   54.8880   97.4490 C.ar  453  TYR453     -0.0009
    162  CD2        1.2090   55.9160   96.6180 C.ar  453  TYR453     -0.0009
    163  CE1        2.8710   55.3300   98.7350 C.ar  453  TYR453      0.0417
    164  CE2        0.8750   56.3700   97.8850 C.ar  453  TYR453      0.0417
    165  CZ         1.6970   56.0790   98.9560 C.ar  453  TYR453      0.1957
    166  OH         1.3230   56.5470  100.2120 O.3   453  TYR453     -0.2866
    167  N          1.2630   52.9140   92.5270 N.am  454  ALA454     -0.1977
    168  CA         1.4160   52.6000   91.1220 C.3   454  ALA454      0.1597
    169  C          2.5700   53.3810   90.5500 C.2   454  ALA454      0.2287
    170  O          3.0710   53.0060   89.5210 O.2   454  ALA454     -0.2864
    171  CB         0.1610   52.9460   90.3560 C.3   454  ALA454      0.0319
    172  N          5.7590   48.4490   88.4000 N.3   470  LEU470     -0.1245
    173  CA         5.2200   49.7500   88.8620 C.3   470  LEU470      0.1561
    174  C          6.2380   50.8330   88.6210 C.2   470  LEU470      0.2260
    175  O          7.4270   50.5440   88.4450 O.2   470  LEU470     -0.2867
    176  CB         4.8420   49.7640   90.3480 C.3   470  LEU470      0.0270
    177  CG         3.8860   48.6980   90.8680 C.3   470  LEU470      0.0019
    178  CD1        3.5550   48.9030   92.3470 C.3   470  LEU470      0.0001
    179  CD2        2.6460   48.7230   90.0020 C.3   470  LEU470      0.0001
@<TRIPOS>BOND
     1    83    82    2
     2    57    56    2
     3    82    81    1
     4    56    55    1
     5    80    81    1
     6    81    84    1
     7    60    58    1
     8    55    58    1
     9    55    54    1
    10   172   173    1
    11   175   174    2
    12    84    85    1
    13    46    45    2
    14   174   173    1
    15    58    59    1
    16   173   176    1
    17    54    45   am
    18    45    44    1
    19   170   169    2
    20    75    74    2
    21    85    86   ar
    22    85    87   ar
    23    43    44    1
    24   179   177    1
    25    44    47    1
    26    86    88   ar
    27    74    73    1
    28   176   177    1
    29   171   168    1
    30   169   168    1
    31    72    73    1
    32   177   178    1
    33    42    41    2
    34    87    90   ar
    35    87    89   ar
    36    73    76    1
    37   168   167    1
    38    88    89   ar
    39    90    92   ar
    40    47    48    1
    41    41    40    1
    42    89    91   ar
    43    48    49    1
    44    64    63    2
    45    78    77    1
    46   167   157   am
    47    76    77    1
    48    33    32    2
    49    92    93   ar
    50    77    79    1
    51   158   157    2
    52    63    62    1
    53    40    39    1
    54    91    93   ar
    55   157   156    1
    56    32    39   am
    57    32    31    1
    58    49    50    1
    59    30    31    1
    60    31    34    1
    61    50    51    2
    62    37    36   ar
    63    62    65    1
    64    62    61    1
    65   156   159    1
    66   156   155    1
    67    65    66    1
    68   159   160    1
    69    51    53    1
    70    51    52    1
    71    36    35    1
    72    36    38   ar
    73    34    35    1
    74   155   149   am
    75    25    24    2
    76    66    68   ar
    77    66    67   ar
    78   160   162   ar
    79   160   161   ar
    80   162   164   ar
    81    68    70   ar
    82    24    23    1
    83   149   150    2
    84   149   148    1
    85    67    69   ar
    86   151   148    1
    87   151   152    1
    88   161   163   ar
    89   153   152    1
    90   154   152    1
    91   148   147    1
    92   164   165   ar
    93    70    71   ar
    94    23    22    1
    95    23    26    1
    96    22    13   am
    97    69    71   ar
    98    11    12    1
    99    13    14    2
   100    13    12    1
   101   163   165   ar
   102    12    15    1
   103   165   166    1
   104    28    26    1
   105     4     3    2
   106    26    27    1
   107   126   124    1
   108    17    19   ar
   109    17    16   ar
   110     3     2    1
   111    19    21   ar
   112    15    16    1
   113    16    18   ar
   114    21    20   ar
   115   120   121    1
   116   119   118    1
   117    27    29    1
   118   116   115    1
   119   116   117    2
   120   115   118    1
   121   115   114    1
   122    18    20   ar
   123   124   121    1
   124   124   125    1
   125   121   122    1
   126     2     1    1
   127     2     5    1
   128   142   141    2
   129   112   113   ar
   130   112   110   ar
   131   113   111   ar
   132   141   140    1
   133     5     6    1
   134   145   144    2
   135   122   123    2
   136   140   143    1
   137   140   139    1
   138   110   108   ar
   139   111   109   ar
   140   144   143    1
   141   144   146   am
   142     6     7   ar
   143     6     8   ar
   144   139   129   am
   145   108   109   ar
   146   108   107    1
   147     7     9   ar
   148     8    10   ar
   149   106   105    2
   150   129   130    2
   151   129   128    1
   152   105   104    1
   153   107   104    1
   154     9    10   ar
   155   135   133   ar
   156   135   137   ar
   157   138   137    1
   158   133   132   ar
   159   137   136   ar
   160   128   127    1
   161   128   131    1
   162   104   103    1
   163   132   134   ar
   164   132   131    1
   165   136   134   ar
   166    97    96    2
   167    96    95    1
   168    98    95    1
   169    98    99    1
   170    95    94    1
   171   101   100    2
   172    99   100    1
   173   100   102   am
