@<TRIPOS>MOLECULE
tmp/5fi6C00.pdb
 116 114 0 0 0
SMALL
GASTEIGER

@<TRIPOS>ATOM
      1  N        122.7290  171.6870   51.5340 N.3   181  ARG181     -0.1231
      2  CA       122.8220  172.6320   50.4150 C.3   181  ARG181      0.1694
      3  C        121.4110  172.9120   49.8810 C.2   181  ARG181      0.2592
      4  O        121.0500  172.5690   48.7540 O.2   181  ARG181     -0.2718
      5  CB       123.7490  172.2200   49.2670 C.3   181  ARG181      0.0321
      6  CG       123.7170  173.2320   48.0980 C.3   181  ARG181      0.0489
      7  CD       125.0860  173.6530   47.5720 C.3   181  ARG181      0.2205
      8  NE       126.0100  174.0450   48.6380 N.pl3 181  ARG181     -0.0865
      9  CZ       127.0430  173.3110   49.0440 C.cat 181  ARG181      0.5346
     10  NH1      127.2890  172.1470   48.4620 N.pl3 181  ARG181      0.1354
     11  NH2      127.8250  173.7670   50.0180 N.pl3 181  ARG181      0.1354
     12  N        120.5840  173.4880   50.7590 N.am  182  PHE182     -0.1976
     13  CA       119.6580  174.5540   50.3880 C.3   182  PHE182      0.1639
     14  C        119.9860  175.8420   51.1160 C.2   182  PHE182      0.2290
     15  O        119.0780  176.6330   51.3880 O.2   182  PHE182     -0.2864
     16  CB       118.2010  174.2470   50.7050 C.3   182  PHE182      0.0560
     17  CG       117.6960  172.9860   50.1420 C.ar  182  PHE182     -0.0200
     18  CD1      117.8970  171.7930   50.8050 C.ar  182  PHE182     -0.0042
     19  CD2      116.9740  172.9940   48.9720 C.ar  182  PHE182     -0.0042
     20  CE1      117.3910  170.6100   50.3050 C.ar  182  PHE182     -0.0003
     21  CE2      116.4750  171.8210   48.4490 C.ar  182  PHE182     -0.0003
     22  CZ       116.6700  170.6280   49.1340 C.ar  182  PHE182     -0.0000
     23  N        121.2740  178.3290   50.0640 N.3   184  LYS184     -0.1231
     24  CA       121.2640  179.4420   49.1350 C.3   184  LYS184      0.1693
     25  C        119.8820  179.7700   48.5930 C.2   184  LYS184      0.2592
     26  O        119.7020  180.8600   48.0390 O.2   184  LYS184     -0.2718
     27  CB       122.2200  179.1440   47.9730 C.3   184  LYS184      0.0285
     28  CG       123.6100  178.7250   48.4360 C.3   184  LYS184      0.0035
     29  CD       124.3990  178.1030   47.3160 C.3   184  LYS184      0.0206
     30  CE       125.8660  178.4720   47.4140 C.3   184  LYS184      0.1093
     31  NZ       126.5290  178.2420   46.0960 N.3   184  LYS184     -0.1314
     32  N        118.9040  178.8770   48.7560 N.am  185  LEU185     -0.1966
     33  CA       117.5370  179.1260   48.3030 C.3   185  LEU185      0.1728
     34  C        116.7720  179.8690   49.3800 C.2   185  LEU185      0.2616
     35  O        116.4610  179.2950   50.4220 O.2   185  LEU185     -0.2715
     36  CB       116.8160  177.8260   47.9690 C.3   185  LEU185      0.0311
     37  CG       117.2750  177.1000   46.7120 C.3   185  LEU185      0.0022
     38  CD1      118.1970  175.9610   47.0940 C.3   185  LEU185      0.0001
     39  CD2      116.0690  176.6070   45.9240 C.3   185  LEU185      0.0001
     40  N        116.4110  181.1230   49.1060 N.am  186  PHE186     -0.1960
     41  CA       115.7620  181.9440   50.1190 C.3   186  PHE186      0.1771
     42  C        114.3980  181.4050   50.5270 C.2   186  PHE186      0.2619
     43  O        113.8820  181.8240   51.5710 O.2   186  PHE186     -0.2715
     44  CB       115.5730  183.3940   49.6380 C.3   186  PHE186      0.0574
     45  CG       116.8110  184.0390   49.0990 C.ar  186  PHE186     -0.0200
     46  CD1      118.0720  183.5730   49.4460 C.ar  186  PHE186     -0.0042
     47  CD2      116.7040  185.1090   48.2240 C.ar  186  PHE186     -0.0042
     48  CE1      119.2010  184.1520   48.9310 C.ar  186  PHE186     -0.0003
     49  CE2      117.8420  185.7250   47.7100 C.ar  186  PHE186     -0.0003
     50  CZ       119.0910  185.2460   48.0590 C.ar  186  PHE186     -0.0000
     51  N        113.7940  180.5010   49.7450 N.am  187  LEU187     -0.1963
     52  CA       112.4130  180.1020   49.9910 C.3   187  LEU187      0.1728
     53  C        112.2420  178.5960   49.8720 C.2   187  LEU187      0.2616
     54  O        112.9600  177.9240   49.1320 O.2   187  LEU187     -0.2715
     55  CB       111.4230  180.8090   49.0350 C.3   187  LEU187      0.0311
     56  CG       111.3490  182.3440   49.0840 C.3   187  LEU187      0.0022
     57  CD1      110.3100  182.8550   48.1340 C.3   187  LEU187      0.0001
     58  CD2      111.0380  182.8420   50.4710 C.3   187  LEU187      0.0001
     59  N        111.2940  178.0760   50.6460 N.am  188  ASN188     -0.1958
     60  CA       110.9150  176.6770   50.5990 C.3   188  ASN188      0.1819
     61  C        109.7870  176.5760   49.5860 C.2   188  ASN188      0.2621
     62  O        109.4550  177.5640   48.9290 O.2   188  ASN188     -0.2715
     63  CB       110.5590  176.1600   51.9990 C.3   188  ASN188      0.1195
     64  CG       109.2680  176.7610   52.5550 C.2   188  ASN188      0.2630
     65  OD1      108.6070  177.5600   51.8990 O.2   188  ASN188     -0.2716
     66  ND2      108.9050  176.3690   53.7820 N.am  188  ASN188     -0.0877
     67  N        109.1680  175.3970   49.4540 N.am  189  GLU189     -0.1977
     68  CA       108.2450  175.1850   48.3380 C.3   189  GLU189      0.1602
     69  C        106.9630  175.9840   48.4780 C.2   189  GLU189      0.2287
     70  O        106.2730  176.1830   47.4710 O.2   189  GLU189     -0.2864
     71  CB       107.8830  173.7130   48.1720 C.3   189  GLU189      0.0415
     72  CG       109.0590  172.8150   47.9200 C.3   189  GLU189      0.1163
     73  CD       109.6790  172.3390   49.2240 C.2   189  GLU189      0.3649
     74  OE1      109.1910  171.3100   49.7540 O.co2 189  GLU189     -0.2457
     75  OE2      110.6490  172.9750   49.7150 O.co2 189  GLU189     -0.2457
     76  N        106.9180  179.1250   49.2140 N.3   191  ASP191     -0.1239
     77  CA       107.3620  180.5160   49.0700 C.3   191  ASP191      0.1674
     78  C        107.5030  181.2190   50.4170 C.2   191  ASP191      0.2266
     79  O        107.4000  182.4520   50.5040 O.2   191  ASP191     -0.2867
     80  CB       106.4410  181.3190   48.1480 C.3   191  ASP191      0.1410
     81  CG       106.6530  180.9930   46.6940 C.2   191  ASP191      0.3668
     82  OD1      107.6240  180.2650   46.3810 O.co2 191  ASP191     -0.2456
     83  OD2      105.8590  181.4900   45.8650 O.co2 191  ASP191     -0.2456
     84  N        112.7320  179.4610   55.1780 N.3   194  HIS194     -0.1241
     85  CA       112.6970  178.1020   55.7200 C.3   194  HIS194      0.1621
     86  C        112.3970  178.0880   57.2190 C.2   194  HIS194      0.2264
     87  O        111.6730  177.2140   57.7120 O.2   194  HIS194     -0.2867
     88  CB       114.0200  177.4010   55.4470 C.3   194  HIS194      0.0745
     89  CG       114.2690  177.1320   54.0010 C.ar  194  HIS194      0.0817
     90  ND1      113.7720  176.0190   53.3560 N.ar  194  HIS194     -0.2268
     91  CD2      114.9820  177.8160   53.0780 C.ar  194  HIS194      0.1154
     92  CE1      114.1600  176.0360   52.0950 C.ar  194  HIS194      0.1986
     93  NE2      114.8990  177.1140   51.9030 N.ar  194  HIS194     -0.2212
     94  N        123.6920  191.0320   49.6870 N.3   251  ARG251     -0.1245
     95  CA       122.8540  189.8380   49.7460 C.3   251  ARG251      0.1563
     96  C        121.5030  190.1120   50.4050 C.2   251  ARG251      0.2260
     97  O        120.4610  189.6680   49.9060 O.2   251  ARG251     -0.2867
     98  CB       123.5540  188.7000   50.4730 C.3   251  ARG251      0.0307
     99  CG       122.7930  187.4010   50.1490 C.3   251  ARG251      0.0489
    100  CD       123.2430  186.1520   50.8930 C.3   251  ARG251      0.2205
    101  NE       122.9100  184.9420   50.1280 N.pl3 251  ARG251     -0.0865
    102  CZ       123.7710  184.2580   49.3730 C.cat 251  ARG251      0.5346
    103  NH1      125.0330  184.6610   49.2780 N.pl3 251  ARG251      0.1354
    104  NH2      123.3770  183.1630   48.7200 N.pl3 251  ARG251      0.1354
    105  N        113.9220  190.0820   46.5620 N.3   258  TYR258     -0.1241
    106  CA       113.3800  188.7700   46.1970 C.3   258  TYR258      0.1605
    107  C        112.1630  188.4220   47.0430 C.2   258  TYR258      0.2264
    108  O        111.1600  187.9230   46.5190 O.2   258  TYR258     -0.2867
    109  CB       114.4450  187.6860   46.3180 C.3   258  TYR258      0.0534
    110  CG       114.0200  186.3310   45.7590 C.ar  258  TYR258     -0.0201
    111  CD1      114.2660  185.9790   44.4240 C.ar  258  TYR258     -0.0009
    112  CD2      113.3930  185.3940   46.5660 C.ar  258  TYR258     -0.0009
    113  CE1      113.8710  184.7290   43.9170 C.ar  258  TYR258      0.0417
    114  CE2      113.0010  184.1490   46.0660 C.ar  258  TYR258      0.0417
    115  CZ       113.2530  183.8190   44.7500 C.ar  258  TYR258      0.1957
    116  OH       112.8560  182.5870   44.2900 O.3   258  TYR258     -0.2866
@<TRIPOS>BOND
     1   113   111   ar
     2   113   115   ar
     3   116   115    1
     4   111   110   ar
     5   115   114   ar
     6   110   109    1
     7   110   112   ar
     8    83    81   ar
     9    39    37    1
    10   114   112   ar
    11    31    30    1
    12   106   109    1
    13   106   105    1
    14   106   107    1
    15    82    81   ar
    16   108   107    2
    17    81    80    1
    18    37    38    1
    19    37    36    1
    20    29    30    1
    21    29    28    1
    22    70    69    2
    23     7     6    1
    24     7     8    1
    25    49    50   ar
    26    49    47   ar
    27    72    71    1
    28    72    73    1
    29    36    33    1
    30    27    28    1
    31    27    24    1
    32    26    25    2
    33    50    48   ar
    34     6     5    1
    35    57    56    1
    36    80    77    1
    37    71    68    1
    38    47    45   ar
    39    33    32    1
    40    33    34    1
    41    68    69    1
    42    68    67    1
    43    21    19   ar
    44    21    22   ar
    45    10     9    1
    46    25    32   am
    47    25    24    1
    48     8     9    2
    49   104   102    1
    50     4     3    2
    51    62    61    2
    52    48    46   ar
    53    19    17   ar
    54    55    56    1
    55    55    52    1
    56     9    11    1
    57    77    76    1
    58    77    78    1
    59    56    58    1
    60    45    46   ar
    61    45    44    1
    62    40    34   am
    63    40    41    1
    64    54    53    2
    65    22    20   ar
    66    24    23    1
    67    73    75   ar
    68    73    74   ar
    69     5     2    1
    70   103   102    1
    71   102   101    2
    72    34    35    2
    73    67    61   am
    74    61    60    1
    75    44    41    1
    76    94    95    1
    77    51    52    1
    78    51    42   am
    79    95    96    1
    80    95    98    1
    81    53    52    1
    82    53    59   am
    83     3     2    1
    84     3    12   am
    85    97    96    2
    86    41    42    1
    87   101   100    1
    88    17    16    1
    89    17    18   ar
    90    99    98    1
    91    99   100    1
    92    20    18   ar
    93    13    16    1
    94    13    12    1
    95    13    14    1
    96     2     1    1
    97    78    79    2
    98    42    43    2
    99    60    59    1
   100    60    63    1
   101    14    15    2
   102    65    64    2
   103    93    92   ar
   104    93    91   ar
   105    63    64    1
   106    92    90   ar
   107    64    66   am
   108    91    89   ar
   109    90    89   ar
   110    89    88    1
   111    84    85    1
   112    88    85    1
   113    85    86    1
   114    86    87    2
