@<TRIPOS>MOLECULE
tmp/5fi7A00.pdb
 93 90 0 0 0
SMALL
GASTEIGER

@<TRIPOS>ATOM
      1  N         35.9100  -37.9350   -9.8930 N.3   181  ARG181     -0.1245
      2  CA        35.9330  -38.4190   -8.5100 C.3   181  ARG181      0.1563
      3  C         34.5630  -38.3000   -7.8440 C.2   181  ARG181      0.2260
      4  O         34.4200  -37.9990   -6.6570 O.2   181  ARG181     -0.2867
      5  CB        37.0710  -37.7370   -7.7320 C.3   181  ARG181      0.0307
      6  CG        38.5120  -38.0160   -8.3020 C.3   181  ARG181      0.0489
      7  CD        38.7180  -39.4300   -8.9590 C.3   181  ARG181      0.2205
      8  NE        37.9070  -40.5090   -8.3900 N.pl3 181  ARG181     -0.0865
      9  CZ        38.0600  -41.0120   -7.1730 C.cat 181  ARG181      0.5346
     10  NH1       39.0320  -40.5740   -6.3970 N.pl3 181  ARG181      0.1354
     11  NH2       37.2460  -41.9600   -6.7390 N.pl3 181  ARG181      0.1354
     12  N         32.9270  -42.9540   -6.7460 N.3   184  LYS184     -0.1231
     13  CA        32.8300  -43.8310   -5.5820 C.3   184  LYS184      0.1693
     14  C         31.4000  -44.3060   -5.3710 C.2   184  LYS184      0.2592
     15  O         31.1590  -45.4870   -5.0920 O.2   184  LYS184     -0.2718
     16  CB        33.3510  -43.1060   -4.3400 C.3   184  LYS184      0.0285
     17  CG        34.6970  -42.4110   -4.5200 C.3   184  LYS184      0.0035
     18  CD        35.5870  -42.6950   -3.3270 C.3   184  LYS184      0.0206
     19  CE        37.0480  -42.5130   -3.6740 C.3   184  LYS184      0.1093
     20  NZ        37.6700  -43.6750   -4.3940 N.3   184  LYS184     -0.1314
     21  N         30.4380  -43.3970   -5.5120 N.am  185  LEU185     -0.1966
     22  CA        29.0350  -43.7240   -5.3110 C.3   185  LEU185      0.1728
     23  C         28.6110  -44.8270   -6.2690 C.2   185  LEU185      0.2616
     24  O         29.0150  -44.8530   -7.4350 O.2   185  LEU185     -0.2715
     25  CB        28.1750  -42.4770   -5.5230 C.3   185  LEU185      0.0311
     26  CG        28.0050  -41.5130   -4.3480 C.3   185  LEU185      0.0022
     27  CD1       27.8650  -40.0960   -4.8660 C.3   185  LEU185      0.0001
     28  CD2       26.7910  -41.8760   -3.5400 C.3   185  LEU185      0.0001
     29  N         27.8080  -45.7540   -5.7690 N.am  186  PHE186     -0.1960
     30  CA        27.3080  -46.8080   -6.6300 C.3   186  PHE186      0.1771
     31  C         25.9920  -46.4420   -7.3010 C.2   186  PHE186      0.2619
     32  O         25.6500  -47.0470   -8.3230 O.2   186  PHE186     -0.2715
     33  CB        27.1240  -48.1080   -5.8410 C.3   186  PHE186      0.0574
     34  CG        28.3750  -48.6120   -5.1780 C.ar  186  PHE186     -0.0200
     35  CD1       29.6260  -48.2370   -5.6360 C.ar  186  PHE186     -0.0042
     36  CD2       28.2920  -49.4900   -4.1030 C.ar  186  PHE186     -0.0042
     37  CE1       30.7750  -48.7110   -5.0180 C.ar  186  PHE186     -0.0003
     38  CE2       29.4340  -49.9690   -3.4890 C.ar  186  PHE186     -0.0003
     39  CZ        30.6770  -49.5720   -3.9480 C.ar  186  PHE186     -0.0000
     40  N         25.2540  -45.4650   -6.7730 N.am  187  LEU187     -0.1963
     41  CA        23.8960  -45.2530   -7.2330 C.3   187  LEU187      0.1728
     42  C         23.6420  -43.7680   -7.3950 C.2   187  LEU187      0.2616
     43  O         24.2160  -42.9510   -6.6790 O.2   187  LEU187     -0.2715
     44  CB        22.8740  -45.8510   -6.2750 C.3   187  LEU187      0.0311
     45  CG        22.9650  -47.3550   -6.0250 C.3   187  LEU187      0.0022
     46  CD1       21.9050  -47.8260   -5.0280 C.3   187  LEU187      0.0001
     47  CD2       22.8380  -48.1150   -7.3190 C.3   187  LEU187      0.0001
     48  N         22.7760  -43.4320   -8.3430 N.am  188  ASN188     -0.1958
     49  CA        22.4120  -42.0490   -8.6090 C.3   188  ASN188      0.1819
     50  C         21.2280  -41.6680   -7.7240 C.2   188  ASN188      0.2621
     51  O         20.9460  -42.3420   -6.7320 O.2   188  ASN188     -0.2715
     52  CB        22.1280  -41.8630  -10.1070 C.3   188  ASN188      0.1195
     53  CG        20.9380  -42.6660  -10.5960 C.2   188  ASN188      0.2630
     54  OD1       20.1320  -43.1680   -9.8150 O.2   188  ASN188     -0.2716
     55  ND2       20.8300  -42.7960  -11.9120 N.am  188  ASN188     -0.0877
     56  N         20.5020  -40.6110   -8.0940 N.am  189  GLU189     -0.1977
     57  CA        19.3950  -40.1380   -7.2690 C.3   189  GLU189      0.1602
     58  C         18.2500  -41.1400   -7.2260 C.2   189  GLU189      0.2287
     59  O         17.5840  -41.2730   -6.1940 O.2   189  GLU189     -0.2864
     60  CB        18.8940  -38.7900   -7.7920 C.3   189  GLU189      0.0415
     61  CG        19.9950  -37.7740   -8.0440 C.3   189  GLU189      0.1163
     62  CD        19.9740  -36.6330   -7.0400 C.2   189  GLU189      0.3649
     63  OE1       18.8900  -36.3440   -6.4910 O.co2 189  GLU189     -0.2457
     64  OE2       21.0400  -36.0300   -6.7930 O.co2 189  GLU189     -0.2457
     65  N         18.4660  -44.3070   -7.2980 N.3   191  ASP191     -0.1239
     66  CA        18.9510  -45.5760   -6.7520 C.3   191  ASP191      0.1674
     67  C         19.1850  -46.6320   -7.8400 C.2   191  ASP191      0.2266
     68  O         19.0360  -47.8330   -7.6120 O.2   191  ASP191     -0.2867
     69  CB        18.0040  -46.0930   -5.6710 C.3   191  ASP191      0.1410
     70  CG        18.2280  -45.4130   -4.3320 C.2   191  ASP191      0.3668
     71  OD1       19.2980  -44.7930   -4.1270 O.co2 191  ASP191     -0.2456
     72  OD2       17.3370  -45.5090   -3.4750 O.co2 191  ASP191     -0.2456
     73  N         25.3100  -54.3590   -2.0060 N.3   258  TYR258     -0.1241
     74  CA        24.7040  -53.0260   -2.0520 C.3   258  TYR258      0.1605
     75  C         23.5200  -52.9800   -3.0090 C.2   258  TYR258      0.2264
     76  O         22.4680  -52.4130   -2.6900 O.2   258  TYR258     -0.2867
     77  CB        25.7350  -51.9780   -2.4720 C.3   258  TYR258      0.0534
     78  CG        25.3110  -50.5820   -2.0880 C.ar  258  TYR258     -0.0201
     79  CD1       25.6350  -50.0640   -0.8470 C.ar  258  TYR258     -0.0009
     80  CD2       24.5470  -49.8010   -2.9400 C.ar  258  TYR258     -0.0009
     81  CE1       25.2430  -48.8000   -0.4720 C.ar  258  TYR258      0.0417
     82  CE2       24.1440  -48.5280   -2.5720 C.ar  258  TYR258      0.0417
     83  CZ        24.4980  -48.0310   -1.3360 C.ar  258  TYR258      0.1957
     84  OH        24.1070  -46.7680   -0.9510 O.3   258  TYR258     -0.2866
     85  N         19.5440  -52.5460   -1.8780 N.3   262  LYS262     -0.1245
     86  CA        18.8100  -51.4630   -2.5170 C.3   262  LYS262      0.1561
     87  C         17.8350  -51.9400   -3.5830 C.2   262  LYS262      0.2260
     88  O         17.2190  -51.0970   -4.2340 O.2   262  LYS262     -0.2867
     89  CB        19.7840  -50.4470   -3.1100 C.3   262  LYS262      0.0271
     90  CG        20.3520  -49.4700   -2.0640 C.3   262  LYS262      0.0035
     91  CD        19.3160  -48.4200   -1.6910 C.3   262  LYS262      0.0206
     92  CE        19.6750  -47.6460   -0.4390 C.3   262  LYS262      0.1093
     93  NZ        18.6020  -46.6450   -0.1130 N.3   262  LYS262     -0.1314
@<TRIPOS>BOND
     1    55    53   am
     2    53    52    1
     3    53    54    2
     4    52    49    1
     5     1     2    1
     6     7     8    1
     7     7     6    1
     8    49    48    1
     9    49    50    1
    10     2     3    1
    11     2     5    1
    12     8     9    2
    13    48    42   am
    14    32    31    2
    15     6     5    1
    16    56    50   am
    17    56    57    1
    18    61    60    1
    19    61    62    1
    20     3     4    2
    21    67    68    2
    22    67    66    1
    23    60    57    1
    24    50    51    2
    25    24    23    2
    26    42    41    1
    27    42    43    2
    28    47    45    1
    29    31    40   am
    30    31    30    1
    31    65    66    1
    32    57    58    1
    33    41    40    1
    34    41    44    1
    35    58    59    2
    36     9    11    1
    37     9    10    1
    38    62    64   ar
    39    62    63   ar
    40    66    69    1
    41    12    13    1
    42    30    33    1
    43    30    29    1
    44    44    45    1
    45    23    29   am
    46    23    22    1
    47    45    46    1
    48    33    34    1
    49    69    70    1
    50    35    34   ar
    51    35    37   ar
    52    13    14    1
    53    13    16    1
    54    25    22    1
    55    25    26    1
    56    21    14   am
    57    21    22    1
    58    14    15    2
    59    34    36   ar
    60    37    39   ar
    61    27    26    1
    62    17    16    1
    63    17    18    1
    64    20    19    1
    65    26    28    1
    66    70    71   ar
    67    70    72   ar
    68    88    87    2
    69    36    38   ar
    70    39    38   ar
    71    19    18    1
    72    87    86    1
    73    89    86    1
    74    89    90    1
    75    75    76    2
    76    75    74    1
    77    80    82   ar
    78    80    78   ar
    79    82    83   ar
    80    86    85    1
    81    77    78    1
    82    77    74    1
    83    78    79   ar
    84    90    91    1
    85    74    73    1
    86    91    92    1
    87    83    84    1
    88    83    81   ar
    89    79    81   ar
    90    92    93    1
