@<TRIPOS>MOLECULE
tmp/5fi8A00.pdb
 177 165 0 0 0
SMALL
GASTEIGER

@<TRIPOS>ATOM
      1  N        -36.5310  109.8100  -20.7100 N.3    11  LEU11      -0.1245
      2  CA       -37.6310  109.1210  -20.0480 C.3    11  LEU11       0.1561
      3  C        -38.9530  109.3790  -20.7620 C.2    11  LEU11       0.2260
      4  O        -39.7220  108.4540  -21.0180 O.2    11  LEU11      -0.2867
      5  CB       -37.7410  109.5710  -18.5900 C.3    11  LEU11       0.0270
      6  CG       -38.6440  108.7080  -17.7110 C.3    11  LEU11       0.0019
      7  CD1      -37.8230  107.6250  -17.0300 C.3    11  LEU11       0.0001
      8  CD2      -39.3850  109.5540  -16.7000 C.3    11  LEU11       0.0001
      9  N        -39.0600  107.5070  -23.9350 N.3    14  CYS14      -0.1221
     10  CA       -39.3050  106.1000  -23.6200 C.3    14  CYS14       0.1808
     11  C        -40.7610  105.8530  -23.2600 C.2    14  CYS14       0.2601
     12  O        -41.3630  104.8530  -23.6620 O.2    14  CYS14      -0.2717
     13  CB       -38.4140  105.6510  -22.4590 C.3    14  CYS14       0.0970
     14  SG       -36.6760  105.3920  -22.8780 S.3    14  CYS14      -0.0800
     15  N        -41.3170  106.7800  -22.4920 N.am   15  LEU15      -0.1979
     16  CA       -42.6830  106.6690  -22.0130 C.3    15  LEU15       0.1596
     17  C        -43.6680  106.6320  -23.1830 C.2    15  LEU15       0.2287
     18  O        -44.6690  105.9190  -23.1410 O.2    15  LEU15      -0.2864
     19  CB       -42.9870  107.8370  -21.0690 C.3    15  LEU15       0.0297
     20  CG       -44.2240  107.7790  -20.1740 C.3    15  LEU15       0.0022
     21  CD1      -44.3100  106.4720  -19.4220 C.3    15  LEU15       0.0001
     22  CD2      -44.1890  108.9430  -19.1940 C.3    15  LEU15       0.0001
     23  N        -43.6250   99.4180  -21.1100 N.3    20  GLY20      -0.1210
     24  CA       -43.2850   99.8000  -19.7500 C.3    20  GLY20       0.1956
     25  C        -42.2210   98.9440  -19.0810 C.2    20  GLY20       0.2611
     26  O        -41.2350   99.4680  -18.5600 O.2    20  GLY20      -0.2717
     27  N        -42.4070   97.6280  -19.0870 N.am   21  GLU21      -0.1979
     28  CA       -41.4770   96.7530  -18.3830 C.3    21  GLU21       0.1602
     29  C        -40.1060   96.7690  -19.0570 C.2    21  GLU21       0.2287
     30  O        -39.0840   96.6300  -18.3890 O.2    21  GLU21      -0.2864
     31  CB       -42.0210   95.3240  -18.3020 C.3    21  GLU21       0.0415
     32  CG       -41.2520   94.4350  -17.3080 C.3    21  GLU21       0.1163
     33  CD       -42.0400   93.2140  -16.8470 C.2    21  GLU21       0.3649
     34  OE1      -43.1650   92.9930  -17.3450 O.co2  21  GLU21      -0.2457
     35  OE2      -41.5290   92.4740  -15.9780 O.co2  21  GLU21      -0.2457
     36  N        -38.8400   99.4540  -20.5060 N.3    23  CYS23      -0.1221
     37  CA       -38.2800  100.7130  -20.0250 C.3    23  CYS23       0.1808
     38  C        -37.6920  100.5190  -18.6470 C.2    23  CYS23       0.2601
     39  O        -36.5490  100.8940  -18.3830 O.2    23  CYS23      -0.2717
     40  CB       -39.3390  101.8150  -19.9530 C.3    23  CYS23       0.0970
     41  SG       -39.8870  102.4670  -21.5130 S.3    23  CYS23      -0.0800
     42  N        -38.5050   99.9380  -17.7720 N.am   24  HIS24      -0.1975
     43  CA       -38.1340   99.7440  -16.3820 C.3    24  HIS24       0.1656
     44  C        -36.8160   98.9970  -16.2850 C.2    24  HIS24       0.2291
     45  O        -35.8860   99.4540  -15.6210 O.2    24  HIS24      -0.2864
     46  CB       -39.2290   98.9820  -15.6390 C.3    24  HIS24       0.0771
     47  CG       -39.1060   99.0460  -14.1470 C.ar   24  HIS24       0.0820
     48  ND1      -39.4550  100.1640  -13.4170 N.ar   24  HIS24      -0.2267
     49  CD2      -38.6800   98.1300  -13.2490 C.ar   24  HIS24       0.1154
     50  CE1      -39.2460   99.9300  -12.1360 C.ar   24  HIS24       0.1986
     51  NE2      -38.7770   98.7040  -12.0030 N.ar   24  HIS24      -0.2212
     52  N        -33.7550  101.0330  -17.4250 N.3    27  PHE27      -0.1227
     53  CA       -33.2720  102.0440  -16.4980 C.3    27  PHE27       0.1736
     54  C        -32.6220  101.3870  -15.2870 C.2    27  PHE27       0.2595
     55  O        -31.6410  101.9040  -14.7480 O.2    27  PHE27      -0.2718
     56  CB       -34.4110  102.9770  -16.0850 C.3    27  PHE27       0.0547
     57  CG       -34.6510  104.0870  -17.0690 C.ar   27  PHE27      -0.0202
     58  CD1      -33.9580  105.2800  -16.9670 C.ar   27  PHE27      -0.0042
     59  CD2      -35.5430  103.9240  -18.1140 C.ar   27  PHE27      -0.0042
     60  CE1      -34.1660  106.2970  -17.8780 C.ar   27  PHE27      -0.0003
     61  CE2      -35.7540  104.9360  -19.0250 C.ar   27  PHE27      -0.0003
     62  CZ       -35.0640  106.1230  -18.9070 C.ar   27  PHE27      -0.0000
     63  N        -33.1510  100.2350  -14.8850 N.am   28  LEU28      -0.1980
     64  CA       -32.5340   99.4440  -13.8290 C.3    28  LEU28       0.1596
     65  C        -31.1200   99.0590  -14.2370 C.2    28  LEU28       0.2287
     66  O        -30.1940   99.0930  -13.4240 O.2    28  LEU28      -0.2864
     67  CB       -33.3570   98.1890  -13.5310 C.3    28  LEU28       0.0297
     68  CG       -34.6370   98.3510  -12.7050 C.3    28  LEU28       0.0022
     69  CD1      -35.3330   97.0100  -12.5540 C.3    28  LEU28       0.0001
     70  CD2      -34.3510   98.9320  -11.3310 C.3    28  LEU28       0.0001
     71  N        -26.4340  106.9310  -13.4990 N.3    36  LEU36      -0.1245
     72  CA       -27.5550  107.8030  -13.1890 C.3    36  LEU36       0.1561
     73  C        -27.0790  108.9150  -12.2600 C.2    36  LEU36       0.2260
     74  O        -26.0660  108.7670  -11.5780 O.2    36  LEU36      -0.2867
     75  CB       -28.6920  107.0130  -12.5450 C.3    36  LEU36       0.0270
     76  CG       -29.2380  105.8440  -13.3670 C.3    36  LEU36       0.0019
     77  CD1      -30.4190  105.2200  -12.6440 C.3    36  LEU36       0.0001
     78  CD2      -29.6310  106.2750  -14.7770 C.3    36  LEU36       0.0001
     79  N        -40.2710   97.7510   -7.3530 N.3    66  PHE66      -0.1241
     80  CA       -39.5020   98.6190   -8.2330 C.3    66  PHE66       0.1605
     81  C        -38.1870   97.9340   -8.5610 C.2    66  PHE66       0.2264
     82  O        -37.9100   97.6280   -9.7220 O.2    66  PHE66      -0.2867
     83  CB       -39.2680   99.9720   -7.5720 C.3    66  PHE66       0.0534
     84  CG       -38.8060  101.0420   -8.5120 C.ar   66  PHE66      -0.0203
     85  CD1      -37.4560  101.2230   -8.7750 C.ar   66  PHE66      -0.0042
     86  CD2      -39.7210  101.8880   -9.1150 C.ar   66  PHE66      -0.0042
     87  CE1      -37.0320  102.2190   -9.6270 C.ar   66  PHE66      -0.0003
     88  CE2      -39.3000  102.8840   -9.9690 C.ar   66  PHE66      -0.0003
     89  CZ       -37.9540  103.0500  -10.2250 C.ar   66  PHE66      -0.0000
     90  N        -29.8840   97.1470   -8.2810 N.3    72  CYS72      -0.1235
     91  CA       -29.2160   98.4550   -8.2270 C.3    72  CYS72       0.1677
     92  C        -29.7580   99.3190   -7.0890 C.2    72  CYS72       0.2270
     93  O        -30.2660  100.4210   -7.3000 O.2    72  CYS72      -0.2867
     94  CB       -29.3420   99.1940   -9.5660 C.3    72  CYS72       0.0956
     95  SG       -31.0080   99.6540  -10.0420 S.3    72  CYS72      -0.0801
     96  N        -30.4640  103.8250   -6.9310 N.3    76  ILE76      -0.1245
     97  CA       -31.7870  104.3200   -6.5890 C.3    76  ILE76       0.1561
     98  C        -31.7160  105.1740   -5.3290 C.2    76  ILE76       0.2260
     99  O        -32.2750  106.2680   -5.2840 O.2    76  ILE76      -0.2867
    100  CB       -32.7900  103.1630   -6.3880 C.3    76  ILE76       0.0252
    101  CG1      -32.9460  102.3770   -7.6950 C.3    76  ILE76       0.0019
    102  CG2      -34.1500  103.6970   -5.9360 C.3    76  ILE76       0.0019
    103  CD1      -33.7470  101.0850   -7.5660 C.3    76  ILE76       0.0001
    104  N        -30.3260  108.6560   -5.7320 N.3    79  LEU79      -0.1245
    105  CA       -31.1900  109.6520   -6.3600 C.3    79  LEU79       0.1561
    106  C        -31.8310  110.5920   -5.3360 C.2    79  LEU79       0.2260
    107  O        -32.5240  111.5410   -5.7110 O.2    79  LEU79      -0.2867
    108  CB       -32.2900  108.9700   -7.1760 C.3    79  LEU79       0.0270
    109  CG       -31.8920  108.3730   -8.5240 C.3    79  LEU79       0.0019
    110  CD1      -33.0520  107.6170   -9.1200 C.3    79  LEU79       0.0001
    111  CD2      -31.4640  109.4500   -9.4730 C.3    79  LEU79       0.0001
    112  N        -47.7520   94.9300  -17.7310 N.3   102  ILE102     -0.1245
    113  CA       -47.8060   96.2580  -17.1240 C.3   102  ILE102      0.1561
    114  C        -48.1570   97.3080  -18.1750 C.2   102  ILE102      0.2260
    115  O        -47.5960   97.3070  -19.2730 O.2   102  ILE102     -0.2867
    116  CB       -46.4680   96.6590  -16.4570 C.3   102  ILE102      0.0252
    117  CG1      -45.8530   95.4830  -15.6910 C.3   102  ILE102      0.0019
    118  CG2      -46.6860   97.8450  -15.5240 C.3   102  ILE102      0.0019
    119  CD1      -44.4730   95.7780  -15.1180 C.3   102  ILE102      0.0001
    120  N        -49.3370  101.6710  -18.7250 N.3   104  ARG104     -0.1245
    121  CA       -49.4360  103.0230  -18.1770 C.3   104  ARG104      0.1563
    122  C        -50.5100  103.8450  -18.8670 C.2   104  ARG104      0.2260
    123  O        -50.9040  103.5630  -19.9960 O.2   104  ARG104     -0.2867
    124  CB       -48.1100  103.7640  -18.3130 C.3   104  ARG104      0.0307
    125  CG       -46.9330  103.0480  -17.7160 C.3   104  ARG104      0.0489
    126  CD       -45.6960  103.2990  -18.5350 C.3   104  ARG104      0.2205
    127  NE       -45.7790  102.6740  -19.8480 N.pl3 104  ARG104     -0.0865
    128  CZ       -44.8170  102.7170  -20.7640 C.cat 104  ARG104      0.5346
    129  NH1      -43.6810  103.3550  -20.5150 N.pl3 104  ARG104      0.1354
    130  NH2      -44.9930  102.1160  -21.9340 N.pl3 104  ARG104      0.1354
    131  N        -50.9690  103.4350  -13.4520 N.3   111  ILE111     -0.1245
    132  CA       -50.3460  102.2120  -13.9270 C.3   111  ILE111      0.1561
    133  C        -51.2220  101.0440  -13.5140 C.2   111  ILE111      0.2260
    134  O        -51.8410  101.0790  -12.4530 O.2   111  ILE111     -0.2867
    135  CB       -48.9180  102.0270  -13.3410 C.3   111  ILE111      0.0252
    136  CG1      -48.0370  103.2380  -13.6670 C.3   111  ILE111      0.0019
    137  CG2      -48.2790  100.7510  -13.8730 C.3   111  ILE111      0.0019
    138  CD1      -46.7190  103.2640  -12.9220 C.3   111  ILE111      0.0001
    139  N        -43.5010  105.2060   -6.2850 N.3   326  TYR326     -0.1241
    140  CA       -43.2880  104.2680   -7.3820 C.3   326  TYR326      0.1605
    141  C        -43.6830  104.9360   -8.6960 C.2   326  TYR326      0.2264
    142  O        -42.8320  105.1940   -9.5510 O.2   326  TYR326     -0.2867
    143  CB       -44.0890  102.9780   -7.1650 C.3   326  TYR326      0.0534
    144  CG       -43.6780  101.8150   -8.0510 C.ar  326  TYR326     -0.0201
    145  CD1      -43.5060  101.9690   -9.4260 C.ar  326  TYR326     -0.0009
    146  CD2      -43.4560  100.5630   -7.5050 C.ar  326  TYR326     -0.0009
    147  CE1      -43.1290  100.9040  -10.2240 C.ar  326  TYR326      0.0417
    148  CE2      -43.0790   99.4960   -8.2940 C.ar  326  TYR326      0.0417
    149  CZ       -42.9180   99.6700   -9.6510 C.ar  326  TYR326      0.1957
    150  OH       -42.5370   98.6030  -10.4320 O.3   326  TYR326     -0.2866
    151  N        -41.8320  108.0100  -10.0240 N.3   329  LEU329     -0.1231
    152  CA       -40.5610  107.8050  -10.7090 C.3   329  LEU329      0.1693
    153  C        -40.7700  107.4970  -12.1890 C.2   329  LEU329      0.2591
    154  O        -39.9440  107.8530  -13.0300 O.2   329  LEU329     -0.2718
    155  CB       -39.7750  106.6770  -10.0430 C.3   329  LEU329      0.0284
    156  CG       -38.9410  107.0780   -8.8250 C.3   329  LEU329      0.0019
    157  CD1      -38.7140  105.8950   -7.9080 C.3   329  LEU329      0.0001
    158  CD2      -37.6120  107.6450   -9.2710 C.3   329  LEU329      0.0001
    159  N        -41.8790  106.8380  -12.5030 N.am  330  VAL330     -0.1980
    160  CA       -42.1870  106.4790  -13.8800 C.3   330  VAL330      0.1595
    161  C        -42.5620  107.7110  -14.7010 C.2   330  VAL330      0.2287
    162  O        -42.1710  107.8320  -15.8610 O.2   330  VAL330     -0.2864
    163  CB       -43.3310  105.4480  -13.9360 C.3   330  VAL330      0.0276
    164  CG1      -43.8110  105.2340  -15.3640 C.3   330  VAL330      0.0022
    165  CG2      -42.8680  104.1300  -13.3370 C.3   330  VAL330      0.0022
    166  N        -39.5150  110.8870  -13.3770 N.3   333  GLY333     -0.1210
    167  CA       -38.1320  110.5550  -13.6620 C.3   333  GLY333      0.1956
    168  C        -37.1630  110.8040  -12.5230 C.2   333  GLY333      0.2611
    169  O        -37.5500  110.8480  -11.3540 O.2   333  GLY333     -0.2717
    170  N        -35.8950  110.9830  -12.8910 N.am  334  MET334     -0.1979
    171  CA       -34.7720  111.0600  -11.9580 C.3   334  MET334      0.1605
    172  C        -34.8960  112.1140  -10.8680 C.2   334  MET334      0.2287
    173  O        -34.2890  111.9840   -9.8030 O.2   334  MET334     -0.2864
    174  CB       -33.4880  111.3380  -12.7370 C.3   334  MET334      0.0413
    175  CG       -33.1640  110.3060  -13.7750 C.3   334  MET334      0.0598
    176  SD       -32.8490  108.6920  -13.0630 S.3   334  MET334     -0.1393
    177  CE       -33.0410  107.6880  -14.5310 C.3   334  MET334      0.0692
@<TRIPOS>BOND
     1     9    10    1
     2    12    11    2
     3    10    11    1
     4    10    13    1
     5    11    15   am
     6    17    18    2
     7    17    16    1
     8    14    13    1
     9    15    16    1
    10    16    19    1
    11   130   128    1
    12    41    40    1
    13    23    24    1
    14    19    20    1
    15     4     3    2
    16   128   129    1
    17   128   127    2
    18     3     2    1
    19     1     2    1
    20    36    37    1
    21    20    21    1
    22    20    22    1
    23     2     5    1
    24    37    40    1
    25    37    38    1
    26   123   122    2
    27   127   126    1
    28    24    25    1
    29   115   114    2
    30    27    25   am
    31    27    28    1
    32    25    26    2
    33    29    30    2
    34    29    28    1
    35    61    62   ar
    36    61    59   ar
    37    62    60   ar
    38   122   121    1
    39   120   121    1
    40    38    39    2
    41    38    42   am
    42     5     6    1
    43   126   125    1
    44    28    31    1
    45   124   121    1
    46   124   125    1
    47    31    32    1
    48   114   113    1
    49    59    57   ar
    50    60    58   ar
    51    42    43    1
    52   112   113    1
    53     6     7    1
    54     6     8    1
    55    52    53    1
    56    34    33   ar
    57    32    33    1
    58   113   116    1
    59    57    58   ar
    60    57    56    1
    61    33    35   ar
    62    53    56    1
    63    53    54    1
    64   116   117    1
    65   116   118    1
    66    43    44    1
    67    43    46    1
    68    44    45    2
    69   162   161    2
    70   117   119    1
    71    46    47    1
    72   164   163    1
    73    54    63   am
    74    54    55    2
    75    63    64    1
    76    78    76    1
    77   161   160    1
    78   177   176    1
    79    65    64    1
    80    65    66    2
    81    47    48   ar
    82    47    49   ar
    83   163   160    1
    84   163   165    1
    85   132   133    1
    86   132   131    1
    87   132   135    1
    88   160   159    1
    89   137   135    1
    90    64    67    1
    91   175   176    1
    92   175   174    1
    93   136   135    1
    94   136   138    1
    95   167   166    1
    96   167   168    1
    97    67    68    1
    98   133   134    2
    99    71    72    1
   100    48    50   ar
   101    76    77    1
   102    76    75    1
   103    49    51   ar
   104    72    75    1
   105    72    73    1
   106   154   153    2
   107   170   168   am
   108   170   171    1
   109   174   171    1
   110    68    69    1
   111    68    70    1
   112   168   169    2
   113   159   153   am
   114    73    74    2
   115   153   152    1
   116    50    51   ar
   117   171   172    1
   118   172   173    2
   119   152   155    1
   120   152   151    1
   121   150   149    1
   122    89    88   ar
   123    89    87   ar
   124   147   149   ar
   125   147   145   ar
   126   155   156    1
   127    95    94    1
   128    88    86   ar
   129    82    81    2
   130   149   148   ar
   131    87    85   ar
   132    94    91    1
   133   142   141    2
   134   111   109    1
   135   145   144   ar
   136   158   156    1
   137   110   109    1
   138    86    84   ar
   139   156   157    1
   140    85    84   ar
   141   141   140    1
   142    81    80    1
   143   109   108    1
   144    84    83    1
   145   148   146   ar
   146    90    91    1
   147    80    83    1
   148    80    79    1
   149    91    92    1
   150   144   146   ar
   151   144   143    1
   152   101   103    1
   153   101   100    1
   154   140   143    1
   155   140   139    1
   156    93    92    2
   157   108   105    1
   158    96    97    1
   159    97   100    1
   160    97    98    1
   161   100   102    1
   162   105   104    1
   163   105   106    1
   164   107   106    2
   165    98    99    2
