@<TRIPOS>MOLECULE
tmp/5fi9A07.pdb
 169 167 0 0 0
SMALL
GASTEIGER

@<TRIPOS>ATOM
      1  N        -50.9880  128.0300   26.0140 N.3   118  ASP118     -0.1239
      2  CA       -50.4450  126.6980   25.7600 C.3   118  ASP118      0.1674
      3  C        -49.4080  126.7320   24.6380 C.2   118  ASP118      0.2266
      4  O        -49.4900  125.9900   23.6570 O.2   118  ASP118     -0.2867
      5  CB       -51.5700  125.7120   25.4410 C.3   118  ASP118      0.1410
      6  CG       -52.6290  125.6650   26.5280 C.2   118  ASP118      0.3668
      7  OD1      -52.5110  124.8230   27.4430 O.co2 118  ASP118     -0.2456
      8  OD2      -53.5770  126.4750   26.4690 O.co2 118  ASP118     -0.2456
      9  N        -46.1560  125.9870   25.1340 N.3   120  HIS120     -0.1241
     10  CA       -45.4210  124.7460   25.3700 C.3   120  HIS120      0.1621
     11  C        -44.1650  124.6760   24.4980 C.2   120  HIS120      0.2264
     12  O        -44.0530  123.8760   23.5700 O.2   120  HIS120     -0.2867
     13  CB       -46.3240  123.5340   25.1200 C.3   120  HIS120      0.0745
     14  CG       -47.4360  123.3890   26.1110 C.ar  120  HIS120      0.0817
     15  ND1      -47.2240  122.9950   27.4140 N.ar  120  HIS120     -0.2268
     16  CD2      -48.7720  123.5710   25.9860 C.ar  120  HIS120      0.1154
     17  CE1      -48.3810  122.9470   28.0510 C.ar  120  HIS120      0.1986
     18  NE2      -49.3370  123.2920   27.2070 N.ar  120  HIS120     -0.2212
     19  N        -48.9770  127.9500   30.6520 N.3   190  ASP190     -0.1239
     20  CA       -48.4680  126.7200   30.0400 C.3   190  ASP190      0.1674
     21  C        -47.3720  127.0430   29.0200 C.2   190  ASP190      0.2266
     22  O        -47.5280  126.9020   27.8060 O.2   190  ASP190     -0.2867
     23  CB       -49.6080  125.9050   29.4150 C.3   190  ASP190      0.1410
     24  CG       -50.1750  124.8660   30.3720 C.2   190  ASP190      0.3668
     25  OD1      -50.9500  123.9910   29.9250 O.co2 190  ASP190     -0.2456
     26  OD2      -49.8490  124.9260   31.5780 O.co2 190  ASP190     -0.2456
     27  N        -43.9200  119.4340   27.9110 N.3   194  HIS194     -0.1241
     28  CA       -44.3820  118.3450   28.7590 C.3   194  HIS194      0.1621
     29  C        -43.2600  117.3890   29.1590 C.2   194  HIS194      0.2264
     30  O        -43.5360  116.2340   29.5050 O.2   194  HIS194     -0.2867
     31  CB       -45.5000  117.5740   28.0550 C.3   194  HIS194      0.0745
     32  CG       -46.6630  118.4280   27.6560 C.ar  194  HIS194      0.0817
     33  ND1      -46.5890  119.3600   26.6440 N.ar  194  HIS194     -0.2268
     34  CD2      -47.9290  118.4920   28.1340 C.ar  194  HIS194      0.1154
     35  CE1      -47.7580  119.9610   26.5140 C.ar  194  HIS194      0.1986
     36  NE2      -48.5890  119.4520   27.4060 N.ar  194  HIS194     -0.2212
     37  N        -50.5300  125.4110   34.6270 N.3   230  ASN230     -0.1225
     38  CA       -50.2240  124.2880   35.5040 C.3   230  ASN230      0.1785
     39  C        -48.8670  123.6530   35.2220 C.2   230  ASN230      0.2597
     40  O        -48.3770  122.8890   36.0610 O.2   230  ASN230     -0.2718
     41  CB       -51.3190  123.2180   35.3980 C.3   230  ASN230      0.1169
     42  CG       -51.5180  122.7150   33.9800 C.2   230  ASN230      0.2627
     43  OD1      -51.6140  123.4990   33.0360 O.2   230  ASN230     -0.2716
     44  ND2      -51.5850  121.3970   33.8260 N.am  230  ASN230     -0.0877
     45  N        -48.2480  123.9470   34.0800 N.am  231  HIS231     -0.1975
     46  CA       -46.9230  123.4280   33.7650 C.3   231  HIS231      0.1656
     47  C        -45.7950  124.3650   34.1800 C.2   231  HIS231      0.2291
     48  O        -44.6240  123.9860   34.0660 O.2   231  HIS231     -0.2864
     49  CB       -46.8060  123.1510   32.2600 C.3   231  HIS231      0.0771
     50  CG       -47.5110  121.9090   31.8130 C.ar  231  HIS231      0.0820
     51  ND1      -46.8700  120.6960   31.6840 N.ar  231  HIS231     -0.2267
     52  CD2      -48.7990  121.6930   31.4570 C.ar  231  HIS231      0.1154
     53  CE1      -47.7330  119.7850   31.2710 C.ar  231  HIS231      0.1986
     54  NE2      -48.9110  120.3640   31.1250 N.ar  231  HIS231     -0.2212
     55  N        -48.0530  120.7100   38.0770 N.3   237  ASN237     -0.1240
     56  CA       -49.3340  120.8250   38.7720 C.3   237  ASN237      0.1653
     57  C        -49.1670  121.1740   40.2480 C.2   237  ASN237      0.2266
     58  O        -50.1460  121.5140   40.9180 O.2   237  ASN237     -0.2867
     59  CB       -50.1450  119.5310   38.6340 C.3   237  ASN237      0.1155
     60  CG       -50.4750  119.2030   37.1910 C.2   237  ASN237      0.2627
     61  OD1      -50.8200  120.0850   36.4050 O.2   237  ASN237     -0.2716
     62  ND2      -50.3650  117.9300   36.8340 N.am  237  ASN237     -0.0877
     63  N        -55.1660  117.9300   39.8590 N.3   300  GLU300     -0.1245
     64  CA       -53.8330  117.3450   39.8540 C.3   300  GLU300      0.1567
     65  C        -52.9150  117.9620   40.8990 C.2   300  GLU300      0.2260
     66  O        -51.8410  117.4090   41.1590 O.2   300  GLU300     -0.2867
     67  CB       -53.1970  117.5060   38.4670 C.3   300  GLU300      0.0388
     68  CG       -54.1290  117.1970   37.2990 C.3   300  GLU300      0.1160
     69  CD       -54.4710  115.7250   37.1900 C.2   300  GLU300      0.3649
     70  OE1      -54.2520  115.1450   36.1050 O.co2 300  GLU300     -0.2457
     71  OE2      -54.9530  115.1470   38.1870 O.co2 300  GLU300     -0.2457
     72  N        -55.9820  125.5170   28.2240 N.3   369  HIS369     -0.1226
     73  CA       -55.7240  124.2520   28.9070 C.3   369  HIS369      0.1752
     74  C        -56.2370  123.0420   28.1300 C.2   369  HIS369      0.2597
     75  O        -55.6200  121.9730   28.1720 O.2   369  HIS369     -0.2718
     76  CB       -56.3420  124.2770   30.3090 C.3   369  HIS369      0.0759
     77  CG       -55.9380  123.1240   31.1720 C.ar  369  HIS369      0.0818
     78  ND1      -54.6250  122.8580   31.4970 N.ar  369  HIS369     -0.2268
     79  CD2      -56.6790  122.1720   31.7870 C.ar  369  HIS369      0.1154
     80  CE1      -54.5750  121.7890   32.2720 C.ar  369  HIS369      0.1986
     81  NE2      -55.8080  121.3540   32.4620 N.ar  369  HIS369     -0.2212
     82  N        -57.3600  123.1860   27.4230 N.am  370  THR370     -0.1939
     83  CA       -57.9040  122.0720   26.6550 C.3   370  THR370      0.2028
     84  C        -57.1830  121.8650   25.3310 C.2   370  THR370      0.2642
     85  O        -57.2360  120.7610   24.7790 O.2   370  THR370     -0.2714
     86  CB       -59.3940  122.2860   26.3800 C.3   370  THR370      0.1808
     87  OG1      -59.5740  123.4660   25.5880 O.3   370  THR370     -0.2208
     88  CG2      -60.1580  122.4270   27.6820 C.3   370  THR370      0.0379
     89  N        -56.5230  122.8990   24.8120 N.am  371  HIS371     -0.1959
     90  CA       -55.7810  122.8800   23.5570 C.3   371  HIS371      0.1787
     91  C        -56.6900  122.7870   22.3370 C.2   371  HIS371      0.2620
     92  O        -56.1820  122.6980   21.2120 O.2   371  HIS371     -0.2715
     93  CB       -54.7530  121.7370   23.5010 C.3   371  HIS371      0.0785
     94  CG       -53.6610  121.8540   24.5210 C.ar  371  HIS371      0.0821
     95  ND1      -52.4210  121.2780   24.3510 N.ar  371  HIS371     -0.2267
     96  CD2      -53.6230  122.4800   25.7220 C.ar  371  HIS371      0.1154
     97  CE1      -51.6650  121.5450   25.4020 C.ar  371  HIS371      0.1986
     98  NE2      -52.3700  122.2740   26.2490 N.ar  371  HIS371     -0.2212
     99  N        -58.0110  122.8160   22.5140 N.am  372  VAL372     -0.1977
    100  CA       -58.9610  122.7610   21.4120 C.3   372  VAL372      0.1596
    101  C        -59.9040  123.9550   21.5240 C.2   372  VAL372      0.2287
    102  O        -59.9440  124.6540   22.5370 O.2   372  VAL372     -0.2864
    103  CB       -59.7540  121.4380   21.3890 C.3   372  VAL372      0.0276
    104  CG1      -58.8690  120.3040   20.9030 C.3   372  VAL372      0.0022
    105  CG2      -60.3120  121.1250   22.7670 C.3   372  VAL372      0.0022
    106  N        -49.3630  119.4950   20.4760 N.3   400  PHE400     -0.1227
    107  CA       -49.7950  118.5360   21.4890 C.3   400  PHE400      0.1736
    108  C        -51.3260  118.5390   21.6540 C.2   400  PHE400      0.2595
    109  O        -51.8600  119.5130   22.1860 O.2   400  PHE400     -0.2718
    110  CB       -49.1240  118.8860   22.8200 C.3   400  PHE400      0.0547
    111  CG       -49.0020  117.7310   23.7680 C.ar  400  PHE400     -0.0202
    112  CD1      -47.9320  116.8570   23.6810 C.ar  400  PHE400     -0.0042
    113  CD2      -49.9440  117.5330   24.7630 C.ar  400  PHE400     -0.0042
    114  CE1      -47.8130  115.7970   24.5590 C.ar  400  PHE400     -0.0003
    115  CE2      -49.8310  116.4750   25.6420 C.ar  400  PHE400     -0.0003
    116  CZ       -48.7640  115.6060   25.5420 C.ar  400  PHE400     -0.0000
    117  N        -52.0570  117.5070   21.2120 N.am  401  ILE401     -0.1966
    118  CA       -51.5620  116.3290   20.4850 C.3   401  ILE401      0.1727
    119  C        -52.2710  116.2440   19.1420 C.2   401  ILE401      0.2616
    120  O        -53.4930  116.3710   19.0720 O.2   401  ILE401     -0.2715
    121  CB       -51.7930  115.0300   21.2910 C.3   401  ILE401      0.0290
    122  CG1      -51.0140  115.0550   22.6050 C.3   401  ILE401      0.0022
    123  CG2      -51.3910  113.8030   20.4720 C.3   401  ILE401      0.0023
    124  CD1      -51.6650  114.2530   23.7130 C.3   401  ILE401      0.0001
    125  N        -51.5040  116.0140   18.0760 N.am  402  ASN402     -0.1958
    126  CA       -52.0690  115.7940   16.7440 C.3   402  ASN402      0.1819
    127  C        -52.9790  116.9560   16.3420 C.2   402  ASN402      0.2621
    128  O        -54.0870  116.7680   15.8360 O.2   402  ASN402     -0.2715
    129  CB       -52.8180  114.4580   16.6950 C.3   402  ASN402      0.1195
    130  CG       -53.2200  114.0610   15.2870 C.2   402  ASN402      0.2630
    131  OD1      -52.3800  113.6760   14.4740 O.2   402  ASN402     -0.2716
    132  ND2      -54.5150  114.1370   14.9980 N.am  402  ASN402     -0.0877
    133  N        -52.4940  118.1750   16.5780 N.am  403  LEU403     -0.1977
    134  CA       -53.2310  119.3920   16.2730 C.3   403  LEU403      0.1596
    135  C        -52.3520  120.3340   15.4630 C.2   403  LEU403      0.2287
    136  O        -51.1300  120.1780   15.4020 O.2   403  LEU403     -0.2864
    137  CB       -53.6960  120.1070   17.5490 C.3   403  LEU403      0.0297
    138  CG       -54.7420  119.3950   18.4050 C.3   403  LEU403      0.0022
    139  CD1      -54.8070  120.0280   19.7860 C.3   403  LEU403      0.0001
    140  CD2      -56.1020  119.4350   17.7270 C.3   403  LEU403      0.0001
    141  N        -62.9210  122.4650   16.0570 N.3   486  TYR486     -0.1227
    142  CA       -62.5320  121.9620   17.3710 C.3   486  TYR486      0.1736
    143  C        -61.0500  121.6100   17.4080 C.2   486  TYR486      0.2595
    144  O        -60.3280  121.9950   18.3340 O.2   486  TYR486     -0.2718
    145  CB       -63.3920  120.7420   17.7110 C.3   486  TYR486      0.0548
    146  CG       -63.2950  120.2210   19.1300 C.ar  486  TYR486     -0.0200
    147  CD1      -64.1930  120.6380   20.1060 C.ar  486  TYR486     -0.0009
    148  CD2      -62.3360  119.2790   19.4840 C.ar  486  TYR486     -0.0009
    149  CE1      -64.1260  120.1500   21.3980 C.ar  486  TYR486      0.0417
    150  CE2      -62.2600  118.7860   20.7750 C.ar  486  TYR486      0.0417
    151  CZ       -63.1580  119.2250   21.7270 C.ar  486  TYR486      0.1957
    152  OH       -63.0880  118.7390   23.0130 O.3   486  TYR486     -0.2866
    153  N        -60.5760  120.8850   16.3930 N.am  487  HIS487     -0.1975
    154  CA       -59.1910  120.4390   16.3200 C.3   487  HIS487      0.1656
    155  C        -58.3300  121.3430   15.4410 C.2   487  HIS487      0.2291
    156  O        -57.2990  120.8950   14.9260 O.2   487  HIS487     -0.2864
    157  CB       -59.1310  118.9990   15.8060 C.3   487  HIS487      0.0771
    158  CG       -60.0100  118.0520   16.5610 C.ar  487  HIS487      0.0820
    159  ND1      -59.5360  117.2290   17.5600 N.ar  487  HIS487     -0.2267
    160  CD2      -61.3360  117.7980   16.4640 C.ar  487  HIS487      0.1154
    161  CE1      -60.5320  116.5100   18.0450 C.ar  487  HIS487      0.1986
    162  NE2      -61.6350  116.8360   17.3970 N.ar  487  HIS487     -0.2212
    163  N        -59.3050  114.1230   14.1050 N.3   492  PRO492     -0.2116
    164  CA       -58.8660  112.7280   14.0540 C.3   492  PRO492      0.1372
    165  C        -59.6180  111.9730   12.9730 C.2   492  PRO492      0.2244
    166  O        -60.7370  112.3320   12.5960 O.2   492  PRO492     -0.2868
    167  CB       -59.2050  112.1960   15.4510 C.3   492  PRO492      0.0268
    168  CG       -60.3450  113.0430   15.9010 C.3   492  PRO492      0.0207
    169  CD       -60.1130  114.4060   15.3050 C.3   492  PRO492      0.0892
@<TRIPOS>BOND
     1   166   165    2
     2   165   164    1
     3   164   163    1
     4   164   167    1
     5   163   169    1
     6   131   130    2
     7   156   155    2
     8   132   130   am
     9   130   129    1
    10   169   168    1
    11   136   135    2
    12   155   154    1
    13   167   168    1
    14   135   134    1
    15   157   154    1
    16   157   158    1
    17   128   127    2
    18   141   142    1
    19   134   133    1
    20   134   137    1
    21   154   153    1
    22   127   133   am
    23   127   126    1
    24   153   143   am
    25   160   158   ar
    26   160   162   ar
    27   158   159   ar
    28   129   126    1
    29   126   125    1
    30   142   143    1
    31   142   145    1
    32   162   161   ar
    33   143   144    2
    34   137   138    1
    35   159   161   ar
    36   145   146    1
    37   140   138    1
    38   125   119   am
    39   138   139    1
    40   120   119    2
    41   146   148   ar
    42   146   147   ar
    43   119   118    1
    44   148   150   ar
    45   147   149   ar
    46   123   121    1
    47   106   107    1
    48   118   117    1
    49   118   121    1
    50   150   151   ar
    51   104   103    1
    52   117   108   am
    53    92    91    2
    54   121   122    1
    55   103   100    1
    56   103   105    1
    57   149   151   ar
    58   100   101    1
    59   100    99    1
    60   107   108    1
    61   107   110    1
    62   101   102    2
    63   108   109    2
    64   151   152    1
    65    91    99   am
    66    91    90    1
    67   122   124    1
    68   110   111    1
    69    93    90    1
    70    93    94    1
    71    90    89    1
    72    12    11    2
    73     4     3    2
    74   112   111   ar
    75   112   114   ar
    76   111   113   ar
    77    95    94   ar
    78    95    97   ar
    79    11    10    1
    80    94    96   ar
    81   114   116   ar
    82     3     2    1
    83   113   115   ar
    84    85    84    2
    85    89    84   am
    86    13    10    1
    87    13    14    1
    88     9    10    1
    89    84    83    1
    90    97    98   ar
    91     5     2    1
    92     5     6    1
    93   116   115   ar
    94    87    86    1
    95    96    98   ar
    96     2     1    1
    97    16    14   ar
    98    16    18   ar
    99    14    15   ar
   100    86    83    1
   101    86    88    1
   102     8     6   ar
   103    35    33   ar
   104    35    36   ar
   105     6     7   ar
   106    33    32   ar
   107    83    82    1
   108    18    17   ar
   109    36    34   ar
   110    15    17   ar
   111    82    74   am
   112    32    31    1
   113    32    34   ar
   114    22    21    2
   115    27    28    1
   116    31    28    1
   117    74    75    2
   118    74    73    1
   119    72    73    1
   120    28    29    1
   121    73    76    1
   122    21    20    1
   123    29    30    2
   124    23    20    1
   125    23    24    1
   126    25    24   ar
   127    20    19    1
   128    76    77    1
   129    24    26   ar
   130    54    53   ar
   131    54    52   ar
   132    77    78   ar
   133    77    79   ar
   134    53    51   ar
   135    52    50   ar
   136    78    80   ar
   137    51    50   ar
   138    79    81   ar
   139    50    49    1
   140    49    46    1
   141    80    81   ar
   142    43    42    2
   143    46    45    1
   144    46    47    1
   145    44    42   am
   146    42    41    1
   147    48    47    2
   148    45    39   am
   149    37    38    1
   150    39    38    1
   151    39    40    2
   152    41    38    1
   153    70    69   ar
   154    61    60    2
   155    62    60   am
   156    69    68    1
   157    69    71   ar
   158    60    59    1
   159    68    67    1
   160    55    56    1
   161    67    64    1
   162    59    56    1
   163    56    57    1
   164    64    63    1
   165    64    65    1
   166    57    58    2
   167    65    66    2
