@<TRIPOS>MOLECULE
tmp/5fiaB00.pdb
 85 80 0 0 0
SMALL
GASTEIGER

@<TRIPOS>ATOM
      1  N        -14.7580   13.4300   60.5890 N.3    52  LEU52      -0.1245
      2  CA       -13.4040   13.8410   60.2040 C.3    52  LEU52       0.1561
      3  C        -13.3880   14.4230   58.7930 C.2    52  LEU52       0.2260
      4  O        -12.7700   15.4660   58.5510 O.2    52  LEU52      -0.2867
      5  CB       -12.4290   12.6570   60.3000 C.3    52  LEU52       0.0270
      6  CG       -12.0460   12.2130   61.7230 C.3    52  LEU52       0.0019
      7  CD1      -11.3840   10.8130   61.7010 C.3    52  LEU52       0.0001
      8  CD2      -11.0960   13.2460   62.3620 C.3    52  LEU52       0.0001
      9  N        -14.7680   17.8610   58.7630 N.3    55  LYS55      -0.1245
     10  CA       -13.8480   18.8460   59.3200 C.3    55  LYS55       0.1561
     11  C        -12.7070   19.1450   58.3560 C.2    55  LYS55       0.2260
     12  O        -12.2260   20.2790   58.3050 O.2    55  LYS55      -0.2867
     13  CB       -13.3280   18.3690   60.6740 C.3    55  LYS55       0.0271
     14  CG       -14.4110   18.5370   61.7950 C.3    55  LYS55       0.0035
     15  CD       -14.6920   20.0290   62.0180 C.3    55  LYS55       0.0206
     16  CE       -15.9270   20.2660   62.8960 C.3    55  LYS55       0.1093
     17  NZ       -16.0650   21.7360   63.1800 N.3    55  LYS55      -0.1314
     18  N        -12.0560   22.9330   57.4360 N.3    59  LEU59      -0.1245
     19  CA       -10.8450   23.5400   57.9680 C.3    59  LEU59       0.1561
     20  C         -9.6700   23.5210   57.0030 C.2    59  LEU59       0.2260
     21  O         -8.7050   24.2640   57.2230 O.2    59  LEU59      -0.2867
     22  CB       -10.4280   22.8300   59.2620 C.3    59  LEU59       0.0270
     23  CG       -11.5050   22.8890   60.3480 C.3    59  LEU59       0.0019
     24  CD1      -11.0550   22.1490   61.5670 C.3    59  LEU59       0.0001
     25  CD2      -11.8060   24.3380   60.6850 C.3    59  LEU59       0.0001
     26  N         -3.4820   15.4100   63.1800 N.3    66  SER66      -0.1202
     27  CA        -4.5130   15.3310   64.2080 C.3    66  SER66       0.2020
     28  C         -5.6530   14.4150   63.7830 C.2    66  SER66       0.2618
     29  O         -6.2970   13.7880   64.6340 O.2    66  SER66      -0.2717
     30  CB        -5.0730   16.7280   64.5140 C.3    66  SER66       0.2103
     31  OG        -4.1310   17.5020   65.2350 O.3    66  SER66      -0.2182
     32  N         -5.9180   14.3500   62.4820 N.am   67  TYR67      -0.1975
     33  CA        -7.0150   13.5370   61.9640 C.3    67  TYR67       0.1639
     34  C         -6.6540   12.0620   62.0320 C.2    67  TYR67       0.2290
     35  O         -7.4850   11.2280   62.4090 O.2    67  TYR67      -0.2864
     36  CB        -7.3410   13.9620   60.5230 C.3    67  TYR67       0.0560
     37  CG        -7.8600   15.3960   60.4670 C.ar   67  TYR67      -0.0198
     38  CD1       -6.9900   16.4830   60.5890 C.ar   67  TYR67      -0.0009
     39  CD2       -9.2120   15.6510   60.3040 C.ar   67  TYR67      -0.0009
     40  CE1       -7.4730   17.7930   60.5810 C.ar   67  TYR67       0.0417
     41  CE2       -9.6920   16.9520   60.2760 C.ar   67  TYR67       0.0417
     42  CZ        -8.8210   18.0110   60.4180 C.ar   67  TYR67       0.1957
     43  OH        -9.3110   19.3020   60.3850 O.3    67  TYR67      -0.2866
     44  N         -6.9570   10.9700   65.7120 N.3    70  VAL70      -0.1245
     45  CA        -8.3380   10.6880   66.1010 C.3    70  VAL70       0.1561
     46  C         -8.7840    9.3280   65.5770 C.2    70  VAL70       0.2260
     47  O         -9.4190    8.5420   66.2980 O.2    70  VAL70      -0.2867
     48  CB        -9.2830   11.7940   65.5940 C.3    70  VAL70       0.0252
     49  CG1      -10.7420   11.3170   65.7200 C.3    70  VAL70       0.0019
     50  CG2       -9.0690   13.0790   66.3840 C.3    70  VAL70       0.0019
     51  N         -6.4860   13.1820   71.3700 N.3   124  GLY124     -0.1225
     52  CA        -7.1260   13.7130   70.1800 C.3   124  GLY124      0.1811
     53  C         -8.5640   13.2570   70.0570 C.2   124  GLY124      0.2280
     54  O         -9.4590   14.0690   69.8010 O.2   124  GLY124     -0.2866
     55  N        -10.8300   15.0490   72.6170 N.3   127  LYS127     -0.1231
     56  CA       -11.1570   16.4000   72.1680 C.3   127  LYS127      0.1693
     57  C        -12.1600   16.3690   71.0280 C.2   127  LYS127      0.2592
     58  O        -13.0990   17.1760   70.9890 O.2   127  LYS127     -0.2718
     59  CB        -9.8860   17.1250   71.7280 C.3   127  LYS127      0.0285
     60  CG       -10.1250   18.5040   71.1190 C.3   127  LYS127      0.0035
     61  CD        -8.8070   19.2750   71.0450 C.3   127  LYS127      0.0206
     62  CE        -8.9830   20.6840   70.4920 C.3   127  LYS127      0.1093
     63  NZ        -9.0380   20.6870   69.0110 N.3   127  LYS127     -0.1314
     64  N        -11.9600   15.4640   70.0680 N.am  128  PHE128     -0.1976
     65  CA       -12.8800   15.3140   68.9380 C.3   128  PHE128      0.1639
     66  C        -14.2950   14.9830   69.4080 C.2   128  PHE128      0.2290
     67  O        -15.2860   15.4800   68.8450 O.2   128  PHE128     -0.2864
     68  CB       -12.3320   14.2130   68.0230 C.3   128  PHE128      0.0560
     69  CG       -13.1260   13.9490   66.7770 C.ar  128  PHE128     -0.0200
     70  CD1      -12.9180   14.7120   65.6250 C.ar  128  PHE128     -0.0042
     71  CD2      -14.0050   12.8630   66.7140 C.ar  128  PHE128     -0.0042
     72  CE1      -13.6110   14.4390   64.4450 C.ar  128  PHE128     -0.0003
     73  CE2      -14.6990   12.5860   65.5310 C.ar  128  PHE128     -0.0003
     74  CZ       -14.4900   13.3630   64.4060 C.ar  128  PHE128     -0.0000
     75  N        -17.2860   17.4200   69.9050 N.3   131  PHE131     -0.1241
     76  CA       -18.1940   17.8920   68.8590 C.3   131  PHE131      0.1605
     77  C        -19.6350   17.4440   69.0870 C.2   131  PHE131      0.2264
     78  O        -20.5330   18.0180   68.4730 O.2   131  PHE131     -0.2867
     79  CB       -17.7330   17.4350   67.4560 C.3   131  PHE131      0.0534
     80  CG       -16.5380   18.1890   66.9300 C.ar  131  PHE131     -0.0203
     81  CD1      -16.5070   19.5750   66.9300 C.ar  131  PHE131     -0.0042
     82  CD2      -15.4410   17.5010   66.4180 C.ar  131  PHE131     -0.0042
     83  CE1      -15.3960   20.2700   66.4300 C.ar  131  PHE131     -0.0003
     84  CE2      -14.3310   18.1810   65.9260 C.ar  131  PHE131     -0.0003
     85  CZ       -14.2930   19.5550   65.9390 C.ar  131  PHE131     -0.0000
@<TRIPOS>BOND
     1    20    21    2
     2    20    19    1
     3    18    19    1
     4    19    22    1
     5    12    11    2
     6    11    10    1
     7     4     3    2
     8     9    10    1
     9     3     2    1
    10    22    23    1
    11    10    13    1
    12     2     5    1
    13     2     1    1
    14    41    39   ar
    15    41    42   ar
    16     5     6    1
    17    39    37   ar
    18    23    25    1
    19    23    24    1
    20    43    42    1
    21    42    40   ar
    22    37    36    1
    23    37    38   ar
    24    36    33    1
    25    40    38   ar
    26    13    14    1
    27     7     6    1
    28     6     8    1
    29    14    15    1
    30    33    34    1
    31    33    32    1
    32    15    16    1
    33    34    35    2
    34    32    28   am
    35    16    17    1
    36    26    27    1
    37    28    27    1
    38    28    29    2
    39    27    30    1
    40    74    72   ar
    41    74    73   ar
    42    72    70   ar
    43    30    31    1
    44    73    71   ar
    45    46    45    1
    46    46    47    2
    47    48    49    1
    48    48    45    1
    49    48    50    1
    50    70    69   ar
    51    44    45    1
    52    84    85   ar
    53    84    82   ar
    54    85    83   ar
    55    82    80   ar
    56    83    81   ar
    57    71    69   ar
    58    69    68    1
    59    80    81   ar
    60    80    79    1
    61    79    76    1
    62    68    65    1
    63    78    77    2
    64    67    66    2
    65    76    77    1
    66    76    75    1
    67    65    66    1
    68    65    64    1
    69    63    62    1
    70    54    53    2
    71    53    52    1
    72    64    57   am
    73    52    51    1
    74    62    61    1
    75    58    57    2
    76    57    56    1
    77    61    60    1
    78    60    59    1
    79    59    56    1
    80    56    55    1
