@<TRIPOS>MOLECULE
tmp/5fibB01.pdb
 76 72 0 0 0
SMALL
GASTEIGER

@<TRIPOS>ATOM
      1  N        194.1080  240.8970 -123.0100 N.3    78  GLU78      -0.1245
      2  CA       193.7690  239.6160 -122.4020 C.3    78  GLU78       0.1567
      3  C        193.1680  238.6610 -123.4260 C.2    78  GLU78       0.2260
      4  O        193.6470  237.5340 -123.5900 O.2    78  GLU78      -0.2867
      5  CB       192.8000  239.8320 -121.2360 C.3    78  GLU78       0.0388
      6  CG       193.3910  240.6120 -120.0630 C.3    78  GLU78       0.1160
      7  CD       194.2180  239.7450 -119.1300 C.2    78  GLU78       0.3649
      8  OE1      193.9560  238.5260 -119.0560 O.co2  78  GLU78      -0.2457
      9  OE2      195.1300  240.2830 -118.4660 O.co2  78  GLU78      -0.2457
     10  N        196.1690  236.6810 -118.2230 N.3    92  ASP92      -0.1239
     11  CA       196.5710  236.6580 -116.8220 C.3    92  ASP92       0.1674
     12  C        195.4670  236.2010 -115.8790 C.2    92  ASP92       0.2266
     13  O        195.7600  235.8860 -114.7210 O.2    92  ASP92      -0.2867
     14  CB       197.0320  238.0550 -116.3810 C.3    92  ASP92       0.1410
     15  CG       198.3050  238.4970 -117.0700 C.2    92  ASP92       0.3668
     16  OD1      199.2180  237.6590 -117.2320 O.co2  92  ASP92      -0.2456
     17  OD2      198.3930  239.6840 -117.4490 O.co2  92  ASP92      -0.2456
     18  N        194.4260  249.8010 -107.1600 N.3   254  PHE254     -0.1241
     19  CA       194.8570  250.2980 -108.4630 C.3   254  PHE254      0.1605
     20  C        193.7010  250.8890 -109.2610 C.2   254  PHE254      0.2264
     21  O        193.9410  251.6070 -110.2390 O.2   254  PHE254     -0.2867
     22  CB       195.5560  249.1920 -109.2710 C.3   254  PHE254      0.0534
     23  CG       194.6570  248.0510 -109.6890 C.ar  254  PHE254     -0.0203
     24  CD1      193.7300  248.2070 -110.7080 C.ar  254  PHE254     -0.0042
     25  CD2      194.7770  246.8070 -109.0910 C.ar  254  PHE254     -0.0042
     26  CE1      192.9210  247.1560 -111.0980 C.ar  254  PHE254     -0.0003
     27  CE2      193.9690  245.7520 -109.4800 C.ar  254  PHE254     -0.0003
     28  CZ       193.0400  245.9280 -110.4840 C.ar  254  PHE254     -0.0000
     29  N        192.9240  241.2710 -111.8130 N.3   318  ASN318     -0.1240
     30  CA       194.2340  240.8190 -111.3670 C.3   318  ASN318      0.1653
     31  C        194.1090  240.2590 -109.9570 C.2   318  ASN318      0.2266
     32  O        194.1160  241.0070 -108.9740 O.2   318  ASN318     -0.2867
     33  CB       195.2460  241.9650 -111.4320 C.3   318  ASN318      0.1155
     34  CG       196.6100  241.5730 -110.9040 C.2   318  ASN318      0.2627
     35  OD1      196.7570  240.5610 -110.2190 O.2   318  ASN318     -0.2716
     36  ND2      197.6230  242.3740 -111.2200 N.am  318  ASN318     -0.0877
     37  N        196.2480  238.5510 -108.3620 N.3   320  THR320     -0.1203
     38  CA       197.5390  238.3600 -107.7150 C.3   320  THR320      0.1994
     39  C        197.6830  239.3440 -106.5610 C.2   320  THR320      0.2618
     40  O        197.6380  240.5620 -106.7680 O.2   320  THR320     -0.2717
     41  CB       198.6750  238.5350 -108.7210 C.3   320  THR320      0.1784
     42  OG1      198.5270  237.5870 -109.7850 O.3   320  THR320     -0.2211
     43  CG2      200.0320  238.3280 -108.0420 C.3   320  THR320      0.0376
     44  N        197.8510  238.8030 -105.3470 N.am  321  ASP321     -0.1960
     45  CA       198.0930  239.5460 -104.1130 C.3   321  ASP321      0.1825
     46  C        197.5010  240.9490 -104.1720 C.2   321  ASP321      0.2464
     47  O        198.2420  241.9380 -104.1030 O.2   321  ASP321     -0.2730
     48  CB       199.5960  239.6170 -103.8370 C.3   321  ASP321      0.1450
     49  CG       199.9150  240.2510 -102.4990 C.2   321  ASP321      0.3671
     50  OD1      199.0080  240.3190 -101.6430 O.co2 321  ASP321     -0.2456
     51  OD2      201.0720  240.6760 -102.3010 O.co2 321  ASP321     -0.2456
     52  N        196.1810  241.0770 -104.2980 N.am  322  PRO322     -0.2715
     53  CA       195.5820  242.4070 -104.4480 C.3   322  PRO322      0.1536
     54  C        196.0220  243.3470 -103.3360 C.2   322  PRO322      0.2598
     55  O        196.1310  242.9580 -102.1720 O.2   322  PRO322     -0.2715
     56  CB       194.0770  242.1280 -104.3890 C.3   322  PRO322      0.0310
     57  CG       193.9340  240.6980 -104.7660 C.3   322  PRO322      0.0237
     58  CD       195.1700  240.0070 -104.2880 C.3   322  PRO322      0.0939
     59  N        196.2880  244.5960 -103.7110 N.am  323  ALA323     -0.1964
     60  CA       196.7530  245.6370 -102.8000 C.3   323  ALA323      0.1728
     61  C        198.1150  245.3230 -102.1930 C.2   323  ALA323      0.2616
     62  O        198.5880  246.0710 -101.3290 O.2   323  ALA323     -0.2715
     63  CB       195.7370  245.8900 -101.6790 C.3   323  ALA323      0.0334
     64  N        198.7620  244.2450 -102.6240 N.am  324  GLY324     -0.1955
     65  CA       200.0410  243.8640 -102.0450 C.3   324  GLY324      0.1869
     66  C        199.9500  243.5490 -100.5690 C.2   324  GLY324      0.2309
     67  O        200.8690  243.8770  -99.8090 O.2   324  GLY324     -0.2863
     68  N        202.5230  240.5880  -99.2060 N.3   327  GLN327     -0.1245
     69  CA       203.8730  241.1280  -99.1010 C.3   327  GLN327      0.1566
     70  C        203.9790  242.0830  -97.9200 C.2   327  GLN327      0.2260
     71  O        205.0000  242.1150  -97.2230 O.2   327  GLN327     -0.2867
     72  CB       204.2580  241.8250 -100.4060 C.3   327  GLN327      0.0367
     73  CG       204.4990  240.8590 -101.5560 C.3   327  GLN327      0.0905
     74  CD       204.7210  241.5600 -102.8810 C.2   327  GLN327      0.2608
     75  OE1      205.8470  241.6370 -103.3720 O.2   327  GLN327     -0.2717
     76  NE2      203.6440  242.0680 -103.4710 N.am  327  GLN327     -0.0878
@<TRIPOS>BOND
     1     4     3    2
     2     3     2    1
     3     1     2    1
     4     2     5    1
     5     5     6    1
     6     6     7    1
     7     7     8   ar
     8     7     9   ar
     9    10    11    1
    10    17    15   ar
    11    16    15   ar
    12    15    14    1
    13    11    14    1
    14    11    12    1
    15    12    13    2
    16    29    30    1
    17    33    30    1
    18    33    34    1
    19    30    31    1
    20    36    34   am
    21    26    24   ar
    22    26    28   ar
    23    34    35    2
    24    24    23   ar
    25    28    27   ar
    26    21    20    2
    27    31    32    2
    28    42    41    1
    29    23    22    1
    30    23    25   ar
    31    27    25   ar
    32    22    19    1
    33    20    19    1
    34    41    43    1
    35    41    38    1
    36    19    18    1
    37    37    38    1
    38    38    39    1
    39    40    39    2
    40    39    44   am
    41    44    45    1
    42    57    56    1
    43    57    58    1
    44    53    56    1
    45    53    52    1
    46    53    54    1
    47    52    58    1
    48    52    46   am
    49    46    45    1
    50    46    47    2
    51    45    48    1
    52    48    49    1
    53    59    54   am
    54    59    60    1
    55    76    74   am
    56    75    74    2
    57    54    55    2
    58    74    73    1
    59    60    61    1
    60    60    63    1
    61    64    61   am
    62    64    65    1
    63    49    51   ar
    64    49    50   ar
    65    61    62    2
    66    65    66    1
    67    73    72    1
    68    66    67    2
    69    72    69    1
    70    68    69    1
    71    69    70    1
    72    70    71    2
