@<TRIPOS>MOLECULE
tmp/5ficD04.pdb
 119 114 0 0 0
SMALL
GASTEIGER

@<TRIPOS>ATOM
      1  N          3.4650   52.6440    8.4360 N.3    10  LEU10      -0.1231
      2  CA         4.2160   52.0090    7.3600 C.3    10  LEU10       0.1693
      3  C          4.5690   53.0060    6.2610 C.2    10  LEU10       0.2592
      4  O          5.7420   53.1620    5.9020 O.2    10  LEU10      -0.2718
      5  CB         3.4060   50.8400    6.8000 C.3    10  LEU10       0.0284
      6  CG         4.0490   49.9950    5.7000 C.3    10  LEU10       0.0019
      7  CD1        5.4130   49.4630    6.1190 C.3    10  LEU10       0.0001
      8  CD2        3.1220   48.8450    5.3340 C.3    10  LEU10       0.0001
      9  N          3.5640   53.7020    5.7240 N.am   11  PHE11      -0.1976
     10  CA         3.8140   54.6280    4.6220 C.3    11  PHE11       0.1639
     11  C          4.8430   55.6810    5.0040 C.2    11  PHE11       0.2290
     12  O          5.6650   56.0860    4.1730 O.2    11  PHE11      -0.2864
     13  CB         2.5100   55.2910    4.1810 C.3    11  PHE11       0.0560
     14  CG         1.7060   54.4560    3.2330 C.ar   11  PHE11      -0.0200
     15  CD1        2.1160   54.2910    1.9210 C.ar   11  PHE11      -0.0042
     16  CD2        0.5450   53.8310    3.6510 C.ar   11  PHE11      -0.0042
     17  CE1        1.3810   53.5190    1.0420 C.ar   11  PHE11      -0.0003
     18  CE2       -0.1950   53.0580    2.7750 C.ar   11  PHE11      -0.0003
     19  CZ         0.2250   52.9010    1.4700 C.ar   11  PHE11      -0.0000
     20  N          7.3990   55.2850    6.9110 N.3    13  ALA13      -0.1231
     21  CA         8.7070   54.6570    6.7650 C.3    13  ALA13       0.1694
     22  C          9.0960   54.5380    5.2990 C.2    13  ALA13       0.2591
     23  O         10.2390   54.8310    4.9270 O.2    13  ALA13      -0.2718
     24  CB         8.7020   53.2830    7.4320 C.3    13  ALA13       0.0304
     25  N          8.1570   54.1120    4.4520 N.am   14  LEU14      -0.1980
     26  CA         8.4430   53.9700    3.0280 C.3    14  LEU14       0.1596
     27  C          8.9210   55.2880    2.4350 C.2    14  LEU14       0.2287
     28  O          9.9500   55.3400    1.7510 O.2    14  LEU14      -0.2864
     29  CB         7.1980   53.4730    2.2950 C.3    14  LEU14       0.0297
     30  CG         6.5630   52.1840    2.8230 C.3    14  LEU14       0.0022
     31  CD1        5.3340   51.8320    2.0000 C.3    14  LEU14       0.0001
     32  CD2        7.5560   51.0270    2.8270 C.3    14  LEU14       0.0001
     33  N         10.3300   57.6540    3.8560 N.3    16  HIS16      -0.1226
     34  CA        11.6930   57.8620    4.3260 C.3    16  HIS16       0.1752
     35  C         12.6530   56.8310    3.7470 C.2    16  HIS16       0.2597
     36  O         13.8230   57.1460    3.5040 O.2    16  HIS16      -0.2718
     37  CB        11.7340   57.8150    5.8530 C.3    16  HIS16       0.0759
     38  CG        13.1020   58.0170    6.4250 C.ar   16  HIS16       0.0818
     39  ND1       13.8140   59.1860    6.2580 N.ar   16  HIS16      -0.2268
     40  CD2       13.8910   57.1970    7.1580 C.ar   16  HIS16       0.1154
     41  CE1       14.9820   59.0780    6.8650 C.ar   16  HIS16       0.1986
     42  NE2       15.0540   57.8810    7.4190 N.ar   16  HIS16      -0.2212
     43  N         12.1790   55.6070    3.5130 N.am   17  GLY17      -0.1942
     44  CA        13.0510   54.5750    2.9760 C.3    17  GLY17       0.2014
     45  C         13.4900   54.8590    1.5530 C.2    17  GLY17       0.2638
     46  O         14.6600   54.6760    1.2060 O.2    17  GLY17      -0.2714
     47  N         12.5620   55.3090    0.7070 N.am   18  LEU18      -0.1977
     48  CA        12.9040   55.6070   -0.6780 C.3    18  LEU18       0.1596
     49  C         13.8750   56.7690   -0.7930 C.2    18  LEU18       0.2287
     50  O         14.4890   56.9420   -1.8520 O.2    18  LEU18      -0.2864
     51  CB        11.6370   55.8970   -1.4770 C.3    18  LEU18       0.0297
     52  CG        10.7020   54.6920   -1.5820 C.3    18  LEU18       0.0022
     53  CD1        9.3900   55.0690   -2.2490 C.3    18  LEU18       0.0001
     54  CD2       11.3720   53.5590   -2.3440 C.3    18  LEU18       0.0001
     55  N         16.5080   56.4620    0.3330 N.3    20  LYS20      -0.1245
     56  CA        17.6540   55.6410   -0.0260 C.3    20  LYS20       0.1561
     57  C         17.6760   55.4310   -1.5340 C.2    20  LYS20       0.2260
     58  O         16.7140   54.9120   -2.1110 O.2    20  LYS20      -0.2867
     59  CB        17.5850   54.2990    0.6980 C.3    20  LYS20       0.0271
     60  CG        17.5610   54.4100    2.2130 C.3    20  LYS20       0.0035
     61  CD        17.1180   53.1060    2.8590 C.3    20  LYS20       0.0206
     62  CE        18.1210   51.9840    2.6290 C.3    20  LYS20       0.1093
     63  NZ        17.6580   50.7090    3.2420 N.3    20  LYS20      -0.1314
     64  N         16.7990   51.8440   -3.0600 N.3    23  ASN23      -0.1240
     65  CA        15.3930   51.4870   -3.2220 C.3    23  ASN23       0.1653
     66  C         14.8140   52.0920   -4.4930 C.2    23  ASN23       0.2266
     67  O         14.0520   51.4350   -5.2120 O.2    23  ASN23      -0.2867
     68  CB        14.5970   51.9420   -2.0030 C.3    23  ASN23       0.1155
     69  CG        15.0690   51.2860   -0.7240 C.2    23  ASN23       0.2627
     70  OD1       15.5760   50.1640   -0.7400 O.2    23  ASN23      -0.2716
     71  ND2       14.9010   51.9800    0.3930 N.am   23  ASN23      -0.0877
     72  N         15.4840   49.8360   -7.0760 N.3    26  ARG26      -0.1231
     73  CA        14.7300   48.5890   -6.9690 C.3    26  ARG26       0.1694
     74  C         13.3840   48.7030   -7.6660 C.2    26  ARG26       0.2591
     75  O         12.9090   47.7410   -8.2820 O.2    26  ARG26      -0.2718
     76  CB        14.5380   48.2160   -5.5000 C.3    26  ARG26       0.0321
     77  CG        15.8250   47.8650   -4.7800 C.3    26  ARG26       0.0489
     78  CD        15.5750   47.5770   -3.3150 C.3    26  ARG26       0.2205
     79  NE        16.8200   47.4410   -2.5680 N.pl3  26  ARG26      -0.0865
     80  CZ        16.8850   47.2520   -1.2550 C.cat  26  ARG26       0.5346
     81  NH1       15.7720   47.1730   -0.5350 N.pl3  26  ARG26       0.1354
     82  NH2       18.0650   47.1420   -0.6600 N.pl3  26  ARG26       0.1354
     83  N         12.7500   49.8710   -7.5720 N.am   27  VAL27      -0.1980
     84  CA        11.4990   50.0960   -8.2870 C.3    27  VAL27       0.1595
     85  C         11.7340   50.0270   -9.7880 C.2    27  VAL27       0.2287
     86  O         10.8910   49.5290  -10.5440 O.2    27  VAL27      -0.2864
     87  CB        10.8890   51.4460   -7.8700 C.3    27  VAL27       0.0276
     88  CG1        9.5540   51.6670   -8.5690 C.3    27  VAL27       0.0022
     89  CG2       10.7230   51.5090   -6.3550 C.3    27  VAL27       0.0022
     90  N          5.0530   60.0030   -5.8820 N.3    61  TRP61      -0.1241
     91  CA         4.2820   58.9810   -5.1840 C.3    61  TRP61       0.1605
     92  C          4.3100   59.2130   -3.6800 C.2    61  TRP61       0.2264
     93  O          3.2690   59.1990   -3.0150 O.2    61  TRP61      -0.2867
     94  CB         4.8240   57.5940   -5.5300 C.3    61  TRP61       0.0550
     95  CG         4.5250   57.1580   -6.9310 C.ar   61  TRP61       0.0003
     96  CD1        3.7090   57.7820   -7.8270 C.ar   61  TRP61       0.0946
     97  CD2        5.0400   55.9990   -7.5970 C.ar   61  TRP61       0.0152
     98  NE1        3.6810   57.0830   -9.0100 N.ar   61  TRP61      -0.2442
     99  CE2        4.4900   55.9840   -8.8940 C.ar   61  TRP61       0.0810
    100  CE3        5.9110   54.9720   -7.2230 C.ar   61  TRP61       0.0012
    101  CZ2        4.7850   54.9820   -9.8180 C.ar   61  TRP61       0.0191
    102  CZ3        6.2020   53.9790   -8.1420 C.ar   61  TRP61       0.0001
    103  CH2        5.6410   53.9920   -9.4230 C.ar   61  TRP61       0.0015
    104  N          1.4020   57.7580   -2.1720 N.3    66  LEU66      -0.1245
    105  CA         1.9200   57.1010   -0.9830 C.3    66  LEU66       0.1561
    106  C          1.9230   58.0070    0.2420 C.2    66  LEU66       0.2260
    107  O          2.4740   57.6220    1.2790 O.2    66  LEU66      -0.2867
    108  CB         3.3300   56.5760   -1.2610 C.3    66  LEU66       0.0270
    109  CG         3.4310   55.6080   -2.4430 C.3    66  LEU66       0.0019
    110  CD1        4.8840   55.2990   -2.7640 C.3    66  LEU66       0.0001
    111  CD2        2.6660   54.3220   -2.1650 C.3    66  LEU66       0.0001
    112  N         -8.2560   53.2010    1.5410 N.3    75  LEU75      -0.1245
    113  CA        -8.4610   51.8360    2.0160 C.3    75  LEU75       0.1561
    114  C         -9.5130   51.7690    3.1170 C.2    75  LEU75       0.2260
    115  O        -10.3220   50.8340    3.1500 O.2    75  LEU75      -0.2867
    116  CB        -7.1380   51.2630    2.5180 C.3    75  LEU75       0.0270
    117  CG        -6.1010   50.9320    1.4440 C.3    75  LEU75       0.0019
    118  CD1       -4.7110   50.8490    2.0480 C.3    75  LEU75       0.0001
    119  CD2       -6.4540   49.6260    0.7570 C.3    75  LEU75       0.0001
@<TRIPOS>BOND
     1    86    85    2
     2   101   103   ar
     3   101    99   ar
     4    85    84    1
     5   103   102   ar
     6    98    99   ar
     7    98    96   ar
     8    99    97   ar
     9    88    87    1
    10    84    87    1
    11    84    83    1
    12    75    74    2
    13   102   100   ar
    14    87    89    1
    15    96    95   ar
    16    74    83   am
    17    74    73    1
    18    97   100   ar
    19    97    95   ar
    20    72    73    1
    21    73    76    1
    22    95    94    1
    23    90    91    1
    24    94    91    1
    25    76    77    1
    26    67    66    2
    27    91    92    1
    28    77    78    1
    29    66    65    1
    30    92    93    2
    31    78    79    1
    32    65    64    1
    33    65    68    1
    34   110   109    1
    35    79    80    2
    36   109   111    1
    37   109   108    1
    38    54    52    1
    39    53    52    1
    40   104   105    1
    41    58    57    2
    42    68    69    1
    43    50    49    2
    44    52    51    1
    45    57    56    1
    46    51    48    1
    47   108   105    1
    48    80    82    1
    49    80    81    1
    50   105   106    1
    51    49    48    1
    52    70    69    2
    53    69    71   am
    54    48    47    1
    55    56    55    1
    56    56    59    1
    57   106   107    2
    58    59    60    1
    59    47    45   am
    60   119   117    1
    61    17    19   ar
    62    17    15   ar
    63    46    45    2
    64   117   118    1
    65   117   116    1
    66    19    18   ar
    67   112   113    1
    68    45    44    1
    69    28    27    2
    70    15    14   ar
    71    31    30    1
    72   113   116    1
    73   113   114    1
    74    60    61    1
    75    29    30    1
    76    29    26    1
    77    27    26    1
    78    62    61    1
    79    62    63    1
    80    18    16   ar
    81    30    32    1
    82    44    43    1
    83    26    25    1
    84   114   115    2
    85    14    16   ar
    86    14    13    1
    87    36    35    2
    88    43    35   am
    89    35    34    1
    90    33    34    1
    91    12    11    2
    92    13    10    1
    93    34    37    1
    94    25    22   am
    95    10    11    1
    96    10     9    1
    97    23    22    2
    98    22    21    1
    99     8     6    1
   100     6     7    1
   101     6     5    1
   102     9     3   am
   103    37    38    1
   104     4     3    2
   105    39    38   ar
   106    39    41   ar
   107     3     2    1
   108    38    40   ar
   109    21    20    1
   110    21    24    1
   111     5     2    1
   112    41    42   ar
   113    40    42   ar
   114     2     1    1
