@<TRIPOS>MOLECULE
tmp/5fihA00.pdb
 200 188 0 0 0
SMALL
GASTEIGER

@<TRIPOS>ATOM
      1  N        -11.1470   -6.0320   30.6250 N.3    32  GLN32      -0.1245
      2  CA       -11.6230   -7.4100   30.7120 C.3    32  GLN32       0.1566
      3  C        -10.5200   -8.2920   31.2780 C.2    32  GLN32       0.2260
      4  O         -9.4160   -8.3200   30.7410 O.2    32  GLN32      -0.2867
      5  CB       -12.0120   -7.9400   29.3190 C.3    32  GLN32       0.0367
      6  CG       -12.6990   -9.3160   29.3440 C.3    32  GLN32       0.0905
      7  CD       -14.1390   -9.2440   29.7630 C.2    32  GLN32       0.2608
      8  OE1      -14.8580   -8.3490   29.3410 O.2    32  GLN32      -0.2717
      9  NE2      -14.5740  -10.1800   30.6080 N.am   32  GLN32      -0.0878
     10  N         -8.9210  -11.9760   32.1450 N.3    34  GLN34      -0.1245
     11  CA        -8.9310  -13.3260   31.5760 C.3    34  GLN34       0.1566
     12  C         -8.3790  -14.3120   32.5880 C.2    34  GLN34       0.2260
     13  O         -9.0240  -15.3170   32.8850 O.2    34  GLN34      -0.2867
     14  CB        -8.1240  -13.3890   30.2740 C.3    34  GLN34       0.0367
     15  CG        -8.6480  -12.4850   29.1500 C.3    34  GLN34       0.0905
     16  CD        -9.7470  -13.1190   28.3130 C.2    34  GLN34       0.2608
     17  OE1       -9.5850  -14.2200   27.7720 O.2    34  GLN34      -0.2717
     18  NE2      -10.8610  -12.4040   28.1660 N.am   34  GLN34      -0.0878
     19  N        -15.9340   -7.2050   27.0520 N.3    66  TYR66      -0.1227
     20  CA       -16.2250   -8.3070   26.1130 C.3    66  TYR66       0.1736
     21  C        -17.2190   -9.3440   26.6360 C.2    66  TYR66       0.2595
     22  O        -17.8530  -10.0620   25.8510 O.2    66  TYR66      -0.2718
     23  CB       -14.9290   -9.0220   25.7100 C.3    66  TYR66       0.0548
     24  CG       -13.9580   -8.1600   24.9630 C.ar   66  TYR66      -0.0200
     25  CD1      -13.9880   -8.0810   23.5620 C.ar   66  TYR66      -0.0009
     26  CD2      -12.9850   -7.4330   25.6470 C.ar   66  TYR66      -0.0009
     27  CE1      -13.0760   -7.2840   22.8720 C.ar   66  TYR66       0.0417
     28  CE2      -12.0680   -6.6470   24.9700 C.ar   66  TYR66       0.0417
     29  CZ       -12.1210   -6.5750   23.5810 C.ar   66  TYR66       0.1957
     30  OH       -11.2110   -5.7830   22.9280 O.3    66  TYR66      -0.2866
     31  N        -17.3510   -9.4660   27.9570 N.am   67  ALA67      -0.1980
     32  CA       -18.2450  -10.4770   28.5100 C.3    67  ALA67       0.1597
     33  C        -18.6760  -10.0880   29.9080 C.2    67  ALA67       0.2287
     34  O        -17.8250   -9.7980   30.7440 O.2    67  ALA67      -0.2864
     35  CB       -17.5670  -11.8560   28.5260 C.3    67  ALA67       0.0319
     36  N        -19.9940   -6.1730   24.4040 N.3    91  ASP91      -0.1239
     37  CA       -20.4010   -7.3110   23.5570 C.3    91  ASP91       0.1674
     38  C        -21.5360   -8.1300   24.1770 C.2    91  ASP91       0.2266
     39  O        -21.6380   -8.2640   25.4060 O.2    91  ASP91      -0.2867
     40  CB       -19.2100   -8.2360   23.2520 C.3    91  ASP91       0.1410
     41  CG       -18.0870   -7.5180   22.5450 C.2    91  ASP91       0.3668
     42  OD1      -17.4390   -6.6670   23.1800 O.co2  91  ASP91      -0.2456
     43  OD2      -17.8640   -7.7730   21.3410 O.co2  91  ASP91      -0.2456
     44  N        -22.1310  -11.3920   23.2160 N.3    93  SER93      -0.1202
     45  CA       -21.7070  -12.7820   23.2230 C.3    93  SER93       0.2020
     46  C        -20.7350  -13.0870   24.3690 C.2    93  SER93       0.2619
     47  O        -20.3770  -12.2170   25.1740 O.2    93  SER93      -0.2717
     48  CB       -21.0560  -13.1080   21.8750 C.3    93  SER93       0.2103
     49  OG       -19.9090  -12.3050   21.6770 O.3    93  SER93      -0.2182
     50  N        -20.3280  -14.3450   24.4480 N.am   94  GLU94      -0.1965
     51  CA       -19.2810  -14.7510   25.3810 C.3    94  GLU94       0.1718
     52  C        -18.5550  -15.8930   24.6750 C.2    94  GLU94       0.2458
     53  O        -19.1300  -16.5040   23.7680 O.2    94  GLU94      -0.2730
     54  CB       -19.8690  -15.1230   26.7560 C.3    94  GLU94       0.0428
     55  CG       -20.8230  -16.3080   26.7920 C.3    94  GLU94       0.1163
     56  CD       -20.1780  -17.5770   27.3130 C.2    94  GLU94       0.3649
     57  OE1      -18.9550  -17.7840   27.0940 O.co2  94  GLU94      -0.2457
     58  OE2      -20.9110  -18.3650   27.9470 O.co2  94  GLU94      -0.2457
     59  N        -17.2870  -16.1580   25.0430 N.am   95  PRO95      -0.2727
     60  CA       -16.4660  -17.0880   24.2470 C.3    95  PRO95       0.1402
     61  C        -17.1560  -18.4000   23.8700 C.2    95  PRO95       0.2269
     62  O        -16.9450  -18.8970   22.7560 O.2    95  PRO95      -0.2865
     63  CB       -15.2650  -17.3420   25.1530 C.3    95  PRO95       0.0296
     64  CG       -15.1070  -16.0510   25.8870 C.3    95  PRO95       0.0237
     65  CD       -16.5310  -15.6210   26.1910 C.3    95  PRO95       0.0939
     66  N        -21.4160  -17.8150   20.9710 N.3    98  SER98       0.0000
     67  CA       -18.8980  -15.8740   20.6120 C.3    98  SER98       0.0000
     68  C        -21.0490  -17.3530   18.4950 C.2    98  SER98       0.3205
     69  O        -21.3470  -18.5460   18.5350 O.2    98  SER98      -0.2633
     70  CB       -18.8500  -15.9160   20.5650 C.2    98  SER98       0.2794
     71  OG       -18.9440  -16.8430   19.8410 O.2    98  SER98      -0.2794
     72  N        -21.4920  -16.5060   17.5760 N.am   99  ILE99      -0.1901
     73  CA       -21.5770  -16.9400   16.1750 C.3    99  ILE99       0.1731
     74  C        -20.2330  -17.5400   15.7610 C.2    99  ILE99       0.2616
     75  O        -19.2000  -16.8810   15.8410 O.2    99  ILE99      -0.2715
     76  CB       -22.0020  -15.7750   15.2520 C.3    99  ILE99       0.0290
     77  CG1      -23.3930  -15.2650   15.6620 C.3    99  ILE99       0.0022
     78  CG2      -22.0120  -16.2300   13.7790 C.3    99  ILE99       0.0023
     79  CD1      -23.7550  -13.9100   15.0670 C.3    99  ILE99       0.0001
     80  N        -20.2550  -18.8150   15.3750 N.am  100  ASN100     -0.1958
     81  CA       -19.0460  -19.5630   15.0220 C.3   100  ASN100      0.1819
     82  C        -18.6490  -19.2090   13.5920 C.2   100  ASN100      0.2621
     83  O        -19.3930  -19.5110   12.6740 O.2   100  ASN100     -0.2715
     84  CB       -19.3250  -21.0660   15.1480 C.3   100  ASN100      0.1195
     85  CG       -18.1100  -21.9390   14.8390 C.2   100  ASN100      0.2630
     86  OD1      -17.3340  -21.6580   13.9340 O.2   100  ASN100     -0.2716
     87  ND2      -17.9620  -23.0330   15.5880 N.am  100  ASN100     -0.0877
     88  N        -17.5090  -18.5460   13.4070 N.am  101  ARG101     -0.1977
     89  CA       -17.1470  -18.0500   12.0800 C.3   101  ARG101      0.1597
     90  C        -16.9070  -19.1790   11.0770 C.2   101  ARG101      0.2287
     91  O        -17.0500  -18.9870    9.8720 O.2   101  ARG101     -0.2864
     92  CB       -15.9390  -17.1000   12.1280 C.3   101  ARG101      0.0334
     93  CG       -14.5960  -17.7560   12.4300 C.3   101  ARG101      0.0492
     94  CD       -13.4400  -16.7440   12.4310 C.3   101  ARG101      0.2205
     95  NE       -13.5500  -15.6880   13.4560 N.pl3 101  ARG101     -0.0865
     96  CZ       -13.1220  -15.7930   14.7200 C.cat 101  ARG101      0.5346
     97  NH1      -12.5680  -16.9220   15.1700 N.pl3 101  ARG101      0.1354
     98  NH2      -13.2470  -14.7660   15.5480 N.pl3 101  ARG101      0.1354
     99  N        -18.0620   -9.5850   17.0360 N.3   134  ASN134     -0.1225
    100  CA       -16.6990   -9.0630   17.0900 C.3   134  ASN134      0.1785
    101  C        -15.7860   -9.9290   16.2140 C.2   134  ASN134      0.2597
    102  O        -15.5770  -11.0940   16.5210 O.2   134  ASN134     -0.2718
    103  CB       -16.1880   -9.0560   18.5270 C.3   134  ASN134      0.1169
    104  CG       -14.7360   -8.6200   18.6200 C.2   134  ASN134      0.2627
    105  OD1      -14.3480   -7.6260   18.0470 O.2   134  ASN134     -0.2716
    106  ND2      -13.9320   -9.3820   19.3350 N.am  134  ASN134     -0.0877
    107  N        -15.2930   -9.3520   15.1170 N.am  135  GLN135     -0.1965
    108  CA       -14.4300  -10.0400   14.1260 C.3   135  GLN135      0.1733
    109  C        -14.8430  -11.4840   13.8700 C.2   135  GLN135      0.2616
    110  O        -14.0540  -12.4200   14.0310 O.2   135  GLN135     -0.2715
    111  CB       -12.9490   -9.9290   14.4920 C.3   135  GLN135      0.0408
    112  CG       -12.6340  -10.1980   15.9350 C.3   135  GLN135      0.0908
    113  CD       -11.2730   -9.6840   16.3320 C.2   135  GLN135      0.2608
    114  OE1      -11.1510   -8.8470   17.2390 O.2   135  GLN135     -0.2717
    115  NE2      -10.2370  -10.1980   15.6810 N.am  135  GLN135     -0.0878
    116  N        -16.1040  -11.6550   13.4910 N.am  136  VAL136     -0.1977
    117  CA       -16.6410  -12.9650   13.1330 C.3   136  VAL136      0.1596
    118  C        -16.0100  -13.3450   11.7880 C.2   136  VAL136      0.2287
    119  O        -15.0610  -14.1210   11.7630 O.2   136  VAL136     -0.2864
    120  CB       -18.1690  -12.9560   13.1330 C.3   136  VAL136      0.0276
    121  CG1      -18.7210  -14.3490   12.9070 C.3   136  VAL136      0.0022
    122  CG2      -18.6650  -12.4160   14.4930 C.3   136  VAL136      0.0022
    123  N        -10.7280   -2.6830   14.6630 N.3   201  ASN201     -0.1240
    124  CA        -9.4710   -2.9590   15.3650 C.3   201  ASN201      0.1653
    125  C         -8.3430   -2.3430   14.5640 C.2   201  ASN201      0.2266
    126  O         -8.0950   -2.7580   13.4420 O.2   201  ASN201     -0.2867
    127  CB        -9.2230   -4.4610   15.4790 C.3   201  ASN201      0.1155
    128  CG       -10.1740   -5.1570   16.4150 C.2   201  ASN201      0.2627
    129  OD1      -10.9760   -4.5380   17.1260 O.2   201  ASN201     -0.2716
    130  ND2      -10.0770   -6.4800   16.4320 N.am  201  ASN201     -0.0877
    131  N         -4.4570   -1.3630   14.3310 N.3   203  TYR203     -0.1241
    132  CA        -3.0710   -1.4880   14.8000 C.3   203  TYR203      0.1605
    133  C         -2.0410   -1.0180   13.7600 C.2   203  TYR203      0.2264
    134  O         -0.8480   -1.3330   13.8760 O.2   203  TYR203     -0.2867
    135  CB        -2.7760   -2.9280   15.2320 C.3   203  TYR203      0.0534
    136  CG        -3.5310   -3.3930   16.4740 C.ar  203  TYR203     -0.0201
    137  CD1       -3.2410   -2.8620   17.7210 C.ar  203  TYR203     -0.0009
    138  CD2       -4.5410   -4.3570   16.3850 C.ar  203  TYR203     -0.0009
    139  CE1       -3.9040   -3.2800   18.8600 C.ar  203  TYR203      0.0417
    140  CE2       -5.2310   -4.7870   17.5240 C.ar  203  TYR203      0.0417
    141  CZ        -4.8930   -4.2460   18.7600 C.ar  203  TYR203      0.1957
    142  OH        -5.5500   -4.6460   19.8870 O.3   203  TYR203     -0.2866
    143  N        -10.1890   -1.0520   18.8580 N.3   234  GLU234     -0.1245
    144  CA        -8.8830   -1.2890   19.4890 C.3   234  GLU234      0.1567
    145  C         -7.8470   -0.3770   18.8250 C.2   234  GLU234      0.2260
    146  O         -7.9040   -0.1320   17.6190 O.2   234  GLU234     -0.2867
    147  CB        -8.4720   -2.7820   19.3770 C.3   234  GLU234      0.0388
    148  CG        -9.2620   -3.6950   20.3590 C.3   234  GLU234      0.1160
    149  CD        -9.2780   -5.2010   20.0670 C.2   234  GLU234      0.3649
    150  OE1       -8.2210   -5.7570   19.6470 O.co2 234  GLU234     -0.2457
    151  OE2      -10.3610   -5.7930   20.3660 O.co2 234  GLU234     -0.2457
    152  N         -6.1420   -0.7400   23.6300 N.3   266  TYR266     -0.1227
    153  CA        -6.1070   -2.1460   24.0210 C.3   266  TYR266      0.1736
    154  C         -4.7770   -2.3850   24.7310 C.2   266  TYR266      0.2595
    155  O         -3.7380   -2.2310   24.1030 O.2   266  TYR266     -0.2718
    156  CB        -6.2450   -3.0880   22.7980 C.3   266  TYR266      0.0548
    157  CG        -6.3990   -4.5300   23.2150 C.ar  266  TYR266     -0.0200
    158  CD1       -7.6580   -5.0600   23.4870 C.ar  266  TYR266     -0.0009
    159  CD2       -5.2820   -5.3550   23.3860 C.ar  266  TYR266     -0.0009
    160  CE1       -7.8130   -6.3720   23.9000 C.ar  266  TYR266      0.0417
    161  CE2       -5.4240   -6.6790   23.8100 C.ar  266  TYR266      0.0417
    162  CZ        -6.6810   -7.1800   24.0540 C.ar  266  TYR266      0.1957
    163  OH        -6.8360   -8.4780   24.4620 O.3   266  TYR266     -0.2866
    164  N         -4.7710   -2.6800   26.0370 N.am  267  MET267     -0.1979
    165  CA        -5.9420   -2.6860   26.9200 C.3   267  MET267      0.1605
    166  C         -5.4900   -2.3440   28.3490 C.2   267  MET267      0.2287
    167  O         -4.3090   -2.0410   28.5780 O.2   267  MET267     -0.2864
    168  CB        -6.6230   -4.0580   26.9060 C.3   267  MET267      0.0413
    169  CG        -5.7630   -5.2230   27.3860 C.3   267  MET267      0.0598
    170  SD        -6.7700   -6.6260   27.8970 S.3   267  MET267     -0.1393
    171  CE        -7.7180   -5.8540   29.2340 C.3   267  MET267      0.0692
    172  N         -1.7070   -9.0630   30.4840 N.3   271  GLU271     -0.1245
    173  CA        -1.9210  -10.5020   30.5070 C.3   271  GLU271      0.1567
    174  C         -0.8790  -11.1600   29.6050 C.2   271  GLU271      0.2260
    175  O          0.1020  -10.5150   29.2300 O.2   271  GLU271     -0.2867
    176  CB        -3.3570  -10.8160   30.0950 C.3   271  GLU271      0.0388
    177  CG        -4.3540  -10.1050   31.0050 C.3   271  GLU271      0.1160
    178  CD        -5.7710  -10.5170   30.7810 C.2   271  GLU271      0.3649
    179  OE1       -6.2010  -10.5600   29.6050 O.co2 271  GLU271     -0.2457
    180  OE2       -6.4510  -10.7960   31.7940 O.co2 271  GLU271     -0.2457
    181  N         -0.5760  -11.6200   26.5940 N.3   273  ASN273     -0.1240
    182  CA        -0.3060  -10.8890   25.3380 C.3   273  ASN273      0.1653
    183  C          0.4620   -9.5430   25.3830 C.2   273  ASN273      0.2266
    184  O          0.7590   -8.9770   24.3320 O.2   273  ASN273     -0.2867
    185  CB        -1.5520  -10.8250   24.4270 C.3   273  ASN273      0.1155
    186  CG        -2.7480  -10.1550   25.0840 C.2   273  ASN273      0.2627
    187  OD1       -2.7410   -9.8580   26.2740 O.2   273  ASN273     -0.2716
    188  ND2       -3.7910   -9.9200   24.2990 N.am  273  ASN273     -0.0877
    189  N         -0.1220   -6.2110   26.4390 N.3   275  TYR275     -0.1241
    190  CA        -0.8150   -5.0450   25.9180 C.3   275  TYR275      0.1605
    191  C         -1.3650   -4.1860   27.0310 C.2   275  TYR275      0.2264
    192  O         -2.1220   -3.2590   26.7620 O.2   275  TYR275     -0.2867
    193  CB        -1.9910   -5.4920   25.0530 C.3   275  TYR275      0.0534
    194  CG        -1.6150   -5.8050   23.6260 C.ar  275  TYR275     -0.0201
    195  CD1       -1.4260   -4.7860   22.6950 C.ar  275  TYR275     -0.0009
    196  CD2       -1.4500   -7.1180   23.2120 C.ar  275  TYR275     -0.0009
    197  CE1       -1.0880   -5.0700   21.3730 C.ar  275  TYR275      0.0417
    198  CE2       -1.1220   -7.4180   21.9000 C.ar  275  TYR275      0.0417
    199  CZ        -0.9350   -6.3920   20.9920 C.ar  275  TYR275      0.1957
    200  OH        -0.5990   -6.7100   19.7010 O.3   275  TYR275     -0.2866
@<TRIPOS>BOND
     1    91    90    2
     2    90    89    1
     3   119   118    2
     4   118   117    1
     5    89    92    1
     6    89    88    1
     7    92    93    1
     8    93    94    1
     9    94    95    1
    10    83    82    2
    11   121   120    1
    12   117   120    1
    13   117   116    1
    14   120   122    1
    15    88    82   am
    16   126   125    2
    17    95    96    2
    18   116   109   am
    19    82    81    1
    20   133   134    2
    21   133   132    1
    22    78    76    1
    23   109   110    2
    24   109   108    1
    25    86    85    2
    26   108   111    1
    27   108   107    1
    28   131   132    1
    29   111   112    1
    30   125   124    1
    31   123   124    1
    32    96    97    1
    33    96    98    1
    34   132   135    1
    35    85    84    1
    36    85    87   am
    37    81    84    1
    38    81    80    1
    39    79    77    1
    40   107   101   am
    41   135   136    1
    42    76    77    1
    43    76    73    1
    44   124   127    1
    45    80    74   am
    46   127   128    1
    47   115   113   am
    48    74    75    2
    49    74    73    1
    50   112   113    1
    51    73    72    1
    52   101   102    2
    53   101   100    1
    54   113   114    2
    55   138   136   ar
    56   138   140   ar
    57   128   130   am
    58   128   129    2
    59   136   137   ar
    60    99   100    1
    61   100   103    1
    62   140   141   ar
    63    72    68   am
    64   146   145    2
    65   137   139   ar
    66   105   104    2
    67    68    69    2
    68   103   104    1
    69   104   106   am
    70   141   139   ar
    71   141   142    1
    72   145   144    1
    73   143   144    1
    74   147   144    1
    75   147   148    1
    76   150   149   ar
    77   200   199    1
    78    71    70    2
    79   149   148    1
    80   149   151   ar
    81   199   197   ar
    82   199   198   ar
    83    43    41   ar
    84   197   195   ar
    85    49    48    1
    86    48    45    1
    87   198   196   ar
    88    41    42   ar
    89    41    40    1
    90   195   194   ar
    91    62    61    2
    92   156   157    1
    93   156   153    1
    94    27    25   ar
    95    27    29   ar
    96    30    29    1
    97   196   194   ar
    98   157   159   ar
    99   157   158   ar
   100    44    45    1
   101    45    46    1
   102    40    37    1
   103   159   161   ar
   104   158   160   ar
   105    37    38    1
   106    37    36    1
   107    25    24   ar
   108    29    28   ar
   109   194   193    1
   110   152   153    1
   111    53    52    2
   112   161   162   ar
   113    61    60    1
   114   160   162   ar
   115   153   154    1
   116   162   163    1
   117   155   154    2
   118    38    39    2
   119    60    59    1
   120    60    63    1
   121   188   186   am
   122   184   183    2
   123    46    50   am
   124    46    47    2
   125   185   186    1
   126   185   182    1
   127    50    51    1
   128    52    59   am
   129    52    51    1
   130   154   164   am
   131    24    26   ar
   132    24    23    1
   133    28    26   ar
   134    59    65    1
   135   193   190    1
   136   186   187    2
   137    63    64    1
   138   182   183    1
   139   182   181    1
   140    51    54    1
   141    23    20    1
   142    22    21    2
   143    64    65    1
   144   190   189    1
   145   190   191    1
   146   164   165    1
   147    20    21    1
   148    20    19    1
   149    21    31   am
   150    54    55    1
   151   192   191    2
   152    55    56    1
   153   168   165    1
   154   168   169    1
   155   165   166    1
   156    57    56   ar
   157    56    58   ar
   158   169   170    1
   159    17    16    2
   160   170   171    1
   161    31    32    1
   162    18    16   am
   163    16    15    1
   164   166   167    2
   165    32    35    1
   166    32    33    1
   167    15    14    1
   168   175   174    2
   169     5     6    1
   170     5     2    1
   171     8     7    2
   172     6     7    1
   173   174   173    1
   174   179   178   ar
   175     7     9   am
   176    33    34    2
   177   176   173    1
   178   176   177    1
   179    14    11    1
   180   172   173    1
   181     1     2    1
   182     2     3    1
   183     4     3    2
   184   178   177    1
   185   178   180   ar
   186    11    10    1
   187    11    12    1
   188    12    13    2
