@<TRIPOS>MOLECULE
tmp/5fihA01.pdb
 162 152 0 0 0
SMALL
GASTEIGER

@<TRIPOS>ATOM
      1  N        -15.2930   -9.3520   15.1170 N.3   135  GLN135     -0.1245
      2  CA       -14.4300  -10.0400   14.1260 C.3   135  GLN135      0.1566
      3  C        -14.8430  -11.4840   13.8700 C.2   135  GLN135      0.2260
      4  O        -14.0540  -12.4200   14.0310 O.2   135  GLN135     -0.2867
      5  CB       -12.9490   -9.9290   14.4920 C.3   135  GLN135      0.0367
      6  CG       -12.6340  -10.1980   15.9350 C.3   135  GLN135      0.0905
      7  CD       -11.2730   -9.6840   16.3320 C.2   135  GLN135      0.2608
      8  OE1      -11.1510   -8.8470   17.2390 O.2   135  GLN135     -0.2717
      9  NE2      -10.2370  -10.1980   15.6810 N.am  135  GLN135     -0.0878
     10  N        -13.2090  -12.8170    9.4640 N.3   138  ASN138     -0.1240
     11  CA       -11.8870  -12.2110    9.6680 C.3   138  ASN138      0.1653
     12  C        -10.9580  -12.2770    8.4560 C.2   138  ASN138      0.2266
     13  O         -9.8820  -11.6790    8.4690 O.2   138  ASN138     -0.2867
     14  CB       -11.2000  -12.7160   10.9480 C.3   138  ASN138      0.1155
     15  CG       -10.9430  -14.2150   10.9580 C.2   138  ASN138      0.2627
     16  OD1      -11.0180  -14.8980    9.9330 O.2   138  ASN138     -0.2716
     17  ND2      -10.6250  -14.7400   12.1470 N.am  138  ASN138     -0.0877
     18  N        -12.0830   -6.6600   12.3640 N.3   175  ASN175     -0.1225
     19  CA       -10.6180   -6.5770   12.2690 C.3   175  ASN175      0.1785
     20  C        -10.1700   -5.6700   11.1010 C.2   175  ASN175      0.2597
     21  O        -10.9470   -4.8560   10.6360 O.2   175  ASN175     -0.2718
     22  CB       -10.0190   -7.9740   12.1740 C.3   175  ASN175      0.1169
     23  CG       -10.3590   -8.6630   10.8680 C.2   175  ASN175      0.2627
     24  OD1      -11.3560   -8.3290   10.2140 O.2   175  ASN175     -0.2716
     25  ND2       -9.5350   -9.6310   10.4810 N.am  175  ASN175     -0.0877
     26  N         -8.9190   -5.7920   10.6450 N.am  176  ASP176     -0.1960
     27  CA        -8.3610   -4.8430    9.6690 C.3   176  ASP176      0.1840
     28  C         -7.6650   -5.6020    8.5510 C.2   176  ASP176      0.2622
     29  O         -6.5440   -5.2550    8.1490 O.2   176  ASP176     -0.2715
     30  CB        -7.3800   -3.8690   10.3580 C.3   176  ASP176      0.1450
     31  CG        -6.9390   -2.6930    9.4650 C.2   176  ASP176      0.3671
     32  OD1       -7.6830   -2.2620    8.5610 O.co2 176  ASP176     -0.2456
     33  OD2       -5.8230   -2.1740    9.6970 O.co2 176  ASP176     -0.2456
     34  N         -8.3350   -6.6420    8.0600 N.am  177  ASP177     -0.1957
     35  CA        -7.8110   -7.4570    6.9640 C.3   177  ASP177      0.1840
     36  C         -8.0070   -6.7150    5.6480 C.2   177  ASP177      0.2621
     37  O         -9.1220   -6.2920    5.3250 O.2   177  ASP177     -0.2715
     38  CB        -8.5030   -8.8220    6.9530 C.3   177  ASP177      0.1450
     39  CG        -8.1430   -9.6530    5.7260 C.2   177  ASP177      0.3671
     40  OD1       -6.9890  -10.1260    5.6560 O.co2 177  ASP177     -0.2456
     41  OD2       -9.0250   -9.8390    4.8630 O.co2 177  ASP177     -0.2456
     42  N         -6.9170   -6.5290    4.8940 N.am  178  ALA178     -0.1977
     43  CA        -6.9550   -5.6940    3.6950 C.3   178  ALA178      0.1597
     44  C         -7.9260   -6.1840    2.6200 C.2   178  ALA178      0.2287
     45  O         -8.6000   -5.3780    1.9880 O.2   178  ALA178     -0.2864
     46  CB        -5.5480   -5.5250    3.1000 C.3   178  ALA178      0.0319
     47  N        -11.7770   -5.6270    4.2200 N.3   181  ARG181     -0.1245
     48  CA       -12.1320   -4.4250    4.9830 C.3   181  ARG181      0.1563
     49  C        -13.2560   -3.5770    4.3520 C.2   181  ARG181      0.2260
     50  O        -14.2140   -3.1890    5.0210 O.2   181  ARG181     -0.2867
     51  CB       -10.8870   -3.5480    5.1580 C.3   181  ARG181      0.0307
     52  CG       -11.0650   -2.4550    6.1730 C.3   181  ARG181      0.0489
     53  CD       -10.0280   -1.3650    5.9380 C.3   181  ARG181      0.2205
     54  NE        -8.6770   -1.7890    6.2850 N.pl3 181  ARG181     -0.0865
     55  CZ        -7.6630   -1.8720    5.4250 C.cat 181  ARG181      0.5346
     56  NH1       -7.8420   -1.5590    4.1580 N.pl3 181  ARG181      0.1354
     57  NH2       -6.4650   -2.2490    5.8500 N.pl3 181  ARG181      0.1354
     58  N        -10.7280   -2.6830   14.6630 N.3   201  ASN201     -0.1240
     59  CA        -9.4710   -2.9590   15.3650 C.3   201  ASN201      0.1653
     60  C         -8.3430   -2.3430   14.5640 C.2   201  ASN201      0.2266
     61  O         -8.0950   -2.7580   13.4420 O.2   201  ASN201     -0.2867
     62  CB        -9.2230   -4.4610   15.4790 C.3   201  ASN201      0.1155
     63  CG       -10.1740   -5.1570   16.4150 C.2   201  ASN201      0.2627
     64  OD1      -10.9760   -4.5380   17.1260 O.2   201  ASN201     -0.2716
     65  ND2      -10.0770   -6.4800   16.4320 N.am  201  ASN201     -0.0877
     66  N         -4.4570   -1.3630   14.3310 N.3   203  TYR203     -0.1227
     67  CA        -3.0710   -1.4880   14.8000 C.3   203  TYR203      0.1736
     68  C         -2.0410   -1.0180   13.7600 C.2   203  TYR203      0.2595
     69  O         -0.8480   -1.3330   13.8760 O.2   203  TYR203     -0.2718
     70  CB        -2.7760   -2.9280   15.2320 C.3   203  TYR203      0.0548
     71  CG        -3.5310   -3.3930   16.4740 C.ar  203  TYR203     -0.0200
     72  CD1       -3.2410   -2.8620   17.7210 C.ar  203  TYR203     -0.0009
     73  CD2       -4.5410   -4.3570   16.3850 C.ar  203  TYR203     -0.0009
     74  CE1       -3.9040   -3.2800   18.8600 C.ar  203  TYR203      0.0417
     75  CE2       -5.2310   -4.7870   17.5240 C.ar  203  TYR203      0.0417
     76  CZ        -4.8930   -4.2460   18.7600 C.ar  203  TYR203      0.1957
     77  OH        -5.5500   -4.6460   19.8870 O.3   203  TYR203     -0.2866
     78  N         -2.4900   -0.2200   12.7900 N.am  204  GLU204     -0.1979
     79  CA        -1.6230    0.2110   11.6840 C.3   204  GLU204      0.1602
     80  C         -0.4960    1.1490   12.1050 C.2   204  GLU204      0.2287
     81  O          0.5490    1.2090   11.4460 O.2   204  GLU204     -0.2864
     82  CB        -2.4390    0.8420   10.5670 C.3   204  GLU204      0.0415
     83  CG        -3.2870   -0.1540    9.8090 C.3   204  GLU204      0.1163
     84  CD        -4.1940    0.4860    8.7820 C.2   204  GLU204      0.3649
     85  OE1       -3.8740    1.5860    8.2750 O.co2 204  GLU204     -0.2457
     86  OE2       -5.2430   -0.1200    8.4750 O.co2 204  GLU204     -0.2457
     87  N          2.3320    1.9910   14.5770 N.3   206  CYS206     -0.1235
     88  CA         3.2430    1.3940   15.5640 C.3   206  CYS206      0.1677
     89  C          4.4040    2.3430   15.8240 C.2   206  CYS206      0.2270
     90  O          4.9630    2.9070   14.8760 O.2   206  CYS206     -0.2867
     91  CB         3.8080    0.0650   15.0440 C.3   206  CYS206      0.0956
     92  SG         2.6030   -1.2090   14.5980 S.3   206  CYS206     -0.0801
     93  N          6.7100    5.5010   16.6310 N.3   208  TYR208     -0.1227
     94  CA         6.6200    6.9260   16.2920 C.3   208  TYR208      0.1736
     95  C          6.2750    7.1710   14.8200 C.2   208  TYR208      0.2596
     96  O          7.0700    7.7320   14.0580 O.2   208  TYR208     -0.2718
     97  CB         7.8910    7.6750   16.7400 C.3   208  TYR208      0.0548
     98  CG         8.0780    7.6510   18.2390 C.ar  208  TYR208     -0.0200
     99  CD1        7.5290    8.6470   19.0440 C.ar  208  TYR208     -0.0009
    100  CD2        8.7940    6.6160   18.8560 C.ar  208  TYR208     -0.0009
    101  CE1        7.6890    8.6180   20.4340 C.ar  208  TYR208      0.0417
    102  CE2        8.9640    6.5740   20.2370 C.ar  208  TYR208      0.0417
    103  CZ         8.4210    7.5770   21.0170 C.ar  208  TYR208      0.1957
    104  OH         8.5870    7.5310   22.3740 O.3   208  TYR208     -0.2866
    105  N          5.0610    6.7620   14.4310 N.am  209  SER209     -0.1952
    106  CA         4.6150    6.8350   13.0440 C.3   209  SER209      0.1924
    107  C          4.0220    8.2190   12.7310 C.2   209  SER209      0.2314
    108  O          4.1750    9.1550   13.5170 O.2   209  SER209     -0.2863
    109  CB         3.6170    5.6990   12.7690 C.3   209  SER209      0.2116
    110  OG         3.3260    5.5480   11.3950 O.3   209  SER209     -0.2180
    111  N          2.0350    8.0960    6.9500 N.3   213  THR213     -0.1203
    112  CA         2.7670    6.8350    6.7750 C.3   213  THR213      0.1994
    113  C          2.1230    5.6270    7.4650 C.2   213  THR213      0.2619
    114  O          2.3260    4.4900    7.0400 O.2   213  THR213     -0.2717
    115  CB         4.2510    6.9650    7.2110 C.3   213  THR213      0.1784
    116  OG1        4.3290    7.2300    8.6170 O.3   213  THR213     -0.2211
    117  CG2        4.9180    8.1010    6.4530 C.3   213  THR213      0.0376
    118  N          1.3500    5.8690    8.5200 N.am  214  SER214     -0.1937
    119  CA         0.7340    4.7670    9.2590 C.3   214  SER214      0.2055
    120  C         -0.3220    4.0420    8.4270 C.2   214  SER214      0.2643
    121  O         -0.5030    2.8320    8.5610 O.2   214  SER214     -0.2714
    122  CB         0.0990    5.2820   10.5420 C.3   214  SER214      0.2130
    123  OG        -0.9180    6.2090   10.2240 O.3   214  SER214     -0.2179
    124  N         -1.0010    4.7850    7.5580 N.am  215  GLY215     -0.1954
    125  CA        -2.1880    4.2880    6.8720 C.3   215  GLY215      0.1869
    126  C         -3.4440    4.9970    7.3680 C.2   215  GLY215      0.2309
    127  O         -4.5190    4.8470    6.7800 O.2   215  GLY215     -0.2863
    128  N         -7.2520    5.2690    5.6330 N.3   219  ARG219     -0.1245
    129  CA        -8.4520    4.7820    6.3320 C.3   219  ARG219      0.1563
    130  C         -9.4540    5.9150    6.5210 C.2   219  ARG219      0.2260
    131  O        -10.6580    5.7060    6.3810 O.2   219  ARG219     -0.2867
    132  CB        -8.1110    4.1670    7.6980 C.3   219  ARG219      0.0307
    133  CG        -7.1160    2.9970    7.7140 C.3   219  ARG219      0.0489
    134  CD        -7.6370    1.7170    7.0350 C.3   219  ARG219      0.2205
    135  NE        -7.4710    1.7740    5.5790 N.pl3 219  ARG219     -0.0865
    136  CZ        -6.3020    1.6770    4.9370 C.cat 219  ARG219      0.5346
    137  NH1       -5.1590    1.4920    5.5970 N.pl3 219  ARG219      0.1354
    138  NH2       -6.2770    1.7560    3.6120 N.pl3 219  ARG219      0.1354
    139  N        -10.1890   -1.0520   18.8580 N.3   234  GLU234     -0.1245
    140  CA        -8.8830   -1.2890   19.4890 C.3   234  GLU234      0.1567
    141  C         -7.8470   -0.3770   18.8250 C.2   234  GLU234      0.2260
    142  O         -7.9040   -0.1320   17.6190 O.2   234  GLU234     -0.2867
    143  CB        -8.4720   -2.7820   19.3770 C.3   234  GLU234      0.0388
    144  CG        -9.2620   -3.6950   20.3590 C.3   234  GLU234      0.1160
    145  CD        -9.2780   -5.2010   20.0670 C.2   234  GLU234      0.3649
    146  OE1       -8.2210   -5.7570   19.6470 O.co2 234  GLU234     -0.2457
    147  OE2      -10.3610   -5.7930   20.3660 O.co2 234  GLU234     -0.2457
    148  N          4.5200   -2.9530   18.8760 N.3   239  LEU239     -0.1231
    149  CA         5.8040   -3.2480   18.2230 C.3   239  LEU239      0.1693
    150  C          6.9660   -2.4840   18.8680 C.2   239  LEU239      0.2591
    151  O          8.0270   -3.0600   19.1360 O.2   239  LEU239     -0.2718
    152  CB         5.7150   -2.9720   16.7190 C.3   239  LEU239      0.0284
    153  CG         6.9950   -3.1790   15.8990 C.3   239  LEU239      0.0019
    154  CD1        7.3970   -4.6370   15.9630 C.3   239  LEU239      0.0001
    155  CD2        6.7710   -2.7680   14.4590 C.3   239  LEU239      0.0001
    156  N          6.7480   -1.2020   19.1430 N.am  240  VAL240     -0.1980
    157  CA         7.7240   -0.3510   19.8240 C.3   240  VAL240      0.1595
    158  C          7.2090   -0.0080   21.2180 C.2   240  VAL240      0.2287
    159  O          6.0740    0.4760   21.3710 O.2   240  VAL240     -0.2864
    160  CB         7.9810    0.9380   19.0180 C.3   240  VAL240      0.0276
    161  CG1        8.8410    1.9500   19.8080 C.3   240  VAL240      0.0022
    162  CG2        8.6030    0.6010   17.6630 C.3   240  VAL240      0.0022
@<TRIPOS>BOND
     1    45    44    2
     2    44    43    1
     3    46    43    1
     4   138   136    1
     5    43    42    1
     6    56    55    1
     7    47    48    1
     8    49    48    1
     9    49    50    2
    10    41    39   ar
    11    42    36   am
    12   136   135    2
    13   136   137    1
    14    48    51    1
    15    51    52    1
    16    37    36    2
    17    55    57    1
    18    55    54    2
    19   135   134    1
    20   128   129    1
    21    36    35    1
    22    40    39   ar
    23    39    38    1
    24    53    52    1
    25    53    54    1
    26   129   130    1
    27   129   132    1
    28   131   130    2
    29   117   115    1
    30   112   111    1
    31   112   115    1
    32   112   113    1
    33   127   126    2
    34   125   126    1
    35   125   124    1
    36    38    35    1
    37    35    34    1
    38   134   133    1
    39   114   113    2
    40   115   116    1
    41   113   118   am
    42   124   120   am
    43   132   133    1
    44    34    28   am
    45    29    28    2
    46    85    84   ar
    47   120   121    2
    48   120   119    1
    49    12    13    2
    50    12    11    1
    51    86    84   ar
    52   118   119    1
    53    28    27    1
    54    32    31   ar
    55    84    83    1
    56   119   122    1
    57    10    11    1
    58    31    33   ar
    59    31    30    1
    60    11    14    1
    61    27    30    1
    62    27    26    1
    63    83    82    1
    64    16    15    2
    65    24    23    2
    66   123   122    1
    67    25    23   am
    68    82    79    1
    69    21    20    2
    70    26    20   am
    71    23    22    1
    72    14    15    1
    73    15    17   am
    74    20    19    1
    75   110   109    1
    76    81    80    2
    77    79    80    1
    78    79    78    1
    79    22    19    1
    80    19    18    1
    81   107   106    1
    82   107   108    2
    83   109   106    1
    84    78    68   am
    85   106   105    1
    86    61    60    2
    87    68    69    2
    88    68    67    1
    89     3     4    2
    90     3     2    1
    91    96    95    2
    92     2     5    1
    93     2     1    1
    94    66    67    1
    95   105    95   am
    96   155   153    1
    97     5     6    1
    98    60    59    1
    99    87    88    1
   100    92    91    1
   101    58    59    1
   102    67    70    1
   103    95    94    1
   104    90    89    2
   105    91    88    1
   106    70    71    1
   107    59    62    1
   108    62    63    1
   109    88    89    1
   110     9     7   am
   111   153   154    1
   112   153   152    1
   113     6     7    1
   114    94    93    1
   115    94    97    1
   116     7     8    2
   117    73    71   ar
   118    73    75   ar
   119    63    65   am
   120    63    64    2
   121    71    72   ar
   122   152   149    1
   123    97    98    1
   124    75    76   ar
   125   142   141    2
   126   162   160    1
   127    72    74   ar
   128   149   150    1
   129   149   148    1
   130    98   100   ar
   131    98    99   ar
   132    76    74   ar
   133    76    77    1
   134   141   140    1
   135   100   102   ar
   136   139   140    1
   137   150   151    2
   138   150   156   am
   139   160   161    1
   140   160   157    1
   141    99   101   ar
   142   156   157    1
   143   143   140    1
   144   143   144    1
   145   146   145   ar
   146   157   158    1
   147   145   144    1
   148   145   147   ar
   149   102   103   ar
   150   101   103   ar
   151   103   104    1
   152   158   159    2
