@<TRIPOS>MOLECULE
tmp/5fiiD00.pdb
 93 91 0 0 0
SMALL
GASTEIGER

@<TRIPOS>ATOM
      1  N        -29.9080   15.4710   56.6260 N.3     8  LEU8       -0.1231
      2  CA       -28.8830   16.1550   57.3940 C.3     8  LEU8        0.1693
      3  C        -29.1530   17.6410   57.3520 C.2     8  LEU8        0.2592
      4  O        -29.6690   18.1430   56.3590 O.2     8  LEU8       -0.2718
      5  CB       -27.4900   15.9300   56.7750 C.3     8  LEU8        0.0284
      6  CG       -27.0410   14.4970   56.5510 C.3     8  LEU8        0.0019
      7  CD1      -25.6360   14.5110   55.9690 C.3     8  LEU8        0.0001
      8  CD2      -27.0680   13.7420   57.8620 C.3     8  LEU8        0.0001
      9  N        -28.7820   18.3380   58.4130 N.am    9  LYS9       -0.1966
     10  CA       -28.8270   19.7990   58.4110 C.3     9  LYS9        0.1728
     11  C        -27.6710   20.3580   57.5760 C.2     9  LYS9        0.2616
     12  O        -26.5570   19.8430   57.5940 O.2     9  LYS9       -0.2715
     13  CB       -28.8570   20.3750   59.8340 C.3     9  LYS9        0.0311
     14  CG       -27.5480   20.3030   60.6030 C.3     9  LYS9        0.0038
     15  CD       -27.7260   20.7250   62.0620 C.3     9  LYS9        0.0206
     16  CE       -26.6260   20.1470   62.9400 C.3     9  LYS9        0.1093
     17  NZ       -25.2790   20.5980   62.5050 N.3     9  LYS9       -0.1314
     18  N        -27.9750   21.4140   56.8410 N.am   10  GLU10      -0.1963
     19  CA       -27.0530   22.0140   55.8830 C.3    10  GLU10       0.1733
     20  C        -25.8550   22.6830   56.5550 C.2    10  GLU10       0.2616
     21  O        -26.0280   23.5380   57.4120 O.2    10  GLU10      -0.2715
     22  CB       -27.8320   23.0060   55.0090 C.3    10  GLU10       0.0429
     23  CG       -27.0180   23.8830   54.0700 C.3    10  GLU10       0.1163
     24  CD       -26.1470   23.1390   53.0680 C.2    10  GLU10       0.3649
     25  OE1      -25.9740   21.9000   53.1280 O.co2  10  GLU10      -0.2457
     26  OE2      -25.6050   23.8380   52.1920 O.co2  10  GLU10      -0.2457
     27  N        -24.6480   22.2590   56.1740 N.am   11  GLU11      -0.1963
     28  CA       -23.3960   22.8670   56.6170 C.3    11  GLU11       0.1733
     29  C        -22.2600   22.2870   55.7780 C.2    11  GLU11       0.2616
     30  O        -22.4110   21.1910   55.2310 O.2    11  GLU11      -0.2715
     31  CB       -23.1310   22.6070   58.1150 C.3    11  GLU11       0.0429
     32  CG       -23.3800   21.1710   58.5660 C.3    11  GLU11       0.1163
     33  CD       -22.8710   20.8680   59.9870 C.2    11  GLU11       0.3649
     34  OE1      -22.3280   21.7800   60.6490 O.co2  11  GLU11      -0.2457
     35  OE2      -23.0110   19.7080   60.4410 O.co2  11  GLU11      -0.2457
     36  N        -21.1370   22.9980   55.6830 N.am   12  VAL12      -0.1963
     37  CA       -19.9410   22.4550   55.0320 C.3    12  VAL12       0.1727
     38  C        -19.5330   21.1540   55.7560 C.2    12  VAL12       0.2617
     39  O        -19.5080   21.1140   57.0010 O.2    12  VAL12      -0.2715
     40  CB       -18.7740   23.4630   55.0060 C.3    12  VAL12       0.0290
     41  CG1      -17.4360   22.8100   54.6580 C.3    12  VAL12       0.0023
     42  CG2      -19.0590   24.5660   54.0120 C.3    12  VAL12       0.0023
     43  N        -19.3090   20.0910   54.9740 N.am   13  GLY13      -0.1940
     44  CA       -18.8590   18.8090   55.5020 C.3    13  GLY13       0.2014
     45  C        -19.8900   17.9160   56.1760 C.2    13  GLY13       0.2639
     46  O        -19.5130   16.9030   56.7640 O.2    13  GLY13      -0.2714
     47  N        -21.1720   18.2500   56.0750 N.am   14  ALA14      -0.1963
     48  CA       -22.2430   17.4440   56.6710 C.3    14  ALA14       0.1728
     49  C        -22.1670   15.9890   56.1670 C.2    14  ALA14       0.2616
     50  O        -22.1440   15.0460   56.9540 O.2    14  ALA14      -0.2715
     51  CB       -23.6100   18.0440   56.3430 C.3    14  ALA14       0.0334
     52  N        -22.1530   15.8200   54.8420 N.am   15  LEU15      -0.1963
     53  CA       -22.1230   14.4950   54.2870 C.3    15  LEU15       0.1728
     54  C        -20.7980   13.7850   54.5880 C.2    15  LEU15       0.2616
     55  O        -20.8140   12.5970   54.9140 O.2    15  LEU15      -0.2715
     56  CB       -22.4450   14.5270   52.7830 C.3    15  LEU15       0.0311
     57  CG       -22.5140   13.1570   52.0870 C.3    15  LEU15       0.0022
     58  CD1      -23.4700   12.2300   52.8280 C.3    15  LEU15       0.0001
     59  CD2      -22.8900   13.3060   50.6150 C.3    15  LEU15       0.0001
     60  N        -19.6840   14.5150   54.4950 N.am   16  ALA16      -0.1977
     61  CA       -18.3530   13.9860   54.8480 C.3    16  ALA16       0.1597
     62  C        -18.3260   13.2710   56.2210 C.2    16  ALA16       0.2287
     63  O        -17.7330   12.1790   56.3460 O.2    16  ALA16      -0.2864
     64  CB       -17.2840   15.0730   54.7800 C.3    16  ALA16       0.0319
     65  N        -28.8440   13.0340   46.3620 N.3    34  SER34      -0.1217
     66  CA       -29.3470   14.0520   47.2630 C.3    34  SER34       0.1889
     67  C        -30.5360   14.7900   46.6510 C.2    34  SER34       0.2288
     68  O        -30.7140   14.8480   45.4210 O.2    34  SER34      -0.2866
     69  CB       -28.2550   15.0750   47.6060 C.3    34  SER34       0.2089
     70  OG       -27.9140   15.8380   46.4520 O.3    34  SER34      -0.2183
     71  N        -30.9600   18.6150   53.7200 N.3    44  TYR44      -0.1241
     72  CA       -30.9500   17.8100   52.5020 C.3    44  TYR44       0.1605
     73  C        -31.3120   16.3780   52.8660 C.2    44  TYR44       0.2264
     74  O        -30.9360   15.9130   53.9390 O.2    44  TYR44      -0.2867
     75  CB       -29.5450   17.8460   51.8620 C.3    44  TYR44       0.0534
     76  CG       -29.2730   19.1310   51.1110 C.ar   44  TYR44      -0.0201
     77  CD1      -29.6480   19.2620   49.7860 C.ar   44  TYR44      -0.0009
     78  CD2      -28.6330   20.2000   51.7200 C.ar   44  TYR44      -0.0009
     79  CE1      -29.4070   20.4230   49.0820 C.ar   44  TYR44       0.0417
     80  CE2      -28.4050   21.3800   51.0300 C.ar   44  TYR44       0.0417
     81  CZ       -28.7880   21.4700   49.7090 C.ar   44  TYR44       0.1957
     82  OH       -28.5520   22.6220   49.0080 O.3    44  TYR44      -0.2866
     83  N        -30.9870   12.3420   51.6860 N.3    46  PHE46      -0.1241
     84  CA       -30.0460   11.4690   50.9820 C.3    46  PHE46       0.1605
     85  C        -30.6200   10.0860   50.8000 C.2    46  PHE46       0.2264
     86  O        -31.1230    9.5140   51.7600 O.2    46  PHE46      -0.2867
     87  CB       -28.7240   11.4130   51.7380 C.3    46  PHE46       0.0534
     88  CG       -28.0430   12.7200   51.7860 C.ar   46  PHE46      -0.0203
     89  CD1      -27.1920   13.1080   50.7650 C.ar   46  PHE46      -0.0042
     90  CD2      -28.3060   13.6090   52.8290 C.ar   46  PHE46      -0.0042
     91  CE1      -26.5910   14.3560   50.8090 C.ar   46  PHE46      -0.0003
     92  CE2      -27.7150   14.8520   52.8700 C.ar   46  PHE46      -0.0003
     93  CZ       -26.8520   15.2230   51.8560 C.ar   46  PHE46      -0.0000
@<TRIPOS>BOND
     1    68    67    2
     2    65    66    1
     3    70    69    1
     4    67    66    1
     5    66    69    1
     6    82    81    1
     7    79    81   ar
     8    79    77   ar
     9    81    80   ar
    10    77    76   ar
    11    59    57    1
    12    89    91   ar
    13    89    88   ar
    14    85    84    1
    15    85    86    2
    16    91    93   ar
    17    84    83    1
    18    84    87    1
    19    80    78   ar
    20    76    78   ar
    21    76    75    1
    22    87    88    1
    23    88    90   ar
    24    93    92   ar
    25    75    72    1
    26    57    56    1
    27    57    58    1
    28    26    24   ar
    29    72    73    1
    30    72    71    1
    31    56    53    1
    32    90    92   ar
    33    73    74    2
    34    24    25   ar
    35    24    23    1
    36    42    40    1
    37    23    22    1
    38    53    54    1
    39    53    52    1
    40    60    54   am
    41    60    61    1
    42    54    55    2
    43    41    40    1
    44    64    61    1
    45    52    49   am
    46    61    62    1
    47    43    44    1
    48    43    38   am
    49    40    37    1
    50    22    19    1
    51    37    36    1
    52    37    38    1
    53    30    29    2
    54    44    45    1
    55    36    29   am
    56    38    39    2
    57    29    28    1
    58    19    20    1
    59    19    18    1
    60     7     6    1
    61    47    45   am
    62    47    48    1
    63    49    48    1
    64    49    50    2
    65    27    20   am
    66    27    28    1
    67    45    46    2
    68    62    63    2
    69    51    48    1
    70     4     3    2
    71     6     5    1
    72     6     8    1
    73    20    21    2
    74    28    31    1
    75     1     2    1
    76     5     2    1
    77    18    11   am
    78     3     2    1
    79     3     9   am
    80    11    12    2
    81    11    10    1
    82    31    32    1
    83    10     9    1
    84    10    13    1
    85    32    33    1
    86    13    14    1
    87    33    35   ar
    88    33    34   ar
    89    14    15    1
    90    15    16    1
    91    17    16    1
