@<TRIPOS>MOLECULE
tmp/5fipA06.pdb
 106 103 0 0 0
SMALL
GASTEIGER

@<TRIPOS>ATOM
      1  N         -2.3460   33.0710   30.7750 N.3    13  ILE13      -0.1231
      2  CA        -3.5060   32.7010   29.9800 C.3    13  ILE13       0.1692
      3  C         -3.1140   32.7690   28.4980 C.2    13  ILE13       0.2592
      4  O         -2.5120   33.7630   28.0570 O.2    13  ILE13      -0.2718
      5  CB        -4.7750   33.5250   30.3650 C.3    13  ILE13       0.0266
      6  CG1       -5.0680   33.3520   31.8820 C.3    13  ILE13       0.0019
      7  CG2       -5.9400   33.0790   29.4970 C.3    13  ILE13       0.0020
      8  CD1       -6.0870   34.3310   32.4700 C.3    13  ILE13       0.0001
      9  N         -3.4310   31.7010   27.7630 N.am   14  ILE14      -0.1966
     10  CA        -3.1460   31.5630   26.3340 C.3    14  ILE14       0.1727
     11  C         -4.4560   31.3110   25.6060 C.2    14  ILE14       0.2616
     12  O         -5.4580   30.9710   26.2300 O.2    14  ILE14      -0.2715
     13  CB        -2.1430   30.3650   26.0680 C.3    14  ILE14       0.0290
     14  CG1       -2.7440   28.9990   26.5070 C.3    14  ILE14       0.0022
     15  CG2       -0.8310   30.6120   26.7920 C.3    14  ILE14       0.0023
     16  CD1       -1.8870   27.7460   26.2840 C.3    14  ILE14       0.0001
     17  N         -4.4670   31.5460   24.2990 N.am   15  GLU15      -0.1977
     18  CA        -5.5960   31.1900   23.4860 C.3    15  GLU15       0.1602
     19  C         -5.1300   30.1990   22.4140 C.2    15  GLU15       0.2287
     20  O         -4.1320   30.4450   21.7360 O.2    15  GLU15      -0.2864
     21  CB        -6.2140   32.4190   22.8260 C.3    15  GLU15       0.0415
     22  CG        -7.5110   32.1130   22.0910 C.3    15  GLU15       0.1163
     23  CD        -8.2890   33.3460   21.7420 C.2    15  GLU15       0.3649
     24  OE1       -8.4770   34.2090   22.6250 O.co2  15  GLU15      -0.2457
     25  OE2       -8.7220   33.4490   20.5890 O.co2  15  GLU15      -0.2457
     26  N         -9.5320   30.1360   25.3590 N.3    20  LYS20      -0.1245
     27  CA        -8.5500   30.5160   26.3820 C.3    20  LYS20       0.1561
     28  C         -8.4160   29.4420   27.4600 C.2    20  LYS20       0.2260
     29  O         -9.4000   28.8350   27.8610 O.2    20  LYS20      -0.2867
     30  CB        -8.9030   31.8580   27.0460 C.3    20  LYS20       0.0271
     31  CG        -9.0380   33.0310   26.0750 C.3    20  LYS20       0.0035
     32  CD        -9.3260   34.3000   26.8490 C.3    20  LYS20       0.0206
     33  CE        -9.9060   35.3880   25.9740 C.3    20  LYS20       0.1093
     34  NZ        -8.8310   36.0030   25.1810 N.3    20  LYS20      -0.1314
     35  N        -15.9420   41.7290   33.0430 N.3   199  PRO199     -0.2102
     36  CA       -14.6980   41.0510   33.4550 C.3   199  PRO199      0.1504
     37  C        -13.6300   42.0680   33.8400 C.2   199  PRO199      0.2576
     38  O        -13.7100   43.2330   33.4060 O.2   199  PRO199     -0.2718
     39  CB       -14.2590   40.3360   32.1730 C.3   199  PRO199      0.0282
     40  CG       -14.7790   41.2090   31.0720 C.3   199  PRO199      0.0208
     41  CD       -16.1390   41.6410   31.5740 C.3   199  PRO199      0.0893
     42  N        -12.6370   41.6100   34.6010 N.am  200  ILE200     -0.1966
     43  CA       -11.4410   42.4170   34.8900 C.3   200  ILE200      0.1727
     44  C        -10.5840   42.4700   33.6000 C.2   200  ILE200      0.2616
     45  O        -10.3050   41.4330   32.9900 O.2   200  ILE200     -0.2715
     46  CB       -10.6650   41.8780   36.1150 C.3   200  ILE200      0.0290
     47  CG1      -11.5500   42.0570   37.3530 C.3   200  ILE200      0.0022
     48  CG2       -9.3070   42.6010   36.2930 C.3   200  ILE200      0.0023
     49  CD1      -11.1540   41.2590   38.5520 C.3   200  ILE200      0.0001
     50  N        -10.1920   43.6920   33.2220 N.am  201  ASP201     -0.1957
     51  CA        -9.4110   43.9530   32.0100 C.3   201  ASP201      0.1840
     52  C         -7.9210   43.7120   32.3180 C.2   201  ASP201      0.2622
     53  O         -7.1290   44.6200   32.3400 O.2   201  ASP201     -0.2715
     54  CB        -9.6740   45.3930   31.5090 C.3   201  ASP201      0.1450
     55  CG        -8.9280   45.7390   30.1920 C.2   201  ASP201      0.3671
     56  OD1       -8.7390   44.8770   29.3040 O.co2 201  ASP201     -0.2456
     57  OD2       -8.5600   46.9180   30.0340 O.co2 201  ASP201     -0.2456
     58  N         -7.5600   42.4710   32.5980 N.am  202  ASP202     -0.1957
     59  CA        -6.1730   42.0780   32.8820 C.3   202  ASP202      0.1840
     60  C         -6.0160   40.6820   32.2960 C.2   202  ASP202      0.2621
     61  O         -6.8320   39.8070   32.5620 O.2   202  ASP202     -0.2715
     62  CB        -5.9050   42.0900   34.4000 C.3   202  ASP202      0.1450
     63  CG        -4.4550   41.6830   34.7730 C.2   202  ASP202      0.3671
     64  OD1       -4.0910   40.4800   34.6870 O.co2 202  ASP202     -0.2456
     65  OD2       -3.6890   42.5570   35.2280 O.co2 202  ASP202     -0.2456
     66  N         -4.9740   40.4860   31.4960 N.am  203  LYS203     -0.1977
     67  CA        -4.8340   39.2780   30.6900 C.3   203  LYS203      0.1596
     68  C         -4.4740   38.0470   31.5320 C.2   203  LYS203      0.2287
     69  O         -4.6100   36.9390   31.0580 O.2   203  LYS203     -0.2864
     70  CB        -3.8320   39.4640   29.5380 C.3   203  LYS203      0.0298
     71  CG        -2.3870   39.7080   29.9550 C.3   203  LYS203      0.0038
     72  CD        -1.4550   39.7290   28.7480 C.3   203  LYS203      0.0206
     73  CE        -0.1800   40.4970   29.0380 C.3   203  LYS203      0.1093
     74  NZ         1.0050   39.8260   28.4380 N.3   203  LYS203     -0.1314
     75  N        -10.7780   33.3050   37.4330 N.3   207  TYR207     -0.1241
     76  CA       -11.8930   33.3440   38.3370 C.3   207  TYR207      0.1605
     77  C        -12.0900   32.0240   39.0610 C.2   207  TYR207      0.2264
     78  O        -12.0050   30.9590   38.4540 O.2   207  TYR207     -0.2867
     79  CB       -13.1380   33.7250   37.5620 C.3   207  TYR207      0.0534
     80  CG       -12.9350   35.0370   36.8280 C.ar  207  TYR207     -0.0201
     81  CD1      -12.2950   35.0870   35.5960 C.ar  207  TYR207     -0.0009
     82  CD2      -13.3350   36.2410   37.4150 C.ar  207  TYR207     -0.0009
     83  CE1      -12.1120   36.2830   34.9310 C.ar  207  TYR207      0.0417
     84  CE2      -13.1430   37.4520   36.7720 C.ar  207  TYR207      0.0417
     85  CZ       -12.5490   37.4800   35.5370 C.ar  207  TYR207      0.1957
     86  OH       -12.3640   38.6990   34.9290 O.3   207  TYR207     -0.2866
     87  N        -17.9160   32.3060   27.7530 N.3   237  ASN237     -0.1225
     88  CA       -17.8070   33.7150   27.4990 C.3   237  ASN237      0.1785
     89  C        -16.4090   34.2490   27.6470 C.2   237  ASN237      0.2598
     90  O        -16.2070   35.4440   27.8520 O.2   237  ASN237     -0.2718
     91  CB       -18.8210   34.4660   28.3460 C.3   237  ASN237      0.1169
     92  CG       -20.1930   34.3110   27.7980 C.2   237  ASN237      0.2627
     93  OD1      -20.5150   34.8780   26.7750 O.2   237  ASN237     -0.2716
     94  ND2      -20.9860   33.4900   28.4290 N.am  237  ASN237     -0.0877
     95  N        -15.4320   33.3610   27.5590 N.am  238  GLY238     -0.1942
     96  CA       -14.0550   33.8200   27.4490 C.3   238  GLY238      0.2014
     97  C        -13.3220   34.0340   28.7540 C.2   238  GLY238      0.2638
     98  O        -12.2310   34.5490   28.7320 O.2   238  GLY238     -0.2714
     99  N        -13.9040   33.6130   29.8800 N.am  239  LEU239     -0.1977
    100  CA       -13.2080   33.6450   31.1770 C.3   239  LEU239      0.1596
    101  C        -12.5440   32.2920   31.4270 C.2   239  LEU239      0.2287
    102  O        -13.0060   31.2640   30.9280 O.2   239  LEU239     -0.2864
    103  CB       -14.1870   33.9680   32.3460 C.3   239  LEU239      0.0297
    104  CG       -15.0470   35.2410   32.1820 C.3   239  LEU239      0.0022
    105  CD1      -15.8460   35.4790   33.4400 C.3   239  LEU239      0.0001
    106  CD2      -14.2120   36.4570   31.7950 C.3   239  LEU239      0.0001
@<TRIPOS>BOND
     1    25    23   ar
     2    20    19    2
     3    23    22    1
     4    23    24   ar
     5    22    21    1
     6    19    18    1
     7    21    18    1
     8    18    17    1
     9    17    11   am
    10    34    33    1
    11    26    27    1
    12    11    12    2
    13    11    10    1
    14    33    32    1
    15    13    10    1
    16    13    14    1
    17    13    15    1
    18    31    32    1
    19    31    30    1
    20    16    14    1
    21    10     9    1
    22    27    30    1
    23    27    28    1
    24    93    92    2
    25    96    95    1
    26    96    97    1
    27    28    29    2
    28    88    89    1
    29    88    87    1
    30    88    91    1
    31    95    89   am
    32    89    90    2
    33     9     3   am
    34    92    91    1
    35    92    94   am
    36     4     3    2
    37    74    73    1
    38     3     2    1
    39    98    97    2
    40    72    73    1
    41    72    71    1
    42    97    99   am
    43    56    55   ar
    44     7     5    1
    45    70    71    1
    46    70    67    1
    47    99   100    1
    48     2     5    1
    49     2     1    1
    50    57    55   ar
    51    55    54    1
    52     5     6    1
    53    67    66    1
    54    67    68    1
    55   102   101    2
    56    69    68    2
    57    40    41    1
    58    40    39    1
    59   100   101    1
    60   100   103    1
    61    66    60   am
    62    54    51    1
    63    41    35    1
    64   106   104    1
    65     6     8    1
    66    51    52    1
    67    51    50    1
    68    39    36    1
    69   104   103    1
    70   104   105    1
    71    60    61    2
    72    60    59    1
    73    52    53    2
    74    52    58   am
    75    58    59    1
    76    59    62    1
    77    45    44    2
    78    35    36    1
    79    50    44   am
    80    38    37    2
    81    36    37    1
    82    44    43    1
    83    37    42   am
    84    62    63    1
    85    42    43    1
    86    64    63   ar
    87    63    65   ar
    88    43    46    1
    89    86    85    1
    90    83    85   ar
    91    83    81   ar
    92    85    84   ar
    93    81    80   ar
    94    46    48    1
    95    46    47    1
    96    84    82   ar
    97    80    82   ar
    98    80    79    1
    99    47    49    1
   100    75    76    1
   101    79    76    1
   102    76    77    1
   103    78    77    2
