@<TRIPOS>MOLECULE
tmp/5fipB02.pdb
 103 101 0 0 0
SMALL
GASTEIGER

@<TRIPOS>ATOM
      1  N         34.5240    4.0100   29.2030 N.3    69  TYR69      -0.1241
      2  CA        35.3820    3.1180   28.4220 C.3    69  TYR69       0.1605
      3  C         36.7610    3.1060   29.0390 C.2    69  TYR69       0.2264
      4  O         37.1980    4.1130   29.6220 O.2    69  TYR69      -0.2867
      5  CB        35.5370    3.6320   27.0030 C.3    69  TYR69       0.0534
      6  CG        34.4860    3.1750   26.0420 C.ar   69  TYR69      -0.0201
      7  CD1       33.1830    3.7080   26.0790 C.ar   69  TYR69      -0.0009
      8  CD2       34.7900    2.2230   25.0770 C.ar   69  TYR69      -0.0009
      9  CE1       32.2220    3.3060   25.1640 C.ar   69  TYR69       0.0417
     10  CE2       33.8420    1.8100   24.1630 C.ar   69  TYR69       0.0417
     11  CZ        32.5630    2.3500   24.2020 C.ar   69  TYR69       0.1957
     12  OH        31.6390    1.9060   23.2780 O.3    69  TYR69      -0.2866
     13  N         33.3880    0.1080   31.4480 N.3   104  HIS104     -0.1241
     14  CA        32.7980   -0.2120   30.1590 C.3   104  HIS104      0.1621
     15  C         33.7380   -1.0360   29.2910 C.2   104  HIS104      0.2264
     16  O         34.2670   -0.5290   28.3100 O.2   104  HIS104     -0.2867
     17  CB        32.3010    1.0550   29.4180 C.3   104  HIS104      0.0745
     18  CG        31.3220    0.7830   28.3170 C.ar  104  HIS104      0.0817
     19  ND1       29.9640    0.6290   28.5390 N.ar  104  HIS104     -0.2268
     20  CD2       31.4940    0.6740   26.9770 C.ar  104  HIS104      0.1154
     21  CE1       29.3490    0.4240   27.3850 C.ar  104  HIS104      0.1986
     22  NE2       30.2570    0.4320   26.4240 N.ar  104  HIS104     -0.2212
     23  N         34.9330   -3.6030   26.4240 N.3   106  LEU106     -0.1245
     24  CA        34.3890   -3.9830   25.1260 C.3   106  LEU106      0.1561
     25  C         35.4340   -4.6660   24.2490 C.2   106  LEU106      0.2260
     26  O         35.1950   -5.7760   23.7360 O.2   106  LEU106     -0.2867
     27  CB        33.7760   -2.7680   24.4140 C.3   106  LEU106      0.0270
     28  CG        32.8830   -2.9970   23.1980 C.3   106  LEU106      0.0019
     29  CD1       31.7850   -4.0110   23.4690 C.3   106  LEU106      0.0001
     30  CD2       32.2880   -1.6720   22.7610 C.3   106  LEU106      0.0001
     31  N         30.4660   -5.6510   28.9690 N.3   143  GLU143     -0.1245
     32  CA        30.1830   -6.7070   28.0000 C.3   143  GLU143      0.1567
     33  C         31.3980   -7.6270   27.8290 C.2   143  GLU143      0.2260
     34  O         32.1660   -7.4840   26.8840 O.2   143  GLU143     -0.2867
     35  CB        29.7950   -6.1270   26.6130 C.3   143  GLU143      0.0388
     36  CG        28.3940   -5.5970   26.5960 C.3   143  GLU143      0.1160
     37  CD        27.8890   -5.1160   25.2500 C.2   143  GLU143      0.3649
     38  OE1       28.6990   -4.9220   24.3350 O.co2 143  GLU143     -0.2457
     39  OE2       26.6570   -4.9140   25.1430 O.co2 143  GLU143     -0.2457
     40  N         28.6900  -10.7880   25.0370 N.3   188  TRP188     -0.1241
     41  CA        28.2720   -9.3750   25.1340 C.3   188  TRP188      0.1605
     42  C         27.0660   -9.2170   26.0880 C.2   188  TRP188      0.2264
     43  O         26.0810   -8.5250   25.7870 O.2   188  TRP188     -0.2867
     44  CB        27.9630   -8.7670   23.7440 C.3   188  TRP188      0.0550
     45  CG        29.1540   -8.6870   22.8320 C.ar  188  TRP188      0.0003
     46  CD1       30.0340   -7.6700   22.7670 C.ar  188  TRP188      0.0946
     47  CD2       29.5580   -9.6450   21.8290 C.ar  188  TRP188      0.0152
     48  NE1       30.9880   -7.9250   21.7930 N.ar  188  TRP188     -0.2442
     49  CE2       30.7230   -9.1330   21.2110 C.ar  188  TRP188      0.0810
     50  CE3       29.0550  -10.8900   21.4050 C.ar  188  TRP188      0.0012
     51  CZ2       31.4070   -9.8140   20.1800 C.ar  188  TRP188      0.0191
     52  CZ3       29.7360  -11.5800   20.3740 C.ar  188  TRP188      0.0001
     53  CH2       30.9030  -11.0290   19.7770 C.ar  188  TRP188      0.0015
     54  N         19.3810   -5.4940   21.3690 N.3   212  TYR212     -0.1241
     55  CA        19.1390   -4.4170   20.3710 C.3   212  TYR212      0.1605
     56  C         17.9520   -4.8910   19.5730 C.2   212  TYR212      0.2264
     57  O         17.9720   -6.0000   19.0410 O.2   212  TYR212     -0.2867
     58  CB        20.3920   -4.1550   19.4970 C.3   212  TYR212      0.0534
     59  CG        21.4000   -3.3890   20.3070 C.ar  212  TYR212     -0.0201
     60  CD1       22.2570   -4.0470   21.2160 C.ar  212  TYR212     -0.0009
     61  CD2       21.4370   -1.9810   20.2500 C.ar  212  TYR212     -0.0009
     62  CE1       23.1030   -3.3260   22.0420 C.ar  212  TYR212      0.0417
     63  CE2       22.3040   -1.2510   21.0520 C.ar  212  TYR212      0.0417
     64  CZ        23.1330   -1.9230   21.9540 C.ar  212  TYR212      0.1957
     65  OH        23.9970   -1.1800   22.7480 O.3   212  TYR212     -0.2866
     66  N         21.9340   -2.0680   29.3330 N.3   245  GLU245     -0.1245
     67  CA        22.0980   -1.4940   27.9860 C.3   245  GLU245      0.1567
     68  C         21.2200   -2.2000   26.9980 C.2   245  GLU245      0.2260
     69  O         21.3470   -3.4160   26.7990 O.2   245  GLU245     -0.2867
     70  CB        23.5750   -1.6030   27.5330 C.3   245  GLU245      0.0388
     71  CG        23.9690   -0.7530   26.3090 C.3   245  GLU245      0.1160
     72  CD        25.4140   -1.0600   25.9230 C.2   245  GLU245      0.3649
     73  OE1       26.3200   -0.6330   26.6400 O.co2 245  GLU245     -0.2457
     74  OE2       25.6190   -1.7810   24.9310 O.co2 245  GLU245     -0.2457
     75  N         22.4370   -4.2880   16.4960 N.3   251  ALA251     -0.1231
     76  CA        23.5610   -4.3560   17.4450 C.3   251  ALA251      0.1694
     77  C         24.7700   -3.4990   17.0420 C.2   251  ALA251      0.2593
     78  O         25.6080   -3.1950   17.8760 O.2   251  ALA251     -0.2718
     79  CB        23.9720   -5.8170   17.7170 C.3   251  ALA251      0.0304
     80  N         24.8170   -3.0570   15.7810 N.am  252  SER252     -0.1938
     81  CA        25.8080   -2.0790   15.3310 C.3   252  SER252      0.2055
     82  C         25.6190   -0.6950   15.9730 C.2   252  SER252      0.2643
     83  O         26.5380    0.1200   15.9440 O.2   252  SER252     -0.2714
     84  CB        25.7130   -1.9160   13.8100 C.3   252  SER252      0.2130
     85  OG        24.4310   -1.4070   13.4780 O.3   252  SER252     -0.2179
     86  N         24.4360   -0.4210   16.5340 N.am  253  GLY253     -0.1954
     87  CA        24.1140    0.9320   17.0070 C.3   253  GLY253      0.1869
     88  C         23.3340    1.7410   15.9440 C.2   253  GLY253      0.2309
     89  O         22.8230    2.8450   16.2160 O.2   253  GLY253     -0.2863
     90  N         20.5400    2.8800   25.3430 N.3   279  TRP279     -0.1241
     91  CA        21.7690    3.3310   24.6980 C.3   279  TRP279      0.1605
     92  C         21.3360    4.1590   23.4460 C.2   279  TRP279      0.2264
     93  O         20.6910    3.6070   22.5730 O.2   279  TRP279     -0.2867
     94  CB        22.5790    2.0980   24.2390 C.3   279  TRP279      0.0550
     95  CG        23.9220    2.4360   23.5630 C.ar  279  TRP279      0.0003
     96  CD1       24.1590    2.5910   22.2160 C.ar  279  TRP279      0.0946
     97  CD2       25.1730    2.6990   24.2170 C.ar  279  TRP279      0.0152
     98  NE1       25.4800    2.8910   21.9950 N.ar  279  TRP279     -0.2442
     99  CE2       26.1310    2.9760   23.1990 C.ar  279  TRP279      0.0810
    100  CE3       25.5910    2.7010   25.5590 C.ar  279  TRP279      0.0012
    101  CZ2       27.5000    3.2510   23.4930 C.ar  279  TRP279      0.0191
    102  CZ3       26.9510    2.9920   25.8600 C.ar  279  TRP279      0.0001
    103  CH2       27.8900    3.2490   24.8200 C.ar  279  TRP279      0.0015
@<TRIPOS>BOND
     1    85    84    1
     2    84    81    1
     3    81    80    1
     4    81    82    1
     5    80    77   am
     6    83    82    2
     7    88    89    2
     8    88    87    1
     9    82    86   am
    10    75    76    1
    11    86    87    1
    12    77    76    1
    13    77    78    2
    14    76    79    1
    15    57    56    2
    16    58    59    1
    17    58    55    1
    18    56    55    1
    19    53    51   ar
    20    53    52   ar
    21    51    49   ar
    22    61    59   ar
    23    61    63   ar
    24    59    60   ar
    25    55    54    1
    26    52    50   ar
    27    63    64   ar
    28    49    48   ar
    29    49    47   ar
    30    60    62   ar
    31    50    47   ar
    32    48    46   ar
    33    47    45   ar
    34    64    62   ar
    35    64    65    1
    36    98    96   ar
    37    98    99   ar
    38    96    95   ar
    39    93    92    2
    40    30    28    1
    41    46    45   ar
    42    45    44    1
    43    28    29    1
    44    28    27    1
    45    99   101   ar
    46    99    97   ar
    47    12    11    1
    48    92    91    1
    49   101   103   ar
    50    95    97   ar
    51    95    94    1
    52    26    25    2
    53    44    41    1
    54    10    11   ar
    55    10     8   ar
    56    11     9   ar
    57    97   100   ar
    58    94    91    1
    59    25    24    1
    60    38    37   ar
    61    27    24    1
    62    91    90    1
    63   103   102   ar
    64    74    72   ar
    65    40    41    1
    66     8     6   ar
    67    24    23    1
    68    41    42    1
    69    39    37   ar
    70     9     7   ar
    71    37    36    1
    72   100   102   ar
    73    43    42    2
    74    72    71    1
    75    72    73   ar
    76     6     7   ar
    77     6     5    1
    78    71    70    1
    79    22    20   ar
    80    22    21   ar
    81    36    35    1
    82    35    32    1
    83    69    68    2
    84    34    33    2
    85    20    18   ar
    86    68    67    1
    87     5     2    1
    88    21    19   ar
    89    70    67    1
    90    33    32    1
    91    67    66    1
    92    32    31    1
    93    16    15    2
    94    18    19   ar
    95    18    17    1
    96     2     3    1
    97     2     1    1
    98     3     4    2
    99    15    14    1
   100    17    14    1
   101    14    13    1
