@<TRIPOS>MOLECULE
tmp/5fitA00.pdb
 160 153 0 0 0
SMALL
GASTEIGER

@<TRIPOS>ATOM
      1  N         13.3410   30.0340   22.6960 N.3     4  PHE4       -0.1241
      2  CA        13.1510   28.6340   22.5230 C.3     4  PHE4        0.1605
      3  C         12.1700   28.5170   21.4010 C.2     4  PHE4        0.2264
      4  O         10.9730   28.5020   21.5850 O.2     4  PHE4       -0.2867
      5  CB        12.6670   27.9460   23.7840 C.3     4  PHE4        0.0534
      6  CG        12.5380   26.4500   23.6490 C.ar    4  PHE4       -0.0203
      7  CD1       13.5270   25.7000   23.0150 C.ar    4  PHE4       -0.0042
      8  CD2       11.3810   25.7950   24.0640 C.ar    4  PHE4       -0.0042
      9  CE1       13.3400   24.3150   22.8010 C.ar    4  PHE4       -0.0003
     10  CE2       11.2180   24.3800   23.8270 C.ar    4  PHE4       -0.0003
     11  CZ        12.1730   23.6750   23.2160 C.ar    4  PHE4       -0.0000
     12  N          9.2320   31.0510   21.3900 N.3     7  HIS7       -0.1241
     13  CA         8.7260   31.4230   22.6910 C.3     7  HIS7        0.1621
     14  C          9.8920   32.1190   23.3940 C.2     7  HIS7        0.2264
     15  O         11.0510   31.8580   23.0750 O.2     7  HIS7       -0.2867
     16  CB         8.3960   30.1960   23.5620 C.3     7  HIS7        0.0745
     17  CG         7.8670   28.9930   22.8290 C.ar    7  HIS7        0.0817
     18  ND1        6.8530   28.2160   23.3450 N.ar    7  HIS7       -0.2268
     19  CD2        8.2740   28.3630   21.6970 C.ar    7  HIS7        0.1154
     20  CE1        6.6600   27.1580   22.5810 C.ar    7  HIS7        0.1986
     21  NE2        7.5100   27.2280   21.5710 N.ar    7  HIS7       -0.2212
     22  N         11.5570   32.4340   27.0100 N.3     9  ILE9       -0.1245
     23  CA        11.5370   31.6760   28.2400 C.3     9  ILE9        0.1561
     24  C         11.9850   32.5590   29.3900 C.2     9  ILE9        0.2260
     25  O         12.9980   33.2860   29.2820 O.2     9  ILE9       -0.2867
     26  CB        12.4840   30.4710   28.1450 C.3     9  ILE9        0.0252
     27  CG1       12.0720   29.5250   27.0030 C.3     9  ILE9        0.0019
     28  CG2       12.5950   29.8000   29.5220 C.3     9  ILE9        0.0019
     29  CD1       10.6250   29.0420   27.0220 C.3     9  ILE9        0.0001
     30  N         12.6100   29.7710   35.0510 N.3    13  VAL13      -0.1245
     31  CA        12.4300   28.3670   34.7480 C.3    13  VAL13       0.1561
     32  C         13.6640   27.7640   34.0600 C.2    13  VAL13       0.2260
     33  O         13.6790   26.5780   33.7420 O.2    13  VAL13      -0.2867
     34  CB        11.1560   28.1120   33.9400 C.3    13  VAL13       0.0252
     35  CG1       10.0030   28.8120   34.6040 C.3    13  VAL13       0.0019
     36  CG2       11.3040   28.5530   32.4720 C.3    13  VAL13       0.0019
     37  N         16.2280   24.1250   30.7190 N.3    24  LEU24      -0.1231
     38  CA        14.9840   24.6340   31.3110 C.3    24  LEU24       0.1693
     39  C         14.1000   23.5170   31.7940 C.2    24  LEU24       0.2592
     40  O         14.2930   22.3670   31.4000 O.2    24  LEU24      -0.2718
     41  CB        14.1670   25.3900   30.2360 C.3    24  LEU24       0.0284
     42  CG        13.7290   24.5950   28.9690 C.3    24  LEU24       0.0019
     43  CD1       12.3040   24.8950   28.4710 C.3    24  LEU24       0.0001
     44  CD2       14.7040   24.8830   27.8600 C.3    24  LEU24       0.0001
     45  N         13.1350   23.8330   32.6560 N.am   25  VAL25      -0.1966
     46  CA        12.1950   22.7980   33.0790 C.3    25  VAL25       0.1727
     47  C         11.0400   22.7860   32.0890 C.2    25  VAL25       0.2616
     48  O         10.9250   23.6820   31.2640 O.2    25  VAL25      -0.2715
     49  CB        11.7060   22.9170   34.5520 C.3    25  VAL25       0.0290
     50  CG1       12.9030   22.9160   35.5000 C.3    25  VAL25       0.0023
     51  CG2       10.9370   24.1460   34.7780 C.3    25  VAL25       0.0023
     52  N         10.2880   21.7000   32.0670 N.am   26  ASN26      -0.1958
     53  CA         9.1750   21.5650   31.1550 C.3    26  ASN26       0.1819
     54  C          7.8750   21.9390   31.7750 C.2    26  ASN26       0.2621
     55  O          7.6410   21.6090   32.9600 O.2    26  ASN26      -0.2715
     56  CB         9.0100   20.1310   30.7760 C.3    26  ASN26       0.1195
     57  CG         9.5850   19.8360   29.5050 C.2    26  ASN26       0.2630
     58  OD1        8.9470   19.2060   28.6670 O.2    26  ASN26      -0.2716
     59  ND2       10.8280   20.2040   29.3310 N.am   26  ASN26      -0.0877
     60  N          6.9790   22.4860   30.9440 N.am   27  ARG27      -0.1963
     61  CA         5.6510   22.8760   31.3980 C.3    27  ARG27       0.1729
     62  C          4.8780   21.5860   31.4590 C.2    27  ARG27       0.2616
     63  O          4.0070   21.4180   32.3170 O.2    27  ARG27      -0.2715
     64  CB         4.9850   23.7970   30.3720 C.3    27  ARG27       0.0348
     65  CG         3.4330   23.8680   30.4610 C.3    27  ARG27       0.0492
     66  CD         2.8760   24.5810   31.7360 C.3    27  ARG27       0.2205
     67  NE         2.9000   26.0470   31.5660 N.pl3  27  ARG27      -0.0865
     68  CZ         2.5430   26.9600   32.4860 C.cat  27  ARG27       0.5346
     69  NH1        2.1160   26.5960   33.6970 N.pl3  27  ARG27       0.1354
     70  NH2        2.6070   28.2650   32.1810 N.pl3  27  ARG27       0.1354
     71  N          5.2750   20.6500   30.5990 N.am   28  LYS28      -0.1977
     72  CA         4.5990   19.3670   30.4950 C.3    28  LYS28       0.1596
     73  C          5.5530   18.1590   30.6540 C.2    28  LYS28       0.2287
     74  O          5.8060   17.3750   29.6980 O.2    28  LYS28      -0.2864
     75  CB         3.9100   19.3530   29.1280 C.3    28  LYS28       0.0298
     76  CG         2.5590   18.6150   29.1050 C.3    28  LYS28       0.0038
     77  CD         1.6930   18.9470   27.8510 C.3    28  LYS28       0.0206
     78  CE         1.0910   20.3550   27.9290 C.3    28  LYS28       0.1093
     79  NZ         0.2030   20.5330   29.1310 N.3    28  LYS28      -0.1314
     80  N          6.9870   14.6430   31.0410 N.3    30  VAL30      -0.1245
     81  CA         6.5070   13.3100   30.7220 C.3    30  VAL30       0.1561
     82  C          6.6560   12.5010   32.0160 C.2    30  VAL30       0.2260
     83  O          5.7390   11.7960   32.4130 O.2    30  VAL30      -0.2867
     84  CB         7.3660   12.7400   29.5920 C.3    30  VAL30       0.0252
     85  CG1        7.3020   11.2300   29.4830 C.3    30  VAL30       0.0019
     86  CG2        6.9220   13.3450   28.3110 C.3    30  VAL30       0.0019
     87  N         11.6510   15.6160   33.9110 N.3    34  HIS34      -0.1241
     88  CA        11.8360   15.7560   32.4840 C.3    34  HIS34       0.1621
     89  C         12.2930   17.1890   32.1910 C.2    34  HIS34       0.2264
     90  O         11.5540   18.1050   32.4490 O.2    34  HIS34      -0.2867
     91  CB        10.5180   15.4430   31.7640 C.3    34  HIS34       0.0745
     92  CG        10.5740   15.6050   30.2770 C.ar   34  HIS34       0.0817
     93  ND1        9.4490   15.6880   29.4890 N.ar   34  HIS34      -0.2268
     94  CD2       11.6230   15.7360   29.4360 C.ar   34  HIS34       0.1154
     95  CE1        9.7920   15.8710   28.2310 C.ar   34  HIS34       0.1986
     96  NE2       11.1120   15.9000   28.1750 N.ar   34  HIS34      -0.2212
     97  N         14.8150   20.0090   29.5230 N.3    36  LEU36      -0.1245
     98  CA        15.3030   20.2140   28.1750 C.3    36  LEU36       0.1561
     99  C         16.6380   20.9810   28.2270 C.2    36  LEU36       0.2260
    100  O         16.8280   21.8410   29.0920 O.2    36  LEU36      -0.2867
    101  CB        14.2730   20.9990   27.3340 C.3    36  LEU36       0.0270
    102  CG        12.8690   20.4490   27.0750 C.3    36  LEU36       0.0019
    103  CD1       12.1290   21.4470   26.2340 C.3    36  LEU36       0.0001
    104  CD2       12.9880   19.1890   26.2710 C.3    36  LEU36       0.0001
    105  N         14.7140   14.6290   19.0570 N.3    81  GLN81      -0.1245
    106  CA        13.8340   14.3970   17.9060 C.3    81  GLN81       0.1566
    107  C         14.2390   15.4000   16.8170 C.2    81  GLN81       0.2260
    108  O         13.7410   16.5160   16.7930 O.2    81  GLN81      -0.2867
    109  CB        12.4100   14.6170   18.3430 C.3    81  GLN81       0.0367
    110  CG        12.0630   13.8340   19.6070 C.3    81  GLN81       0.0905
    111  CD        10.5680   13.7900   19.8630 C.2    81  GLN81       0.2608
    112  OE1        9.9080   12.8130   19.4980 O.2    81  GLN81      -0.2717
    113  NE2       10.0160   14.8360   20.5000 N.am   81  GLN81      -0.0878
    114  N          9.1260   13.9380   15.1350 N.3    87  GLY87      -0.1210
    115  CA         8.3060   14.4540   16.2350 C.3    87  GLY87       0.1956
    116  C          8.5680   15.8850   16.6960 C.2    87  GLY87       0.2612
    117  O          7.9280   16.3740   17.6100 O.2    87  GLY87      -0.2717
    118  N          9.4900   16.5690   16.0510 N.am   88  GLN88      -0.1965
    119  CA         9.8250   17.8950   16.4590 C.3    88  GLN88       0.1733
    120  C          8.6790   18.8480   16.2670 C.2    88  GLN88       0.2617
    121  O          8.2890   19.1050   15.1170 O.2    88  GLN88      -0.2715
    122  CB        11.0200   18.3850   15.6600 C.3    88  GLN88       0.0408
    123  CG        11.6530   19.6500   16.2080 C.3    88  GLN88       0.0908
    124  CD        12.7830   20.1410   15.3690 C.2    88  GLN88       0.2608
    125  OE1       12.7560   20.0250   14.1540 O.2    88  GLN88      -0.2717
    126  NE2       13.7720   20.7360   15.9980 N.am   88  GLN88      -0.0878
    127  N          8.1240   19.3460   17.3840 N.am   89  THR89      -0.1937
    128  CA         7.0300   20.3410   17.4000 C.3    89  THR89       0.2028
    129  C          7.7230   21.7290   17.4230 C.2    89  THR89       0.2642
    130  O          7.5880   22.5250   16.4690 O.2    89  THR89      -0.2714
    131  CB         6.0260   20.1850   18.6220 C.3    89  THR89       0.1808
    132  OG1        6.7230   20.2710   19.8800 O.3    89  THR89      -0.2208
    133  CG2        5.2960   18.8590   18.5590 C.3    89  THR89       0.0379
    134  N          8.4970   22.0200   18.4720 N.am   90  VAL90      -0.1977
    135  CA         9.1780   23.3050   18.5250 C.3    90  VAL90       0.1596
    136  C         10.4720   23.2210   17.7290 C.2    90  VAL90       0.2287
    137  O         11.2720   22.3100   17.9120 O.2    90  VAL90      -0.2864
    138  CB         9.3370   23.8090   19.9450 C.3    90  VAL90       0.0276
    139  CG1        9.6590   22.6530   20.8560 C.3    90  VAL90       0.0022
    140  CG2       10.3610   24.9320   19.9980 C.3    90  VAL90       0.0022
    141  N         16.9520   20.5780   20.6050 N.3    94  HIS94      -0.1241
    142  CA        16.9270   20.3740   22.0300 C.3    94  HIS94       0.1621
    143  C         16.9780   18.8930   22.3810 C.2    94  HIS94       0.2264
    144  O         16.4620   18.0640   21.6360 O.2    94  HIS94      -0.2867
    145  CB        15.7080   21.0620   22.6700 C.3    94  HIS94       0.0745
    146  CG        14.3770   20.5880   22.1640 C.ar   94  HIS94       0.0817
    147  ND1       13.9050   20.9130   20.9130 N.ar   94  HIS94      -0.2268
    148  CD2       13.3720   19.9360   22.7830 C.ar   94  HIS94       0.1154
    149  CE1       12.6600   20.5040   20.7920 C.ar   94  HIS94       0.1986
    150  NE2       12.3110   19.9100   21.9130 N.ar   94  HIS94      -0.2212
    151  N         15.9270   16.0470   25.2700 N.3    96  HIS96      -0.1241
    152  CA        15.0210   15.7650   26.3450 C.3    96  HIS96       0.1621
    153  C         15.8820   14.9350   27.2580 C.2    96  HIS96       0.2264
    154  O         16.5750   14.0890   26.7640 O.2    96  HIS96      -0.2867
    155  CB        13.8700   14.8760   25.8430 C.3    96  HIS96       0.0745
    156  CG        12.9630   15.5450   24.8550 C.ar   96  HIS96       0.0817
    157  ND1       11.8830   16.3250   25.2350 N.ar   96  HIS96      -0.2268
    158  CD2       12.9680   15.5510   23.5070 C.ar   96  HIS96       0.1154
    159  CE1       11.2650   16.7730   24.1590 C.ar   96  HIS96       0.1986
    160  NE2       11.9020   16.3190   23.1000 N.ar   96  HIS96      -0.2212
@<TRIPOS>BOND
     1   125   124    2
     2   121   120    2
     3   114   115    1
     4   124   126   am
     5   124   123    1
     6   122   123    1
     7   122   119    1
     8   118   119    1
     9   118   116   am
    10   115   116    1
    11   120   119    1
    12   120   127   am
    13   130   129    2
    14   116   117    2
    15   108   107    2
    16   107   106    1
    17   127   128    1
    18   128   129    1
    19   128   131    1
    20   129   134   am
    21   136   137    2
    22   136   135    1
    23   106   109    1
    24   106   105    1
    25   109   110    1
    26   134   135    1
    27   135   138    1
    28   133   131    1
    29   131   132    1
    30   112   111    2
    31   110   111    1
    32   111   113   am
    33   138   140    1
    34   138   139    1
    35   141   142    1
    36   149   147   ar
    37   149   150   ar
    38   147   146   ar
    39    12    13    1
    40     3     4    2
    41     3     2    1
    42    21    19   ar
    43    21    20   ar
    44   144   143    2
    45    19    17   ar
    46   150   148   ar
    47   142   143    1
    48   142   145    1
    49   146   145    1
    50   146   148   ar
    51     2     1    1
    52     2     5    1
    53    20    18   ar
    54    13    14    1
    55    13    16    1
    56     9     7   ar
    57     9    11   ar
    58    17    18   ar
    59    17    16    1
    60     7     6   ar
    61    15    14    2
    62   160   158   ar
    63   160   159   ar
    64    11    10   ar
    65   158   156   ar
    66     6     5    1
    67     6     8   ar
    68    10     8   ar
    69   159   157   ar
    70   156   157   ar
    71   156   155    1
    72   151   152    1
    73   155   152    1
    74   103   102    1
    75   104   102    1
    76   152   153    1
    77   154   153    2
    78    27    29    1
    79    27    26    1
    80    22    23    1
    81   102   101    1
    82   101    98    1
    83    77    78    1
    84    77    76    1
    85    44    42    1
    86    78    79    1
    87    26    23    1
    88    26    28    1
    89    98    99    1
    90    98    97    1
    91    96    95   ar
    92    96    94   ar
    93    99   100    2
    94    95    93   ar
    95    23    24    1
    96    86    84    1
    97    43    42    1
    98    58    57    2
    99    42    41    1
   100    76    75    1
   101    75    72    1
   102    25    24    2
   103    59    57   am
   104    94    92   ar
   105    85    84    1
   106    93    92   ar
   107    57    56    1
   108    84    81    1
   109    74    73    2
   110    41    38    1
   111    92    91    1
   112    64    65    1
   113    64    61    1
   114    65    66    1
   115    72    71    1
   116    72    73    1
   117    71    62   am
   118    37    38    1
   119    81    80    1
   120    81    82    1
   121    56    53    1
   122    60    61    1
   123    60    54   am
   124    53    54    1
   125    53    52    1
   126    48    47    2
   127    38    39    1
   128    61    62    1
   129    40    39    2
   130    62    63    2
   131    67    66    1
   132    67    68    2
   133    91    88    1
   134    54    55    2
   135    39    45   am
   136    82    83    2
   137    52    47   am
   138    47    46    1
   139    70    68    1
   140    89    90    2
   141    89    88    1
   142    36    34    1
   143    88    87    1
   144    68    69    1
   145    45    46    1
   146    46    49    1
   147    33    32    2
   148    34    35    1
   149    34    31    1
   150    32    31    1
   151    49    51    1
   152    49    50    1
   153    31    30    1
