@<TRIPOS>MOLECULE
tmp/5fiuC02.pdb
 99 101 0 0 0
SMALL
GASTEIGER

@<TRIPOS>ATOM
      1  N         38.5730   40.3670  -22.2420 N.3     9  ASP9       -0.1225
      2  CA        38.9650   39.9740  -23.5830 C.3     9  ASP9        0.1805
      3  C         40.1030   38.9420  -23.5540 C.2     9  ASP9        0.2597
      4  O         40.8290   38.7900  -24.5420 O.2     9  ASP9       -0.2718
      5  CB        39.3610   41.2170  -24.4000 C.3     9  ASP9        0.1424
      6  CG        40.6380   41.8740  -23.9090 C.2     9  ASP9        0.3668
      7  OD1       41.1300   41.5490  -22.8010 O.co2   9  ASP9       -0.2456
      8  OD2       41.1650   42.7180  -24.6630 O.co2   9  ASP9       -0.2456
      9  N         40.2520   38.2230  -22.4480 N.am   10  LEU10      -0.1979
     10  CA        41.4180   37.3550  -22.2570 C.3    10  LEU10       0.1596
     11  C         41.2540   35.9690  -22.8820 C.2    10  LEU10       0.2287
     12  O         42.2280   35.2240  -22.9760 O.2    10  LEU10      -0.2864
     13  CB        41.7450   37.2110  -20.7710 C.3    10  LEU10       0.0297
     14  CG        42.0710   38.4880  -20.0180 C.3    10  LEU10       0.0022
     15  CD1       42.1450   38.1900  -18.5350 C.3    10  LEU10       0.0001
     16  CD2       43.3750   39.0900  -20.5290 C.3    10  LEU10       0.0001
     17  N         39.0890   41.5980  -29.0610 N.3    42  PRO42      -0.2102
     18  CA        39.9860   42.4120  -28.2590 C.3    42  PRO42       0.1504
     19  C         39.9670   43.8710  -28.6630 C.2    42  PRO42       0.2575
     20  O         39.9350   44.1790  -29.8500 O.2    42  PRO42      -0.2718
     21  CB        41.3430   41.7980  -28.5410 C.3    42  PRO42       0.0282
     22  CG        41.0380   40.3760  -28.7760 C.3    42  PRO42       0.0208
     23  CD        39.7620   40.3810  -29.5510 C.3    42  PRO42       0.0893
     24  N         39.9430   44.7520  -27.6630 N.am   43  TRP43      -0.1977
     25  CA        40.0750   46.2030  -27.8330 C.3    43  TRP43       0.1640
     26  C         38.8130   46.8800  -28.3930 C.2    43  TRP43       0.2290
     27  O         38.8300   48.0720  -28.6360 O.2    43  TRP43      -0.2864
     28  CB        41.3330   46.5650  -28.6590 C.3    43  TRP43       0.0576
     29  CG        42.4800   45.6210  -28.3890 C.ar   43  TRP43       0.0006
     30  CD1       43.0080   45.3150  -27.1670 C.ar   43  TRP43       0.0946
     31  CD2       43.1870   44.8080  -29.3450 C.ar   43  TRP43       0.0152
     32  NE1       44.0040   44.3920  -27.2990 N.ar   43  TRP43      -0.2442
     33  CE2       44.1400   44.0540  -28.6190 C.ar   43  TRP43       0.0810
     34  CE3       43.1200   44.6540  -30.7390 C.ar   43  TRP43       0.0012
     35  CZ2       45.0090   43.1510  -29.2360 C.ar   43  TRP43       0.0191
     36  CZ3       43.9840   43.7520  -31.3530 C.ar   43  TRP43       0.0001
     37  CH2       44.9250   43.0190  -30.5990 C.ar   43  TRP43       0.0015
     38  N         42.0030   45.9990  -22.1080 N.3    70  TYR70      -0.1228
     39  CA        43.0140   46.9440  -21.5960 C.3    70  TYR70       0.1721
     40  C         44.1700   47.1950  -22.5700 C.2    70  TYR70       0.2437
     41  O         45.3340   46.9050  -22.2500 O.2    70  TYR70      -0.2733
     42  CB        43.5120   46.4500  -20.2180 C.3    70  TYR70       0.0547
     43  CG        43.5090   47.5170  -19.1470 C.ar   70  TYR70      -0.0200
     44  CD1       44.1940   48.7130  -19.3280 C.ar   70  TYR70      -0.0009
     45  CD2       42.8530   47.3160  -17.9310 C.ar   70  TYR70      -0.0009
     46  CE1       44.2100   49.6910  -18.3330 C.ar   70  TYR70       0.0417
     47  CE2       42.8490   48.2880  -16.9450 C.ar   70  TYR70       0.0417
     48  CZ        43.5320   49.4770  -17.1510 C.ar   70  TYR70       0.1957
     49  OH        43.5110   50.4310  -16.1610 O.3    70  TYR70      -0.2866
     50  N         43.8600   47.7360  -23.7660 N.am   71  PRO71      -0.2729
     51  CA        44.9410   47.9960  -24.7310 C.3    71  PRO71       0.1401
     52  C         45.9920   49.0100  -24.2590 C.2    71  PRO71       0.2269
     53  O         47.1020   49.0020  -24.7770 O.2    71  PRO71      -0.2865
     54  CB        44.1970   48.5260  -25.9650 C.3    71  PRO71       0.0296
     55  CG        42.8970   49.0290  -25.4520 C.3    71  PRO71       0.0237
     56  CD        42.5480   48.0870  -24.3330 C.3    71  PRO71       0.0939
     57  N         47.3690   48.8870  -21.4090 N.3    73  THR73      -0.1218
     58  CA        48.1090   48.2130  -20.3460 C.3    73  THR73       0.1862
     59  C         49.5770   48.6600  -20.3190 C.2    73  THR73       0.2287
     60  O         50.2070   48.8620  -21.3540 O.2    73  THR73      -0.2866
     61  CB        48.0030   46.6760  -20.4430 C.3    73  THR73       0.1770
     62  OG1       48.6230   46.0680  -19.3050 O.3    73  THR73      -0.2211
     63  CG2       48.6410   46.1240  -21.7370 C.3    73  THR73       0.0375
     64  N         52.1450   44.1550  -19.1720 N.3   148  THR148     -0.1203
     65  CA        51.2290   43.6590  -20.1910 C.3   148  THR148      0.1994
     66  C         50.0090   42.9540  -19.6170 C.2   148  THR148      0.2618
     67  O         49.3090   42.2610  -20.3600 O.2   148  THR148     -0.2717
     68  CB        51.9400   42.7180  -21.1840 C.3   148  THR148      0.1784
     69  OG1       52.4400   41.5660  -20.5020 O.3   148  THR148     -0.2211
     70  CG2       53.0970   43.4450  -21.8630 C.3   148  THR148      0.0376
     71  N         49.7210   43.1280  -18.3250 N.am  149  PHE149     -0.1961
     72  CA        48.5650   42.4450  -17.7540 C.3   149  PHE149      0.1771
     73  C         47.7310   43.3090  -16.8070 C.2   149  PHE149      0.2620
     74  O         47.2650   42.8280  -15.7720 O.2   149  PHE149     -0.2715
     75  CB        48.9900   41.1210  -17.0980 C.3   149  PHE149      0.0574
     76  CG        47.9490   40.0160  -17.1560 C.ar  149  PHE149     -0.0200
     77  CD1       46.5870   40.2550  -17.4410 C.ar  149  PHE149     -0.0042
     78  CD2       48.3350   38.7090  -16.8780 C.ar  149  PHE149     -0.0042
     79  CE1       45.6750   39.2140  -17.4870 C.ar  149  PHE149     -0.0003
     80  CE2       47.4070   37.6700  -16.9040 C.ar  149  PHE149     -0.0003
     81  CZ        46.0840   37.9150  -17.2160 C.ar  149  PHE149     -0.0000
     82  N         47.4420   44.5440  -17.2080 N.am  150  TYR150     -0.1960
     83  CA        46.5940   45.4190  -16.3830 C.3   150  TYR150      0.1771
     84  C         45.1630   44.8950  -16.1500 C.2   150  TYR150      0.2620
     85  O         44.5470   45.2820  -15.1750 O.2   150  TYR150     -0.2715
     86  CB        46.5230   46.8410  -16.9450 C.3   150  TYR150      0.0574
     87  CG        47.6680   47.7720  -16.5590 C.ar  150  TYR150     -0.0198
     88  CD1       48.9230   47.2800  -16.1820 C.ar  150  TYR150     -0.0009
     89  CD2       47.4990   49.1530  -16.6140 C.ar  150  TYR150     -0.0009
     90  CE1       49.9660   48.1400  -15.8330 C.ar  150  TYR150      0.0417
     91  CE2       48.5300   50.0250  -16.2610 C.ar  150  TYR150      0.0417
     92  CZ        49.7630   49.5140  -15.8880 C.ar  150  TYR150      0.1957
     93  OH        50.7830   50.3580  -15.5690 O.3   150  TYR150     -0.2866
     94  N         44.6290   44.0410  -17.0280 N.am  151  SER151     -0.1950
     95  CA        43.3130   43.4210  -16.7540 C.3   151  SER151      0.1924
     96  C         43.3240   42.6400  -15.4480 C.2   151  SER151      0.2314
     97  O         42.3330   42.6020  -14.7460 O.2   151  SER151     -0.2863
     98  CB        42.8560   42.5130  -17.8970 C.3   151  SER151      0.2116
     99  OG        42.5470   43.2870  -19.0420 O.3   151  SER151     -0.2180
@<TRIPOS>BOND
     1    36    34   ar
     2    36    37   ar
     3    34    31   ar
     4    37    35   ar
     5    20    19    2
     6    23    17    1
     7    23    22    1
     8    31    33   ar
     9    31    29   ar
    10    35    33   ar
    11    17    18    1
    12    22    21    1
    13    19    18    1
    14    19    24   am
    15    28    29    1
    16    28    25    1
    17    27    26    2
    18    33    32   ar
    19    21    18    1
    20    26    25    1
    21    29    30   ar
    22    25    24    1
    23    32    30   ar
    24    54    55    1
    25    54    51    1
    26    55    56    1
    27    53    52    2
    28    51    52    1
    29    51    50    1
    30     8     6   ar
    31     4     3    2
    32     5     6    1
    33     5     2    1
    34    56    50    1
    35     6     7   ar
    36    50    40   am
    37     2     3    1
    38     2     1    1
    39     3     9   am
    40    12    11    2
    41    11    10    1
    42    40    41    2
    43    40    39    1
    44     9    10    1
    45    10    13    1
    46    38    39    1
    47    70    68    1
    48    63    61    1
    49    39    42    1
    50    57    58    1
    51    60    59    2
    52    68    69    1
    53    68    65    1
    54    13    14    1
    55    16    14    1
    56    61    58    1
    57    61    62    1
    58    67    66    2
    59    58    59    1
    60    42    43    1
    61    65    66    1
    62    65    64    1
    63    14    15    1
    64    66    71   am
    65    44    43   ar
    66    44    46   ar
    67    43    45   ar
    68    99    98    1
    69    46    48   ar
    70    71    72    1
    71    45    47   ar
    72    98    95    1
    73    72    75    1
    74    72    73    1
    75    79    77   ar
    76    79    81   ar
    77    77    76   ar
    78    81    80   ar
    79    82    73   am
    80    82    83    1
    81    76    75    1
    82    76    78   ar
    83    48    47   ar
    84    48    49    1
    85    94    95    1
    86    94    84   am
    87    86    87    1
    88    86    83    1
    89    80    78   ar
    90    73    74    2
    91    95    96    1
    92    89    87   ar
    93    89    91   ar
    94    87    88   ar
    95    83    84    1
    96    91    92   ar
    97    88    90   ar
    98    84    85    2
    99    92    90   ar
   100    92    93    1
   101    96    97    2
