@<TRIPOS>MOLECULE
tmp/5fixB02.pdb
 157 153 0 0 0
SMALL
GASTEIGER

@<TRIPOS>ATOM
      1  N         -4.2320  -20.5280   14.4120 N.3    38  ASN38      -0.1225
      2  CA        -3.4930  -21.3590   13.4900 C.3    38  ASN38       0.1785
      3  C         -2.1570  -21.8200   14.1060 C.2    38  ASN38       0.2597
      4  O         -2.1870  -22.4780   15.1550 O.2    38  ASN38      -0.2718
      5  CB        -3.4500  -20.7940   12.0350 C.3    38  ASN38       0.1169
      6  CG        -2.8560  -19.3950   11.9110 C.2    38  ASN38       0.2627
      7  OD1       -3.4230  -18.4070   12.3790 O.2    38  ASN38      -0.2716
      8  ND2       -1.7480  -19.2970   11.1890 N.am   38  ASN38      -0.0877
      9  N         -1.0260  -21.4820   13.4990 N.am   39  ALA39      -0.1979
     10  CA         0.2620  -22.0710   13.8130 C.3    39  ALA39       0.1597
     11  C          0.6780  -21.9450   15.2850 C.2    39  ALA39       0.2287
     12  O          0.5680  -20.8660   15.8640 O.2    39  ALA39      -0.2864
     13  CB         1.3400  -21.4260   12.9540 C.3    39  ALA39       0.0319
     14  N         -0.6940  -18.5220   16.8710 N.3    56  GLN56      -0.1245
     15  CA        -1.3290  -17.4980   16.0410 C.3    56  GLN56       0.1566
     16  C         -2.8090  -17.4530   16.3940 C.2    56  GLN56       0.2260
     17  O         -3.4870  -18.4840   16.3660 O.2    56  GLN56      -0.2867
     18  CB        -1.1300  -17.8320   14.5560 C.3    56  GLN56       0.0367
     19  CG         0.3240  -17.7730   14.1070 C.3    56  GLN56       0.0905
     20  CD         0.7980  -16.3620   13.8650 C.2    56  GLN56       0.2608
     21  OE1        0.5990  -15.8160   12.7750 O.2    56  GLN56      -0.2717
     22  NE2        1.4310  -15.7540   14.8710 N.am   56  GLN56      -0.0878
     23  N         -8.7290  -15.5470    9.8890 N.3    64  TRP64      -0.1241
     24  CA        -7.4460  -14.9590   10.2220 C.3    64  TRP64       0.1605
     25  C         -7.4580  -13.4250   10.1410 C.2    64  TRP64       0.2264
     26  O         -8.1790  -12.8290    9.3330 O.2    64  TRP64      -0.2867
     27  CB        -6.4210  -15.5470    9.2540 C.3    64  TRP64       0.0550
     28  CG        -4.9870  -15.1570    9.3830 C.ar   64  TRP64       0.0003
     29  CD1       -3.9940  -15.8710   10.0080 C.ar   64  TRP64       0.0946
     30  CD2       -4.3490  -14.0450    8.7600 C.ar   64  TRP64       0.0152
     31  NE1       -2.7830  -15.2470    9.8430 N.ar   64  TRP64      -0.2442
     32  CE2       -2.9730  -14.1190    9.0830 C.ar   64  TRP64       0.0810
     33  CE3       -4.8070  -12.9730    7.9650 C.ar   64  TRP64       0.0012
     34  CZ2       -2.0610  -13.1610    8.6620 C.ar   64  TRP64       0.0191
     35  CZ3       -3.8920  -12.0190    7.5410 C.ar   64  TRP64       0.0001
     36  CH2       -2.5310  -12.1250    7.8830 C.ar   64  TRP64       0.0015
     37  N          3.4730  -12.4980   13.1460 N.3   104  PHE104     -0.1227
     38  CA         3.5060  -13.8410   12.5400 C.3   104  PHE104      0.1736
     39  C          4.3450  -14.7730   13.4330 C.2   104  PHE104      0.2595
     40  O          4.7080  -14.4010   14.5520 O.2   104  PHE104     -0.2718
     41  CB         4.0710  -13.7600   11.1000 C.3   104  PHE104      0.0547
     42  CG         3.0920  -13.2810   10.0420 C.ar  104  PHE104     -0.0202
     43  CD1        2.0370  -12.4080   10.3380 C.ar  104  PHE104     -0.0042
     44  CD2        3.2860  -13.6520    8.7050 C.ar  104  PHE104     -0.0042
     45  CE1        1.1800  -11.9550    9.3440 C.ar  104  PHE104     -0.0003
     46  CE2        2.4350  -13.1950    7.7070 C.ar  104  PHE104     -0.0003
     47  CZ         1.3770  -12.3490    8.0270 C.ar  104  PHE104     -0.0000
     48  N          4.6260  -15.9800   12.9400 N.am  105  ASP105     -0.1974
     49  CA         5.3620  -17.0040   13.6540 C.3   105  ASP105      0.1709
     50  C          6.7200  -16.5050   14.1310 C.2   105  ASP105      0.2293
     51  O          7.3530  -15.6550   13.5050 O.2   105  ASP105     -0.2864
     52  CB         5.5170  -18.2210   12.7320 C.3   105  ASP105      0.1436
     53  CG         6.0110  -19.4790   13.4310 C.2   105  ASP105      0.3671
     54  OD1        5.9560  -19.6100   14.6810 O.co2 105  ASP105     -0.2456
     55  OD2        6.4680  -20.3770   12.6760 O.co2 105  ASP105     -0.2456
     56  N          1.3410   -9.4590    0.2400 N.3   129  LEU129     -0.1231
     57  CA         2.0450  -10.4510    1.0350 C.3   129  LEU129      0.1693
     58  C          1.5070  -11.8100    0.6240 C.2   129  LEU129      0.2593
     59  O          0.3140  -12.0880    0.7720 O.2   129  LEU129     -0.2718
     60  CB         1.8180  -10.1950    2.5390 C.3   129  LEU129      0.0284
     61  CG         2.7360  -10.9050    3.5530 C.3   129  LEU129      0.0019
     62  CD1        2.5620  -10.2930    4.9510 C.3   129  LEU129      0.0001
     63  CD2        2.4890  -12.4080    3.6090 C.3   129  LEU129      0.0001
     64  N          2.3890  -12.6430    0.0780 N.am  130  GLY130     -0.1942
     65  CA         2.0120  -13.9980   -0.3100 C.3   130  GLY130      0.2014
     66  C          2.8680  -14.5550   -1.4230 C.2   130  GLY130      0.2638
     67  O          3.3860  -13.8080   -2.2560 O.2   130  GLY130     -0.2714
     68  N          2.9810  -15.8800   -1.4380 N.am  131  ALA131     -0.1977
     69  CA         3.8230  -16.5910   -2.3830 C.3   131  ALA131      0.1597
     70  C          3.3530  -16.4310   -3.8360 C.2   131  ALA131      0.2287
     71  O          4.1710  -16.5150   -4.7490 O.2   131  ALA131     -0.2864
     72  CB         3.8920  -18.0640   -2.0030 C.3   131  ALA131      0.0319
     73  N          9.7950  -15.3100    6.1450 N.3   179  ARG179     -0.1231
     74  CA         9.1640  -15.3930    7.4500 C.3   179  ARG179      0.1694
     75  C          9.4750  -16.6660    8.2310 C.2   179  ARG179      0.2592
     76  O         10.1500  -17.5800    7.7380 O.2   179  ARG179     -0.2718
     77  CB         7.6550  -15.2340    7.2930 C.3   179  ARG179      0.0321
     78  CG         6.9800  -16.2910    6.4470 C.3   179  ARG179      0.0489
     79  CD         5.4720  -16.1910    6.5730 C.3   179  ARG179      0.2205
     80  NE         4.7930  -16.9580    5.5310 N.pl3 179  ARG179     -0.0865
     81  CZ         4.6530  -16.5730    4.2570 C.cat 179  ARG179      0.5346
     82  NH1        5.1340  -15.4070    3.8400 N.pl3 179  ARG179      0.1354
     83  NH2        4.0120  -17.3580    3.3970 N.pl3 179  ARG179      0.1354
     84  N          8.9720  -16.6740    9.4650 N.am  180  ASP180     -0.1974
     85  CA         8.9960  -17.8170   10.3720 C.3   180  ASP180      0.1709
     86  C         10.4210  -18.1470   10.8380 C.2   180  ASP180      0.2293
     87  O         10.8990  -19.2650   10.6390 O.2   180  ASP180     -0.2864
     88  CB         8.3060  -19.0290    9.7460 C.3   180  ASP180      0.1436
     89  CG         6.9060  -18.7160    9.2460 C.2   180  ASP180      0.3671
     90  OD1        6.3260  -17.6910    9.6720 O.co2 180  ASP180     -0.2456
     91  OD2        6.3770  -19.5130    8.4270 O.co2 180  ASP180     -0.2456
     92  N          7.3800  -22.6540    4.5940 N.3   262  GLU262     -0.1231
     93  CA         6.8690  -21.9840    5.7730 C.3   262  GLU262      0.1699
     94  C          7.1950  -22.8120    7.0140 C.2   262  GLU262      0.2592
     95  O          7.4090  -24.0250    6.9260 O.2   262  GLU262     -0.2718
     96  CB         5.3590  -21.8010    5.6790 C.3   262  GLU262      0.0402
     97  CG         4.8860  -21.0140    4.4600 C.3   262  GLU262      0.1161
     98  CD         3.3800  -20.8660    4.4290 C.2   262  GLU262      0.3649
     99  OE1        2.6680  -21.8870    4.4720 O.co2 262  GLU262     -0.2457
    100  OE2        2.9050  -19.7280    4.3500 O.co2 262  GLU262     -0.2457
    101  N          7.2340  -22.1210    8.1560 N.am  263  THR263     -0.1953
    102  CA         7.4550  -22.7010    9.4800 C.3   263  THR263      0.1897
    103  C          8.5690  -23.7530    9.5340 C.2   263  THR263      0.2313
    104  O          8.4210  -24.7690   10.1920 O.2   263  THR263     -0.2863
    105  CB         6.1440  -23.2650   10.1040 C.3   263  THR263      0.1794
    106  OG1        5.7850  -24.5200    9.5000 O.3   263  THR263     -0.2208
    107  CG2        4.9900  -22.2830    9.9750 C.3   263  THR263      0.0378
    108  N          3.9650  -24.7230    0.2000 N.3   293  GLU293     -0.1245
    109  CA         2.7550  -24.1510   -0.3690 C.3   293  GLU293      0.1567
    110  C          2.6750  -24.3840   -1.8820 C.2   293  GLU293      0.2260
    111  O          3.6930  -24.3340   -2.5690 O.2   293  GLU293     -0.2867
    112  CB         2.7490  -22.6350   -0.1930 C.3   293  GLU293      0.0388
    113  CG         3.0650  -22.1100    1.1800 C.3   293  GLU293      0.1160
    114  CD         2.4920  -20.7170    1.3400 C.2   293  GLU293      0.3649
    115  OE1        1.2820  -20.6310    1.6600 O.co2 293  GLU293     -0.2457
    116  OE2        3.2560  -19.7400    1.1410 O.co2 293  GLU293     -0.2457
    117  N         -1.2160  -27.2960    1.1130 N.3   302  HIS302     -0.1241
    118  CA        -0.1700  -27.3300    2.1500 C.3   302  HIS302      0.1621
    119  C          0.2970  -28.7480    2.5040 C.2   302  HIS302      0.2264
    120  O         -0.5130  -29.5790    2.8970 O.2   302  HIS302     -0.2867
    121  CB        -0.7120  -26.6740    3.4260 C.3   302  HIS302      0.0745
    122  CG        -0.5890  -25.1820    3.4590 C.ar  302  HIS302      0.0817
    123  ND1       -1.4420  -24.3920    4.2020 N.ar  302  HIS302     -0.2268
    124  CD2        0.2870  -24.3350    2.8650 C.ar  302  HIS302      0.1154
    125  CE1       -1.1010  -23.1220    4.0570 C.ar  302  HIS302      0.1986
    126  NE2       -0.0530  -23.0610    3.2570 N.ar  302  HIS302     -0.2212
    127  N         -0.7590  -28.7640    9.6440 N.3   335  TYR335     -0.1227
    128  CA         0.2800  -27.9310    9.0510 C.3   335  TYR335      0.1736
    129  C          0.9650  -27.1240   10.1440 C.2   335  TYR335      0.2595
    130  O          0.5020  -27.1150   11.2810 O.2   335  TYR335     -0.2718
    131  CB        -0.3560  -26.9810    8.0330 C.3   335  TYR335      0.0548
    132  CG         0.6050  -26.2920    7.0920 C.ar  335  TYR335     -0.0200
    133  CD1        1.3850  -27.0250    6.2070 C.ar  335  TYR335     -0.0009
    134  CD2        0.7150  -24.8970    7.0630 C.ar  335  TYR335     -0.0009
    135  CE1        2.2550  -26.4000    5.3290 C.ar  335  TYR335      0.0417
    136  CE2        1.5760  -24.2600    6.1860 C.ar  335  TYR335      0.0417
    137  CZ         2.3470  -25.0160    5.3090 C.ar  335  TYR335      0.1957
    138  OH         3.2260  -24.4120    4.4290 O.3   335  TYR335     -0.2866
    139  N          2.0790  -26.4890    9.7960 N.am  336  ALA336     -0.1980
    140  CA         2.7430  -25.5120   10.6450 C.3   336  ALA336      0.1597
    141  C          3.3110  -26.1650   11.8840 C.2   336  ALA336      0.2287
    142  O          3.1030  -25.6940   12.9930 O.2   336  ALA336     -0.2864
    143  CB         1.8050  -24.3570   10.9950 C.3   336  ALA336      0.0319
    144  N         -0.7110  -27.7000   13.8590 N.3   352  TRP352     -0.1241
    145  CA        -2.0580  -27.1300   13.8680 C.3   352  TRP352      0.1605
    146  C         -2.9680  -27.9760   13.0010 C.2   352  TRP352      0.2264
    147  O         -2.6230  -28.2650   11.8650 O.2   352  TRP352     -0.2867
    148  CB        -1.9800  -25.6930   13.3330 C.3   352  TRP352      0.0550
    149  CG        -3.2280  -25.0970   12.7310 C.ar  352  TRP352      0.0003
    150  CD1       -4.4320  -24.8900   13.3430 C.ar  352  TRP352      0.0946
    151  CD2       -3.3610  -24.5740   11.4010 C.ar  352  TRP352      0.0152
    152  NE1       -5.3180  -24.2730   12.4670 N.ar  352  TRP352     -0.2442
    153  CE2       -4.6780  -24.0700   11.2720 C.ar  352  TRP352      0.0810
    154  CE3       -2.4980  -24.4870   10.3070 C.ar  352  TRP352      0.0012
    155  CZ2       -5.1420  -23.4760   10.0900 C.ar  352  TRP352      0.0191
    156  CZ3       -2.9700  -23.9110    9.1220 C.ar  352  TRP352      0.0001
    157  CH2       -4.2790  -23.4090    9.0280 C.ar  352  TRP352      0.0015
@<TRIPOS>BOND
     1    71    70    2
     2    70    69    1
     3   111   110    2
     4    69    72    1
     5    69    68    1
     6    67    66    2
     7   110   109    1
     8    68    66   am
     9    66    65    1
    10   109   112    1
    11   109   108    1
    12    65    64    1
    13   112   113    1
    14    64    58   am
    15    56    57    1
    16    58    59    2
    17    58    57    1
    18    57    60    1
    19   117   118    1
    20   116   114   ar
    21   113   114    1
    22   114   115   ar
    23   118   119    1
    24   118   121    1
    25   119   120    2
    26    60    61    1
    27   124   126   ar
    28   124   122   ar
    29   126   125   ar
    30    83    81    1
    31   121   122    1
    32   122   123   ar
    33    61    63    1
    34    61    62    1
    35    82    81    1
    36   125   123   ar
    37    81    80    2
    38   100    98   ar
    39    98    97    1
    40    98    99   ar
    41   138   137    1
    42    97    96    1
    43    92    93    1
    44   137   135   ar
    45   137   136   ar
    46   135   133   ar
    47    80    79    1
    48    96    93    1
    49    93    94    1
    50    73    74    1
    51   136   134   ar
    52   133   132   ar
    53    78    79    1
    54    78    77    1
    55    95    94    2
    56    94   101   am
    57   134   132   ar
    58   132   131    1
    59    77    74    1
    60    74    75    1
    61    35    36   ar
    62    35    33   ar
    63    46    47   ar
    64    46    44   ar
    65    76    75    2
    66    36    34   ar
    67    33    30   ar
    68    47    45   ar
    69   131   128    1
    70   101   102    1
    71    75    84   am
    72    91    89   ar
    73    34    32   ar
    74    44    42   ar
    75    30    32   ar
    76    30    28   ar
    77   157   156   ar
    78   157   155   ar
    79   128   127    1
    80   128   129    1
    81    32    31   ar
    82   156   154   ar
    83    89    90   ar
    84    89    88    1
    85    27    28    1
    86    27    24    1
    87    26    25    2
    88    45    43   ar
    89    28    29   ar
    90    84    85    1
    91   102   103    1
    92   102   105    1
    93   106   105    1
    94   103   104    2
    95    88    85    1
    96   139   129   am
    97   139   140    1
    98    31    29   ar
    99    23    24    1
   100   107   105    1
   101    42    43   ar
   102    42    41    1
   103   155   153   ar
   104    25    24    1
   105   129   130    2
   106   154   151   ar
   107    85    86    1
   108    87    86    2
   109   140   143    1
   110   140   141    1
   111    41    38    1
   112     8     6   am
   113   153   151   ar
   114   153   152   ar
   115   151   149   ar
   116   147   146    2
   117   141   142    2
   118     6     5    1
   119     6     7    2
   120     5     2    1
   121   152   150   ar
   122    38    37    1
   123    38    39    1
   124    55    53   ar
   125   149   148    1
   126   149   150   ar
   127    52    53    1
   128    52    49    1
   129    21    20    2
   130    48    39   am
   131    48    49    1
   132    13    10    1
   133   146   145    1
   134   148   145    1
   135    53    54   ar
   136    39    40    2
   137     2     3    1
   138     2     1    1
   139     9    10    1
   140     9     3   am
   141    51    50    2
   142    49    50    1
   143    10    11    1
   144   144   145    1
   145    20    19    1
   146    20    22   am
   147     3     4    2
   148    19    18    1
   149    18    15    1
   150    11    12    2
   151    15    16    1
   152    15    14    1
   153    17    16    2
