@<TRIPOS>MOLECULE
tmp/5fixB03.pdb
 94 92 0 0 0
SMALL
GASTEIGER

@<TRIPOS>ATOM
      1  N         10.5430  -24.5310   26.8640 N.3    45  GLN45      -0.1245
      2  CA        10.4680  -25.0170   28.2240 C.3    45  GLN45       0.1566
      3  C         11.0220  -23.9370   29.1380 C.2    45  GLN45       0.2260
      4  O         12.1810  -23.5040   28.9960 O.2    45  GLN45      -0.2867
      5  CB        11.2590  -26.3060   28.3890 C.3    45  GLN45       0.0367
      6  CG        11.1660  -26.9060   29.7770 C.3    45  GLN45       0.0905
      7  CD        11.6870  -28.3130   29.8220 C.2    45  GLN45       0.2608
      8  OE1       12.6500  -28.6450   29.1400 O.2    45  GLN45      -0.2717
      9  NE2       11.0640  -29.1480   30.6350 N.am   45  GLN45      -0.0878
     10  N         16.4190  -18.7370   24.3550 N.3   110  LYS110     -0.1245
     11  CA        16.1710  -18.9200   25.7880 C.3   110  LYS110      0.1561
     12  C         16.9610  -17.9800   26.6810 C.2   110  LYS110      0.2260
     13  O         16.4180  -17.4770   27.6600 O.2   110  LYS110     -0.2867
     14  CB        16.3320  -20.3880   26.1840 C.3   110  LYS110      0.0271
     15  CG        15.2090  -21.2010   25.5580 C.3   110  LYS110      0.0035
     16  CD        15.4030  -22.6910   25.6840 C.3   110  LYS110      0.0206
     17  CE        14.8250  -23.2180   26.9630 C.3   110  LYS110      0.1093
     18  NZ        14.9560  -24.6930   26.9380 N.3   110  LYS110     -0.1314
     19  N         20.4940  -23.5040   18.5680 N.3   185  GLN185     -0.1245
     20  CA        21.9080  -23.7380   18.8110 C.3   185  GLN185      0.1566
     21  C         22.2760  -25.0300   18.1140 C.2   185  GLN185      0.2260
     22  O         21.4320  -25.9160   17.9490 O.2   185  GLN185     -0.2867
     23  CB        22.1820  -23.8240   20.3100 C.3   185  GLN185      0.0367
     24  CG        21.8620  -22.5210   21.0150 C.3   185  GLN185      0.0905
     25  CD        22.1900  -22.5580   22.4830 C.2   185  GLN185      0.2608
     26  OE1       21.6810  -23.3910   23.2170 O.2   185  GLN185     -0.2717
     27  NE2       23.0460  -21.6560   22.9170 N.am  185  GLN185     -0.0878
     28  N         26.0060  -27.2000   18.0150 N.3   187  PRO187     -0.2116
     29  CA        27.4110  -27.6340   18.0210 C.3   187  PRO187      0.1372
     30  C         27.8510  -28.2530   16.6790 C.2   187  PRO187      0.2244
     31  O         28.9640  -28.0180   16.2290 O.2   187  PRO187     -0.2868
     32  CB        27.4400  -28.6600   19.1480 C.3   187  PRO187      0.0268
     33  CG        26.4010  -28.1640   20.1030 C.3   187  PRO187      0.0207
     34  CD        25.2950  -27.6540   19.2260 C.3   187  PRO187      0.0892
     35  N         22.8270  -33.5100   20.7520 N.3   276  TRP276     -0.1241
     36  CA        23.5330  -32.2290   20.8430 C.3   276  TRP276      0.1605
     37  C         25.0490  -32.3560   20.6420 C.2   276  TRP276      0.2264
     38  O         25.8120  -31.5010   21.0920 O.2   276  TRP276     -0.2867
     39  CB        23.1980  -31.5490   22.1860 C.3   276  TRP276      0.0550
     40  CG        21.7380  -31.2500   22.2950 C.ar  276  TRP276      0.0003
     41  CD1       20.8130  -31.9400   23.0140 C.ar  276  TRP276      0.0946
     42  CD2       21.0290  -30.2100   21.6180 C.ar  276  TRP276      0.0152
     43  NE1       19.5660  -31.3790   22.8550 N.ar  276  TRP276     -0.2442
     44  CE2       19.6690  -30.3170   21.9960 C.ar  276  TRP276      0.0810
     45  CE3       21.4100  -29.1870   20.7330 C.ar  276  TRP276      0.0012
     46  CZ2       18.6860  -29.4420   21.5190 C.ar  276  TRP276      0.0191
     47  CZ3       20.4270  -28.3070   20.2650 C.ar  276  TRP276      0.0001
     48  CH2       19.0800  -28.4460   20.6620 C.ar  276  TRP276      0.0015
     49  N         13.3590  -27.8530   21.9630 N.3   341  PRO341     -0.2102
     50  CA        14.0660  -28.7670   22.8520 C.3   341  PRO341      0.1504
     51  C         13.4270  -28.8580   24.2220 C.2   341  PRO341      0.2576
     52  O         12.8980  -27.8640   24.7220 O.2   341  PRO341     -0.2718
     53  CB        15.4650  -28.1680   22.9460 C.3   341  PRO341      0.0282
     54  CG        15.3000  -26.7310   22.6070 C.3   341  PRO341      0.0208
     55  CD        14.1370  -26.6440   21.6610 C.3   341  PRO341      0.0893
     56  N         13.4510  -30.0550   24.7910 N.am  342  VAL342     -0.1966
     57  CA        12.9000  -30.3320   26.1090 C.3   342  VAL342      0.1727
     58  C         13.9480  -31.1170   26.8910 C.2   342  VAL342      0.2616
     59  O         14.6310  -31.9850   26.3210 O.2   342  VAL342     -0.2715
     60  CB        11.5780  -31.1110   25.9960 C.3   342  VAL342      0.0290
     61  CG1       11.1340  -31.6600   27.3430 C.3   342  VAL342      0.0023
     62  CG2       10.5050  -30.2090   25.3950 C.3   342  VAL342      0.0023
     63  N         14.0680  -30.8290   28.1870 N.am  343  GLU343     -0.1977
     64  CA        15.1340  -31.4180   28.9930 C.3   343  GLU343      0.1602
     65  C         15.0260  -32.9340   28.9970 C.2   343  GLU343      0.2287
     66  O         13.9300  -33.4910   28.8630 O.2   343  GLU343     -0.2864
     67  CB        15.1260  -30.8770   30.4270 C.3   343  GLU343      0.0415
     68  CG        14.0430  -31.4800   31.3150 C.3   343  GLU343      0.1163
     69  CD        13.8950  -30.7620   32.6510 C.2   343  GLU343      0.3649
     70  OE1       14.7210  -29.8710   32.9620 O.co2 343  GLU343     -0.2457
     71  OE2       12.9410  -31.1020   33.3890 O.co2 343  GLU343     -0.2457
     72  N         17.1610  -34.6010   26.8050 N.3   345  TYR345     -0.1227
     73  CA        17.5660  -34.9200   25.4380 C.3   345  TYR345      0.1736
     74  C         16.3650  -35.2560   24.5510 C.2   345  TYR345      0.2595
     75  O         16.3310  -36.2860   23.8860 O.2   345  TYR345     -0.2718
     76  CB        18.6440  -36.0270   25.4430 C.3   345  TYR345      0.0548
     77  CG        19.9580  -35.5270   26.0050 C.ar  345  TYR345     -0.0200
     78  CD1       20.2150  -35.5560   27.3760 C.ar  345  TYR345     -0.0009
     79  CD2       20.9290  -34.9860   25.1630 C.ar  345  TYR345     -0.0009
     80  CE1       21.4110  -35.0740   27.8880 C.ar  345  TYR345      0.0417
     81  CE2       22.1270  -34.4960   25.6650 C.ar  345  TYR345      0.0417
     82  CZ        22.3630  -34.5420   27.0250 C.ar  345  TYR345      0.1957
     83  OH        23.5550  -34.0630   27.5180 O.3   345  TYR345     -0.2866
     84  N         15.3710  -34.3700   24.5660 N.am  346  ARG346     -0.1980
     85  CA        14.1600  -34.5340   23.7690 C.3   346  ARG346      0.1597
     86  C         13.9960  -33.3720   22.8240 C.2   346  ARG346      0.2287
     87  O         14.4610  -32.2700   23.1020 O.2   346  ARG346     -0.2864
     88  CB        12.9400  -34.6160   24.6660 C.3   346  ARG346      0.0334
     89  CG        12.8830  -35.8580   25.5330 C.3   346  ARG346      0.0492
     90  CD        11.8390  -35.6870   26.6260 C.3   346  ARG346      0.2205
     91  NE        10.4760  -35.7890   26.1190 N.pl3 346  ARG346     -0.0865
     92  CZ         9.3880  -35.6740   26.8710 C.cat 346  ARG346      0.5346
     93  NH1        9.4900  -35.4240   28.1770 N.pl3 346  ARG346      0.1354
     94  NH2        8.1890  -35.8290   26.3270 N.pl3 346  ARG346      0.1354
@<TRIPOS>BOND
     1    31    30    2
     2    30    29    1
     3    22    21    2
     4    28    29    1
     5    28    34    1
     6    29    32    1
     7    21    20    1
     8    19    20    1
     9    20    23    1
    10    32    33    1
    11    34    33    1
    12    47    48   ar
    13    47    45   ar
    14    23    24    1
    15    37    36    1
    16    37    38    2
    17    48    46   ar
    18    45    42   ar
    19    35    36    1
    20    36    39    1
    21    24    25    1
    22    46    44   ar
    23    42    44   ar
    24    42    40   ar
    25    55    49    1
    26    55    54    1
    27    49    50    1
    28    44    43   ar
    29    39    40    1
    30    40    41   ar
    31    25    27   am
    32    25    26    2
    33    54    53    1
    34    86    87    2
    35    86    85    1
    36    50    53    1
    37    50    51    1
    38    43    41   ar
    39    85    84    1
    40    85    88    1
    41    75    74    2
    42    51    52    2
    43    51    56   am
    44    10    11    1
    45    74    84   am
    46    74    73    1
    47    88    89    1
    48    56    57    1
    49    79    81   ar
    50    79    77   ar
    51    62    60    1
    52    73    76    1
    53    73    72    1
    54    76    77    1
    55    89    90    1
    56    15    16    1
    57    15    14    1
    58    81    82   ar
    59    16    17    1
    60    11    14    1
    61    11    12    1
    62    60    57    1
    63    60    61    1
    64    77    78   ar
    65    57    58    1
    66    91    90    1
    67    91    92    2
    68    59    58    2
    69    94    92    1
    70    12    13    2
    71     1     2    1
    72    92    93    1
    73    58    63   am
    74    18    17    1
    75    82    83    1
    76    82    80   ar
    77    78    80   ar
    78    63    64    1
    79     2     5    1
    80     2     3    1
    81     5     6    1
    82    66    65    2
    83    64    65    1
    84    64    67    1
    85     4     3    2
    86     8     7    2
    87     6     7    1
    88     7     9   am
    89    67    68    1
    90    68    69    1
    91    69    70   ar
    92    69    71   ar
