@<TRIPOS>MOLECULE
tmp/5fj3B03.pdb
 150 147 0 0 0
SMALL
GASTEIGER

@<TRIPOS>ATOM
      1  N          6.1620   -2.0000   55.3350 N.3    38  VAL38      -0.1231
      2  CA         5.6520   -1.5000   56.6130 C.3    38  VAL38       0.1692
      3  C          6.3130   -2.2010   57.8210 C.2    38  VAL38       0.2591
      4  O          6.8990   -1.5530   58.6920 O.2    38  VAL38      -0.2718
      5  CB         4.1100   -1.6320   56.6810 C.3    38  VAL38       0.0266
      6  CG1        3.6020   -1.3090   58.0840 C.3    38  VAL38       0.0020
      7  CG2        3.4460   -0.7220   55.6520 C.3    38  VAL38       0.0020
      8  N          6.2140   -3.5270   57.8540 N.am   39  LEU39      -0.1980
      9  CA         6.7900   -4.3430   58.9230 C.3    39  LEU39       0.1596
     10  C          8.0410   -5.1070   58.4670 C.2    39  LEU39       0.2287
     11  O          8.2030   -5.3950   57.2720 O.2    39  LEU39      -0.2864
     12  CB         5.7550   -5.3640   59.4240 C.3    39  LEU39       0.0297
     13  CG         4.3800   -4.8240   59.7970 C.3    39  LEU39       0.0022
     14  CD1        3.4350   -5.9830   60.0820 C.3    39  LEU39       0.0001
     15  CD2        4.4810   -3.8780   60.9950 C.3    39  LEU39       0.0001
     16  N          8.0790    9.1670   62.9040 N.3   107  CYS107     -0.1235
     17  CA         7.2880   10.1640   63.6390 C.3   107  CYS107      0.1677
     18  C          7.5720   11.5960   63.1780 C.2   107  CYS107      0.2270
     19  O          8.7020   12.0900   63.2960 O.2   107  CYS107     -0.2867
     20  CB         7.5430   10.0470   65.1510 C.3   107  CYS107      0.0956
     21  SG         6.5080   11.1510   66.2070 S.3   107  CYS107     -0.0801
     22  N         -4.5700   -2.3070   69.8870 N.3   169  SER169     -0.1202
     23  CA        -3.5130   -1.5760   69.2030 C.3   169  SER169      0.2020
     24  C         -3.4270   -0.1290   69.7040 C.2   169  SER169      0.2618
     25  O         -2.3460    0.4650   69.7460 O.2   169  SER169     -0.2717
     26  CB        -3.6810   -1.6540   67.6770 C.3   169  SER169      0.2103
     27  OG        -4.9140   -1.0950   67.2690 O.3   169  SER169     -0.2182
     28  N         -4.5590    0.4440   70.0960 N.am  170  GLN170     -0.1979
     29  CA        -4.5370    1.7760   70.7040 C.3   170  GLN170      0.1601
     30  C         -5.4190    1.7500   71.9210 C.2   170  GLN170      0.2287
     31  O         -6.3120    0.8960   72.0100 O.2   170  GLN170     -0.2864
     32  CB        -5.0330    2.8580   69.7280 C.3   170  GLN170      0.0394
     33  CG        -4.0690    3.2090   68.6010 C.3   170  GLN170      0.0908
     34  CD        -4.6270    4.2900   67.6650 C.2   170  GLN170      0.2608
     35  OE1       -5.5400    5.0490   68.0290 O.2   170  GLN170     -0.2717
     36  NE2       -4.0810    4.3530   66.4500 N.am  170  GLN170     -0.0878
     37  N         -4.6820    9.8650   70.5820 N.3   257  PRO257     -0.2116
     38  CA        -4.0480    8.7710   69.8440 C.3   257  PRO257      0.1372
     39  C         -3.0280    8.0970   70.7580 C.2   257  PRO257      0.2244
     40  O         -1.9370    8.6160   70.9540 O.2   257  PRO257     -0.2868
     41  CB        -3.3530    9.4950   68.6740 C.3   257  PRO257      0.0268
     42  CG        -3.0370   10.9040   69.2330 C.3   257  PRO257      0.0207
     43  CD        -3.9410   11.1350   70.4570 C.3   257  PRO257      0.0892
     44  N         -0.9850    4.7480   71.2970 N.3   259  VAL259     -0.1245
     45  CA        -0.5690    3.4810   70.7160 C.3   259  VAL259      0.1561
     46  C         -0.0690    2.5250   71.7970 C.2   259  VAL259      0.2260
     47  O          0.7270    2.9160   72.6620 O.2   259  VAL259     -0.2867
     48  CB         0.4950    3.7210   69.6450 C.3   259  VAL259      0.0252
     49  CG1        1.1000    2.4120   69.1710 C.3   259  VAL259      0.0019
     50  CG2       -0.1440    4.4740   68.4690 C.3   259  VAL259      0.0019
     51  N          0.4980   -1.2030   71.2220 N.3   261  ASN261     -0.1225
     52  CA         0.9440   -2.5100   70.7530 C.3   261  ASN261      0.1785
     53  C          2.4360   -2.5450   70.4630 C.2   261  ASN261      0.2597
     54  O          2.9610   -3.5570   69.9970 O.2   261  ASN261     -0.2718
     55  CB         0.1520   -2.9620   69.5110 C.3   261  ASN261      0.1169
     56  CG         0.2780   -1.9940   68.3250 C.2   261  ASN261      0.2627
     57  OD1        0.9580   -0.9600   68.3940 O.2   261  ASN261     -0.2716
     58  ND2       -0.3750   -2.3470   67.2170 N.am  261  ASN261     -0.0877
     59  N          3.1330   -1.4470   70.7300 N.am  262  MET262     -0.1979
     60  CA         4.5380   -1.4090   70.3610 C.3   262  MET262      0.1605
     61  C          5.4030   -1.8090   71.5330 C.2   262  MET262      0.2287
     62  O          4.9770   -1.7550   72.6830 O.2   262  MET262     -0.2864
     63  CB         4.9510   -0.0460   69.7750 C.3   262  MET262      0.0413
     64  CG         4.4350    0.1820   68.3270 C.3   262  MET262      0.0598
     65  SD         5.2170    1.5950   67.5070 S.3   262  MET262     -0.1393
     66  CE         6.5950    0.7660   66.7210 C.3   262  MET262      0.0692
     67  N          1.9000    4.7570   74.6420 N.3   276  PHE276     -0.1241
     68  CA         2.2890    6.1560   74.5950 C.3   276  PHE276      0.1605
     69  C          1.2830    6.9510   73.7650 C.2   276  PHE276      0.2264
     70  O          0.6450    6.4100   72.8560 O.2   276  PHE276     -0.2867
     71  CB         3.7040    6.2960   74.0270 C.3   276  PHE276      0.0534
     72  CG         3.8870    5.6390   72.6790 C.ar  276  PHE276     -0.0203
     73  CD1        3.5670    6.3170   71.5040 C.ar  276  PHE276     -0.0042
     74  CD2        4.3750    4.3500   72.5870 C.ar  276  PHE276     -0.0042
     75  CE1        3.7460    5.7100   70.2560 C.ar  276  PHE276     -0.0003
     76  CE2        4.5510    3.7360   71.3430 C.ar  276  PHE276     -0.0003
     77  CZ         4.2370    4.4140   70.1770 C.ar  276  PHE276     -0.0000
     78  N          0.3730   11.0940   72.1030 N.3   278  GLY278     -0.1210
     79  CA         0.7330   12.4790   71.8740 C.3   278  GLY278      0.1956
     80  C         -0.5430   13.2140   71.5530 C.2   278  GLY278      0.2612
     81  O         -1.5100   13.1780   72.3260 O.2   278  GLY278     -0.2717
     82  N         -0.5560   13.8670   70.3990 N.am  279  TRP279     -0.1962
     83  CA        -1.7900   14.4120   69.8720 C.3   279  TRP279      0.1771
     84  C         -1.8460   14.1340   68.3690 C.2   279  TRP279      0.2620
     85  O         -0.8400   13.7460   67.7780 O.2   279  TRP279     -0.2715
     86  CB        -1.9390   15.9000   70.2260 C.3   279  TRP279      0.0590
     87  CG        -0.7840   16.7690   69.8350 C.ar  279  TRP279      0.0006
     88  CD1       -0.5040   17.2330   68.5850 C.ar  279  TRP279      0.0946
     89  CD2        0.2170   17.3240   70.7030 C.ar  279  TRP279      0.0152
     90  NE1        0.6160   18.0360   68.6150 N.ar  279  TRP279     -0.2442
     91  CE2        1.0810   18.1050   69.9010 C.ar  279  TRP279      0.0810
     92  CE3        0.4710   17.2340   72.0770 C.ar  279  TRP279      0.0012
     93  CZ2        2.1860   18.7890   70.4280 C.ar  279  TRP279      0.0191
     94  CZ3        1.5590   17.9110   72.6000 C.ar  279  TRP279      0.0001
     95  CH2        2.4050   18.6810   71.7790 C.ar  279  TRP279      0.0015
     96  N         -3.0150   14.3160   67.7640 N.am  280  TYR280     -0.1960
     97  CA        -3.2060   13.9430   66.3750 C.3   280  TYR280      0.1771
     98  C         -2.6660   15.0020   65.4210 C.2   280  TYR280      0.2619
     99  O         -2.7310   16.2040   65.7030 O.2   280  TYR280     -0.2715
    100  CB        -4.6950   13.7460   66.0720 C.3   280  TYR280      0.0574
    101  CG        -5.2070   12.3320   66.2080 C.ar  280  TYR280     -0.0198
    102  CD1       -4.7460   11.3250   65.3730 C.ar  280  TYR280     -0.0009
    103  CD2       -6.1830   12.0150   67.1440 C.ar  280  TYR280     -0.0009
    104  CE1       -5.2210   10.0390   65.4790 C.ar  280  TYR280      0.0417
    105  CE2       -6.6740   10.7270   67.2590 C.ar  280  TYR280      0.0417
    106  CZ        -6.1870    9.7450   66.4280 C.ar  280  TYR280      0.1957
    107  OH        -6.6650    8.4590   66.5380 O.3   280  TYR280     -0.2866
    108  N         -2.1330   14.5400   64.2940 N.am  281  MET281     -0.1977
    109  CA        -2.0320   15.3710   63.1090 C.3   281  MET281      0.1605
    110  C         -3.3320   15.1440   62.3560 C.2   281  MET281      0.2287
    111  O         -3.7710   14.0010   62.2100 O.2   281  MET281     -0.2864
    112  CB        -0.8570   14.9540   62.2320 C.3   281  MET281      0.0413
    113  CG        -0.6600   15.9010   61.0510 C.3   281  MET281      0.0598
    114  SD         0.9210   15.6130   60.2380 S.3   281  MET281     -0.1393
    115  CE         0.5820   14.0080   59.4750 C.3   281  MET281      0.0692
    116  N         -4.3380   12.1510   59.8380 N.3   284  GLU284     -0.1245
    117  CA        -4.4910   10.7850   60.3440 C.3   284  GLU284      0.1567
    118  C         -5.9510   10.4020   60.4240 C.2   284  GLU284      0.2260
    119  O         -6.3490    9.3130   59.9830 O.2   284  GLU284     -0.2867
    120  CB        -3.8820   10.6500   61.7350 C.3   284  GLU284      0.0388
    121  CG        -2.3880   10.8580   61.7910 C.3   284  GLU284      0.1160
    122  CD        -1.8630   10.7350   63.2180 C.2   284  GLU284      0.3649
    123  OE1       -1.8200    9.5910   63.7180 O.co2 284  GLU284     -0.2457
    124  OE2       -1.5250   11.7740   63.8390 O.co2 284  GLU284     -0.2457
    125  N          6.7960    7.8530   55.4120 N.3   369  TRP369     -0.1241
    126  CA         5.9190    8.0670   56.5660 C.3   369  TRP369      0.1605
    127  C          5.8600    9.5300   57.0000 C.2   369  TRP369      0.2264
    128  O          4.8140    9.9890   57.4710 O.2   369  TRP369     -0.2867
    129  CB         6.3430    7.1800   57.7500 C.3   369  TRP369      0.0550
    130  CG         5.8240    5.7690   57.6310 C.ar  369  TRP369      0.0003
    131  CD1        6.1420    4.8570   56.6700 C.ar  369  TRP369      0.0946
    132  CD2        4.8850    5.1260   58.5040 C.ar  369  TRP369      0.0152
    133  NE1        5.4600    3.6840   56.8850 N.ar  369  TRP369     -0.2442
    134  CE2        4.6810    3.8190   58.0060 C.ar  369  TRP369      0.0810
    135  CE3        4.2100    5.5230   59.6700 C.ar  369  TRP369      0.0012
    136  CZ2        3.8220    2.8990   58.6300 C.ar  369  TRP369      0.0191
    137  CZ3        3.3510    4.6070   60.2940 C.ar  369  TRP369      0.0001
    138  CH2        3.1680    3.3080   59.7680 C.ar  369  TRP369      0.0015
    139  N          7.9070   -3.0090   66.4560 N.3   397  TYR397     -0.1241
    140  CA         6.7050   -3.8090   66.3690 C.3   397  TYR397      0.1605
    141  C          6.9520   -5.1460   67.0430 C.2   397  TYR397      0.2264
    142  O          8.1030   -5.5580   67.2330 O.2   397  TYR397     -0.2867
    143  CB         6.3550   -4.0580   64.9100 C.3   397  TYR397      0.0534
    144  CG         6.1520   -2.7970   64.1390 C.ar  397  TYR397     -0.0201
    145  CD1        4.9700   -2.0870   64.2460 C.ar  397  TYR397     -0.0009
    146  CD2        7.1440   -2.3090   63.3090 C.ar  397  TYR397     -0.0009
    147  CE1        4.7740   -0.9220   63.5390 C.ar  397  TYR397      0.0417
    148  CE2        6.9570   -1.1530   62.5850 C.ar  397  TYR397      0.0417
    149  CZ         5.7690   -0.4620   62.7030 C.ar  397  TYR397      0.1957
    150  OH         5.5810    0.6920   61.9760 O.3   397  TYR397     -0.2866
@<TRIPOS>BOND
     1     1     2    1
     2   125   126    1
     3     7     5    1
     4   126   127    1
     5   126   129    1
     6     2     5    1
     7     2     3    1
     8   131   133   ar
     9   131   130   ar
    10     5     6    1
    11   133   134   ar
    12   127   128    2
    13    11    10    2
    14   130   129    1
    15   130   132   ar
    16     3     8   am
    17     3     4    2
    18     8     9    1
    19   134   132   ar
    20   134   136   ar
    21    10     9    1
    22   132   135   ar
    23   136   138   ar
    24     9    12    1
    25    12    13    1
    26   115   114    1
    27   135   137   ar
    28   138   137   ar
    29    13    14    1
    30    13    15    1
    31   116   117    1
    32   119   118    2
    33   114   113    1
    34   117   118    1
    35   117   120    1
    36   113   112    1
    37   120   121    1
    38   121   122    1
    39   150   149    1
    40   111   110    2
    41   112   109    1
    42   110   109    1
    43   148   149   ar
    44   148   146   ar
    45   149   147   ar
    46    16    17    1
    47   109   108    1
    48    18    19    2
    49    18    17    1
    50   122   123   ar
    51   122   124   ar
    52   146   144   ar
    53   147   145   ar
    54    17    20    1
    55   144   145   ar
    56   144   143    1
    57   108    98   am
    58   143   140    1
    59    20    21    1
    60   102   104   ar
    61   102   101   ar
    62    98    99    2
    63    98    97    1
    64   104   106   ar
    65   100   101    1
    66   100    97    1
    67   101   103   ar
    68   140   139    1
    69   140   141    1
    70    97    96    1
    71   106   107    1
    72   106   105   ar
    73    36    34   am
    74    66    65    1
    75   141   142    2
    76   103   105   ar
    77    58    56   am
    78    27    26    1
    79    65    64    1
    80    34    35    2
    81    34    33    1
    82    26    23    1
    83    96    84   am
    84    85    84    2
    85    56    57    2
    86    56    55    1
    87    64    63    1
    88    84    83    1
    89    50    48    1
    90    88    90   ar
    91    88    87   ar
    92    33    32    1
    93    90    91   ar
    94    41    42    1
    95    41    38    1
    96    49    48    1
    97    23    24    1
    98    23    22    1
    99    42    43    1
   100    55    52    1
   101    48    45    1
   102    24    25    2
   103    24    28   am
   104    32    29    1
   105    63    60    1
   106    87    86    1
   107    87    89   ar
   108    38    37    1
   109    38    39    1
   110    83    86    1
   111    83    82    1
   112    91    93   ar
   113    91    89   ar
   114    54    53    2
   115    28    29    1
   116    77    75   ar
   117    77    76   ar
   118    75    73   ar
   119    60    59    1
   120    60    61    1
   121    82    80   am
   122    93    95   ar
   123    43    37    1
   124    53    59   am
   125    53    52    1
   126    89    92   ar
   127    29    30    1
   128    45    44    1
   129    45    46    1
   130    52    51    1
   131    39    40    2
   132    76    74   ar
   133    73    72   ar
   134    61    62    2
   135    80    79    1
   136    80    81    2
   137    95    94   ar
   138    46    47    2
   139    79    78    1
   140    30    31    2
   141    92    94   ar
   142    74    72   ar
   143    72    71    1
   144    70    69    2
   145    69    68    1
   146    71    68    1
   147    68    67    1
