@<TRIPOS>MOLECULE
tmp/5fjiB00.pdb
 205 199 0 0 0
SMALL
GASTEIGER

@<TRIPOS>ATOM
      1  N        -45.0830   63.8400  -26.6220 N.3    35  THR35      -0.1218
      2  CA       -45.6570   65.1460  -26.4400 C.3    35  THR35       0.1862
      3  C        -44.5560   66.1490  -26.0640 C.2    35  THR35       0.2287
      4  O        -43.3890   65.7680  -25.7700 O.2    35  THR35      -0.2866
      5  CB       -46.6890   65.1790  -25.2940 C.3    35  THR35       0.1770
      6  OG1      -46.0380   65.0280  -24.0230 O.3    35  THR35      -0.2211
      7  CG2      -47.8030   64.1340  -25.4750 C.3    35  THR35       0.0375
      8  N        -44.2320   67.9430  -23.3040 N.3    37  ALA37      -0.1231
      9  CA       -43.7160   67.7910  -21.9200 C.3    37  ALA37       0.1694
     10  C        -42.7920   66.6290  -21.8010 C.2    37  ALA37       0.2591
     11  O        -41.8680   66.6470  -20.9890 O.2    37  ALA37      -0.2718
     12  CB       -44.8820   67.6210  -20.9720 C.3    37  ALA37       0.0304
     13  N        -43.0180   65.6030  -22.6260 N.am   38  GLU38      -0.1979
     14  CA       -42.1420   64.4480  -22.6370 C.3    38  GLU38       0.1602
     15  C        -40.7710   64.7990  -23.1740 C.2    38  GLU38       0.2287
     16  O        -39.7520   64.4660  -22.5630 O.2    38  GLU38      -0.2864
     17  CB       -42.8010   63.2970  -23.4150 C.3    38  GLU38       0.0415
     18  CG       -43.9900   62.7060  -22.6390 C.3    38  GLU38       0.1163
     19  CD       -44.8630   61.7110  -23.4160 C.2    38  GLU38       0.3649
     20  OE1      -44.8470   61.7490  -24.7110 O.co2  38  GLU38      -0.2457
     21  OE2      -45.5750   60.9180  -22.7090 O.co2  38  GLU38      -0.2457
     22  N        -38.9320   66.8960  -20.6940 N.3    41  ASN41      -0.1240
     23  CA       -38.3950   66.0700  -19.6000 C.3    41  ASN41       0.1653
     24  C        -37.0150   65.4970  -19.9210 C.2    41  ASN41       0.2266
     25  O        -36.1900   65.3600  -19.0010 O.2    41  ASN41      -0.2867
     26  CB       -39.2990   64.8880  -19.2880 C.3    41  ASN41       0.1155
     27  CG       -40.0990   65.0620  -17.9780 C.2    41  ASN41       0.2627
     28  OD1      -40.0630   66.0750  -17.3220 O.2    41  ASN41      -0.2716
     29  ND2      -40.8350   64.0370  -17.6480 N.am   41  ASN41      -0.0877
     30  N        -33.9210   66.9840  -12.9770 N.3    46  THR46      -0.1218
     31  CA       -35.0360   67.1750  -12.0910 C.3    46  THR46       0.1862
     32  C        -34.6650   67.9630  -10.8450 C.2    46  THR46       0.2287
     33  O        -35.5300   68.1510   -9.9590 O.2    46  THR46      -0.2866
     34  CB       -35.6830   65.8220  -11.7070 C.3    46  THR46       0.1770
     35  OG1      -34.6750   64.9220  -11.2010 O.3    46  THR46      -0.2211
     36  CG2      -36.3160   65.2140  -12.9040 C.3    46  THR46       0.0375
     37  N        -31.2150   59.6230   -7.6060 N.3    52  ARG52      -0.1245
     38  CA       -30.0380   58.8620   -7.1630 C.3    52  ARG52       0.1563
     39  C        -28.6860   59.3870   -7.6530 C.2    52  ARG52       0.2260
     40  O        -27.6470   59.2920   -6.9640 O.2    52  ARG52      -0.2867
     41  CB       -30.2270   57.4250   -7.5970 C.3    52  ARG52       0.0307
     42  CG       -31.5090   56.7600   -7.0050 C.3    52  ARG52       0.0489
     43  CD       -31.4230   56.6580   -5.5070 C.3    52  ARG52       0.2205
     44  NE       -32.5160   55.7780   -5.0860 N.pl3  52  ARG52      -0.0865
     45  CZ       -32.5370   54.4520   -5.2200 C.cat  52  ARG52       0.5346
     46  NH1      -31.4440   53.7520   -5.5900 N.pl3  52  ARG52       0.1354
     47  NH2      -33.6540   53.8060   -4.9000 N.pl3  52  ARG52       0.1354
     48  N        -32.4250   63.1470  -15.6100 N.3    57  THR57      -0.1203
     49  CA       -33.4580   63.8420  -16.4060 C.3    57  THR57       0.1994
     50  C        -34.8570   63.4520  -15.9000 C.2    57  THR57       0.2618
     51  O        -35.0130   62.5100  -15.0890 O.2    57  THR57      -0.2717
     52  CB       -33.3900   63.5210  -17.9070 C.3    57  THR57       0.1784
     53  OG1      -33.8690   62.1910  -18.1440 O.3    57  THR57      -0.2211
     54  CG2      -31.9760   63.7420  -18.5110 C.3    57  THR57       0.0376
     55  N        -35.8590   64.1330  -16.4390 N.am   58  GLY58      -0.1942
     56  CA       -37.2090   63.6460  -16.3380 C.3    58  GLY58       0.2014
     57  C        -37.3870   62.2910  -17.0600 C.2    58  GLY58       0.2640
     58  O        -36.5440   61.8660  -17.8860 O.2    58  GLY58      -0.2714
     59  N        -38.4920   61.6360  -16.7800 N.am   59  SER59      -0.1935
     60  CA       -38.7990   60.3680  -17.3970 C.3    59  SER59       0.2055
     61  C        -39.8780   60.4800  -18.5010 C.2    59  SER59       0.2643
     62  O        -40.4840   61.5510  -18.7050 O.2    59  SER59      -0.2714
     63  CB       -39.2260   59.4110  -16.2960 C.3    59  SER59       0.2130
     64  OG       -40.4040   59.8250  -15.6700 O.3    59  SER59      -0.2179
     65  N        -40.0520   59.4170  -19.2870 N.am   60  VAL60      -0.1963
     66  CA       -41.1150   59.3380  -20.2900 C.3    60  VAL60       0.1712
     67  C        -41.7570   57.9580  -20.1060 C.2    60  VAL60       0.2458
     68  O        -41.6330   57.0740  -20.9550 O.2    60  VAL60      -0.2730
     69  CB       -40.6010   59.5610  -21.7450 C.3    60  VAL60       0.0289
     70  CG1      -41.7970   59.7050  -22.7030 C.3    60  VAL60       0.0023
     71  CG2      -39.7340   60.7950  -21.8040 C.3    60  VAL60       0.0023
     72  N        -42.4520   57.7650  -18.9610 N.am   61  PRO61      -0.2716
     73  CA       -42.9530   56.4430  -18.6380 C.3    61  PRO61       0.1536
     74  C        -44.0250   55.9270  -19.6320 C.2    61  PRO61       0.2598
     75  O        -44.0930   54.6970  -19.8600 O.2    61  PRO61      -0.2715
     76  CB       -43.4740   56.5860  -17.1640 C.3    61  PRO61       0.0310
     77  CG       -43.8750   58.0020  -17.1130 C.3    61  PRO61       0.0237
     78  CD       -42.8290   58.7420  -17.9400 C.3    61  PRO61       0.0939
     79  N        -44.7760   56.8270  -20.2680 N.am   62  ARG62      -0.1978
     80  CA       -45.7800   56.3650  -21.2560 C.3    62  ARG62       0.1597
     81  C        -45.0890   55.6090  -22.3880 C.2    62  ARG62       0.2287
     82  O        -45.7160   54.7360  -22.9500 O.2    62  ARG62      -0.2864
     83  CB       -46.6270   57.5320  -21.7580 C.3    62  ARG62       0.0334
     84  CG       -47.8020   57.1930  -22.6930 C.3    62  ARG62       0.0492
     85  CD       -48.5270   58.4500  -23.1170 C.3    62  ARG62       0.2205
     86  NE       -47.6430   59.2790  -23.9430 N.pl3  62  ARG62      -0.0865
     87  CZ       -47.5540   59.2880  -25.2690 C.cat  62  ARG62       0.5346
     88  NH1      -48.2940   58.5150  -25.9860 N.pl3  62  ARG62       0.1354
     89  NH2      -46.6700   60.0620  -25.8810 N.pl3  62  ARG62       0.1354
     90  N        -35.5570   58.4350  -15.1650 N.3    68  GLY68      -0.1225
     91  CA       -34.8220   59.4260  -15.9300 C.3    68  GLY68       0.1811
     92  C        -33.4230   58.9370  -16.3080 C.2    68  GLY68       0.2280
     93  O        -32.8950   58.0300  -15.6900 O.2    68  GLY68      -0.2866
     94  N        -36.4430   59.1930   -0.7590 N.3   347  GLU347     -0.1231
     95  CA       -36.3930   59.0950   -2.2220 C.3   347  GLU347      0.1699
     96  C        -35.8530   60.3850   -2.8850 C.2   347  GLU347      0.2592
     97  O        -35.0160   60.3200   -3.8250 O.2   347  GLU347     -0.2718
     98  CB       -37.7820   58.7160   -2.7600 C.3   347  GLU347      0.0402
     99  CG       -37.9020   58.6620   -4.2720 C.3   347  GLU347      0.1161
    100  CD       -39.3810   58.4180   -4.6570 C.2   347  GLU347      0.3649
    101  OE1      -40.2700   58.3940   -3.7380 O.co2 347  GLU347     -0.2457
    102  OE2      -39.6560   58.2300   -5.8750 O.co2 347  GLU347     -0.2457
    103  N        -36.2830   61.5370   -2.3740 N.am  348  HIS348     -0.1976
    104  CA       -35.8060   62.8520   -2.8480 C.3   348  HIS348      0.1656
    105  C        -34.9800   63.4760   -1.7440 C.2   348  HIS348      0.2291
    106  O        -35.5000   64.0740   -0.7880 O.2   348  HIS348     -0.2864
    107  CB       -36.9560   63.7710   -3.2530 C.3   348  HIS348      0.0771
    108  CG       -37.9000   63.1240   -4.2080 C.ar  348  HIS348      0.0820
    109  ND1      -37.5520   62.8300   -5.5110 N.ar  348  HIS348     -0.2267
    110  CD2      -39.1530   62.6460   -4.0320 C.ar  348  HIS348      0.1154
    111  CE1      -38.5780   62.2520   -6.1140 C.ar  348  HIS348      0.1986
    112  NE2      -39.5460   62.1060   -5.2310 N.ar  348  HIS348     -0.2212
    113  N        -40.8450   62.2520   -0.8080 N.3   354  GLY354     -0.1210
    114  CA       -41.0820   60.9500   -1.4010 C.3   354  GLY354      0.1956
    115  C        -41.0090   59.8210   -0.3440 C.2   354  GLY354      0.2611
    116  O        -41.1430   60.0550    0.8480 O.2   354  GLY354     -0.2717
    117  N        -40.8090   58.5790   -0.7880 N.am  355  ALA355     -0.1979
    118  CA       -40.8710   57.4410    0.1620 C.3   355  ALA355      0.1597
    119  C        -39.5400   57.3460    0.9890 C.2   355  ALA355      0.2287
    120  O        -38.4520   57.6460    0.4630 O.2   355  ALA355     -0.2864
    121  CB       -41.0880   56.1470   -0.5990 C.3   355  ALA355      0.0319
    122  N        -37.1670   54.7750    1.9000 N.3   357  THR357     -0.1218
    123  CA       -37.0390   53.5450    1.1310 C.3   357  THR357      0.1862
    124  C        -35.5330   53.0910    1.0110 C.2   357  THR357      0.2287
    125  O        -34.6260   53.8220    1.4180 O.2   357  THR357     -0.2866
    126  CB       -37.6550   53.7540   -0.2450 C.3   357  THR357      0.1770
    127  OG1      -37.7850   52.4980   -0.8900 O.3   357  THR357     -0.2211
    128  CG2      -36.8280   54.6880   -1.1410 C.3   357  THR357      0.0375
    129  N        -51.3780   64.7520   -8.9010 N.3   680  LEU680     -0.1231
    130  CA       -49.9700   64.5930   -8.7200 C.3   680  LEU680      0.1693
    131  C        -49.5190   65.4450   -7.5420 C.2   680  LEU680      0.2591
    132  O        -49.7090   66.6450   -7.5390 O.2   680  LEU680     -0.2718
    133  CB       -49.2120   65.0400   -9.9590 C.3   680  LEU680      0.0284
    134  CG       -47.6820   64.8070   -9.8710 C.3   680  LEU680      0.0019
    135  CD1      -47.1870   63.9750  -11.0320 C.3   680  LEU680      0.0001
    136  CD2      -46.9190   66.1010   -9.8450 C.3   680  LEU680      0.0001
    137  N        -48.9160   64.8150   -6.5390 N.am  681  LYS681     -0.1980
    138  CA       -48.2740   65.4940   -5.3950 C.3   681  LYS681      0.1596
    139  C        -46.9590   66.1320   -5.8960 C.2   681  LYS681      0.2287
    140  O        -46.0520   65.4190   -6.2710 O.2   681  LYS681     -0.2864
    141  CB       -47.9890   64.5000   -4.2500 C.3   681  LYS681      0.0298
    142  CG       -47.3680   65.1400   -3.0010 C.3   681  LYS681      0.0038
    143  CD       -48.3310   66.0690   -2.2840 C.3   681  LYS681      0.0206
    144  CE       -47.7110   67.4420   -2.0700 C.3   681  LYS681      0.1093
    145  NZ       -47.0790   67.5910   -0.7340 N.3   681  LYS681     -0.1314
    146  N        -43.3870   67.5180   -5.7230 N.3   683  ILE683     -0.1245
    147  CA       -42.3130   67.5010   -4.7650 C.3   683  ILE683      0.1561
    148  C        -41.7260   68.9030   -4.6900 C.2   683  ILE683      0.2260
    149  O        -41.4800   69.5390   -5.7200 O.2   683  ILE683     -0.2867
    150  CB       -41.2810   66.4390   -5.2010 C.3   683  ILE683      0.0252
    151  CG1      -41.9130   65.0340   -5.1690 C.3   683  ILE683      0.0019
    152  CG2      -40.0380   66.5210   -4.4020 C.3   683  ILE683      0.0019
    153  CD1      -42.4790   64.5780   -3.8410 C.3   683  ILE683      0.0001
    154  N        -38.6460   70.2220   -6.9390 N.3   686  PHE686     -0.1227
    155  CA       -38.3790   69.3030   -8.0380 C.3   686  PHE686      0.1736
    156  C        -38.6230   70.0650   -9.3420 C.2   686  PHE686      0.2595
    157  O        -39.6110   70.8380   -9.4170 O.2   686  PHE686     -0.2718
    158  CB       -39.3390   68.1370   -7.9000 C.3   686  PHE686      0.0547
    159  CG       -39.0080   66.9360   -8.7490 C.ar  686  PHE686     -0.0202
    160  CD1      -39.5500   66.7920  -10.0050 C.ar  686  PHE686     -0.0042
    161  CD2      -38.2650   65.9120   -8.2370 C.ar  686  PHE686     -0.0042
    162  CE1      -39.3130   65.6600  -10.7580 C.ar  686  PHE686     -0.0003
    163  CE2      -37.9770   64.7750   -8.9740 C.ar  686  PHE686     -0.0003
    164  CZ       -38.5070   64.6230  -10.2280 C.ar  686  PHE686     -0.0000
    165  N        -37.8500   69.7880  -10.3780 N.am  687  ILE687     -0.1966
    166  CA       -38.0410   70.4510  -11.6640 C.3   687  ILE687      0.1727
    167  C        -38.9450   69.6360  -12.6160 C.2   687  ILE687      0.2616
    168  O        -38.5850   68.4880  -13.0350 O.2   687  ILE687     -0.2715
    169  CB       -36.6670   70.7420  -12.3290 C.3   687  ILE687      0.0290
    170  CG1      -35.8040   71.5700  -11.3750 C.3   687  ILE687      0.0022
    171  CG2      -36.8350   71.4580  -13.6740 C.3   687  ILE687      0.0023
    172  CD1      -36.4290   72.8420  -10.8260 C.3   687  ILE687      0.0001
    173  N        -40.1080   70.2100  -12.9210 N.am  688  TYR688     -0.1960
    174  CA       -41.0990   69.6080  -13.8110 C.3   688  TYR688      0.1756
    175  C        -41.2110   70.3580  -15.1600 C.2   688  TYR688      0.2461
    176  O        -40.7840   71.4990  -15.2690 O.2   688  TYR688     -0.2730
    177  CB       -42.4670   69.6010  -13.1230 C.3   688  TYR688      0.0574
    178  CG       -42.5910   68.7350  -11.9030 C.ar  688  TYR688     -0.0198
    179  CD1      -42.8450   67.3680  -12.0070 C.ar  688  TYR688     -0.0009
    180  CD2      -42.5880   69.2820  -10.6240 C.ar  688  TYR688     -0.0009
    181  CE1      -43.0530   66.5590  -10.8660 C.ar  688  TYR688      0.0417
    182  CE2      -42.7960   68.4790   -9.4860 C.ar  688  TYR688      0.0417
    183  CZ       -43.0210   67.1260   -9.6040 C.ar  688  TYR688      0.1957
    184  OH       -43.2110   66.3230   -8.4710 O.3   688  TYR688     -0.2866
    185  N        -41.8260   69.7120  -16.1720 N.am  689  PRO689     -0.2716
    186  CA       -42.0680   70.3340  -17.4720 C.3   689  PRO689      0.1536
    187  C        -43.3930   71.1400  -17.6160 C.2   689  PRO689      0.2598
    188  O        -43.6200   71.7820  -18.6260 O.2   689  PRO689     -0.2715
    189  CB       -42.1350   69.1210  -18.3900 C.3   689  PRO689      0.0310
    190  CG       -42.7750   68.0760  -17.5540 C.3   689  PRO689      0.0237
    191  CD       -42.2020   68.2940  -16.1800 C.3   689  PRO689      0.0939
    192  N        -44.2400   71.0530  -16.6060 N.am  690  TRP690     -0.1974
    193  CA       -45.6130   71.4010  -16.7220 C.3   690  TRP690      0.1640
    194  C        -45.9080   72.8700  -16.3470 C.2   690  TRP690      0.2290
    195  O        -45.0740   73.5470  -15.7590 O.2   690  TRP690     -0.2864
    196  CB       -46.4070   70.4810  -15.7930 C.3   690  TRP690      0.0576
    197  CG       -46.5310   69.0710  -16.2910 C.ar  690  TRP690      0.0006
    198  CD1      -46.9890   68.6610  -17.5290 C.ar  690  TRP690      0.0946
    199  CD2      -46.3100   67.8590  -15.5240 C.ar  690  TRP690      0.0152
    200  NE1      -47.0130   67.2800  -17.5880 N.ar  690  TRP690     -0.2442
    201  CE2      -46.5980   66.7660  -16.3760 C.ar  690  TRP690      0.0810
    202  CE3      -45.8450   67.6040  -14.2300 C.ar  690  TRP690      0.0012
    203  CZ2      -46.4750   65.4340  -15.9540 C.ar  690  TRP690      0.0191
    204  CZ3      -45.7160   66.2780  -13.8180 C.ar  690  TRP690      0.0001
    205  CH2      -46.0470   65.2170  -14.6860 C.ar  690  TRP690      0.0015
@<TRIPOS>BOND
     1     1     2    1
     2     2     3    1
     3     2     5    1
     4     3     4    2
     5    88    87    1
     6    89    87    1
     7     7     5    1
     8     5     6    1
     9    87    86    2
    10    20    19   ar
    11    86    85    1
    12    19    21   ar
    13    19    18    1
    14    17    18    1
    15    17    14    1
    16     8     9    1
    17    15    14    1
    18    15    16    2
    19    85    84    1
    20    82    81    2
    21    70    69    1
    22    84    83    1
    23    14    13    1
    24    13    10   am
    25    81    80    1
    26     9    10    1
    27     9    12    1
    28    71    69    1
    29    10    11    2
    30    83    80    1
    31    69    66    1
    32    80    79    1
    33    68    67    2
    34    22    23    1
    35    66    67    1
    36    66    65    1
    37    79    74   am
    38    67    72   am
    39    24    23    1
    40    24    25    2
    41    75    74    2
    42    74    73    1
    43    23    26    1
    44    26    27    1
    45    65    61   am
    46    72    73    1
    47    72    78    1
    48    62    61    2
    49    73    76    1
    50   188   187    2
    51    54    52    1
    52    61    60    1
    53   189   190    1
    54   189   186    1
    55    53    52    1
    56    27    29   am
    57    27    28    2
    58    78    77    1
    59    52    49    1
    60    58    57    2
    61   187   186    1
    62   187   192   am
    63   200   198   ar
    64   200   201   ar
    65   190   191    1
    66   198   197   ar
    67   186   185    1
    68    60    59    1
    69    60    63    1
    70    76    77    1
    71    57    59   am
    72    57    56    1
    73   193   192    1
    74   193   194    1
    75   193   196    1
    76    55    56    1
    77    55    50   am
    78    49    50    1
    79    49    48    1
    80   201   203   ar
    81   201   199   ar
    82   194   195    2
    83    92    91    1
    84    92    93    2
    85    63    64    1
    86   197   196    1
    87   197   199   ar
    88   191   185    1
    89   185   175   am
    90   203   205   ar
    91    91    90    1
    92    50    51    2
    93   199   202   ar
    94   176   175    2
    95   175   174    1
    96   205   204   ar
    97   202   204   ar
    98   174   177    1
    99   174   173    1
   100   171   169    1
   101   177   178    1
   102   168   167    2
   103    30    31    1
   104   173   167   am
   105    36    34    1
   106   167   166    1
   107   169   166    1
   108   169   170    1
   109    31    34    1
   110    31    32    1
   111   179   178   ar
   112   179   181   ar
   113   178   180   ar
   114    34    35    1
   115   166   165    1
   116   170   172    1
   117   135   134    1
   118   181   183   ar
   119    32    33    2
   120   162   164   ar
   121   162   160   ar
   122   180   182   ar
   123   165   156   am
   124   164   163   ar
   125   160   159   ar
   126   133   134    1
   127   133   130    1
   128   134   136    1
   129   183   182   ar
   130   183   184    1
   131   157   156    2
   132   156   155    1
   133   163   161   ar
   134   129   130    1
   135   159   161   ar
   136   159   158    1
   137   130   131    1
   138   155   158    1
   139   155   154    1
   140    39    38    1
   141    39    40    2
   142    37    38    1
   143    41    38    1
   144    41    42    1
   145   131   132    2
   146   131   137   am
   147    42    43    1
   148   137   138    1
   149   140   139    2
   150   111   109   ar
   151   111   112   ar
   152   139   138    1
   153   102   100   ar
   154   146   147    1
   155   149   148    2
   156    46    45    1
   157   109   108   ar
   158    43    44    1
   159   138   141    1
   160   112   110   ar
   161    45    44    2
   162    45    47    1
   163   150   151    1
   164   150   147    1
   165   150   152    1
   166   151   153    1
   167   147   148    1
   168   100    99    1
   169   100   101   ar
   170    99    98    1
   171   141   142    1
   172   108   110   ar
   173   108   107    1
   174    97    96    2
   175   107   104    1
   176   142   143    1
   177    96   103   am
   178    96    95    1
   179   104   103    1
   180   104   105    1
   181    98    95    1
   182   143   144    1
   183    95    94    1
   184   144   145    1
   185   105   106    2
   186   114   113    1
   187   114   115    1
   188   128   126    1
   189   127   126    1
   190   117   115   am
   191   117   118    1
   192   121   118    1
   193   115   116    2
   194   126   123    1
   195   118   119    1
   196   120   119    2
   197   124   123    1
   198   124   125    2
   199   123   122    1
