@<TRIPOS>MOLECULE
tmp/5fjiA03.pdb
 86 83 0 0 0
SMALL
GASTEIGER

@<TRIPOS>ATOM
      1  N         -5.6940   53.4020   16.3340 N.3   404  GLU404     -0.1245
      2  CA        -4.2370   53.5580   16.1820 C.3   404  GLU404      0.1567
      3  C         -3.4460   52.2730   16.4700 C.2   404  GLU404      0.2260
      4  O         -2.4070   51.9880   15.7800 O.2   404  GLU404     -0.2867
      5  CB        -3.7080   54.6520   17.1130 C.3   404  GLU404      0.0388
      6  CG        -2.1900   54.8940   16.9540 C.3   404  GLU404      0.1160
      7  CD        -1.6070   55.8930   17.9300 C.2   404  GLU404      0.3649
      8  OE1       -2.3800   56.6360   18.5850 O.co2 404  GLU404     -0.2457
      9  OE2       -0.3570   55.9250   18.0610 O.co2 404  GLU404     -0.2457
     10  N          4.4830   55.7570   13.2500 N.3   410  PRO410     -0.2102
     11  CA         4.9450   56.5840   12.0900 C.3   410  PRO410      0.1504
     12  C          6.4420   56.9980   12.2300 C.2   410  PRO410      0.2575
     13  O          6.9790   57.5000   11.2910 O.2   410  PRO410     -0.2718
     14  CB         4.0580   57.8090   12.1660 C.3   410  PRO410      0.0282
     15  CG         2.8550   57.4390   12.9980 C.3   410  PRO410      0.0208
     16  CD         3.3360   56.3750   13.9630 C.3   410  PRO410      0.0893
     17  N          7.0500   56.7690   13.4100 N.am  411  TRP411     -0.1977
     18  CA         8.4880   56.9310   13.5790 C.3   411  TRP411      0.1640
     19  C          9.3240   55.6870   13.2020 C.2   411  TRP411      0.2290
     20  O         10.5820   55.7740   13.2680 O.2   411  TRP411     -0.2864
     21  CB         8.7990   57.3590   15.0310 C.3   411  TRP411      0.0576
     22  CG         8.3910   58.7630   15.3770 C.ar  411  TRP411      0.0006
     23  CD1        7.6080   59.6380   14.6400 C.ar  411  TRP411      0.0946
     24  CD2        8.7390   59.4640   16.5770 C.ar  411  TRP411      0.0152
     25  NE1        7.4550   60.8160   15.3160 N.ar  411  TRP411     -0.2442
     26  CE2        8.1490   60.7370   16.5040 C.ar  411  TRP411      0.0810
     27  CE3        9.5390   59.1490   17.6670 C.ar  411  TRP411      0.0012
     28  CZ2        8.3650   61.7040   17.4840 C.ar  411  TRP411      0.0191
     29  CZ3        9.7210   60.0860   18.6780 C.ar  411  TRP411      0.0001
     30  CH2        9.1410   61.3520   18.5880 C.ar  411  TRP411      0.0015
     31  N         11.4290   54.6490   18.5880 N.3   416  CYS416     -0.1235
     32  CA        11.5940   55.1880   19.9540 C.3   416  CYS416      0.1677
     33  C         12.6060   54.3380   20.7370 C.2   416  CYS416      0.2270
     34  O         12.4410   53.1430   20.8340 O.2   416  CYS416     -0.2867
     35  CB        10.2410   55.2060   20.6560 C.3   416  CYS416      0.0956
     36  SG         8.8770   55.9630   19.6280 S.3   416  CYS416     -0.0801
     37  N         10.1590   53.2000   24.0540 N.3   420  GLY420     -0.1210
     38  CA         9.5620   54.0900   25.0340 C.3   420  GLY420      0.1956
     39  C          8.5130   55.0450   24.4580 C.2   420  GLY420      0.2612
     40  O          8.6760   56.2440   24.4840 O.2   420  GLY420     -0.2717
     41  N          7.4550   54.4720   23.9040 N.am  421  CYS421     -0.1956
     42  CA         6.3470   55.1980   23.3780 C.3   421  CYS421      0.1843
     43  C          5.2000   54.2520   23.1900 C.2   421  CYS421      0.2625
     44  O          5.3630   53.0320   23.2820 O.2   421  CYS421     -0.2714
     45  CB         6.7060   55.8080   22.0160 C.3   421  CYS421      0.0997
     46  SG         6.8080   54.5800   20.6880 S.3   421  CYS421     -0.0797
     47  N          4.0410   54.7910   22.8140 N.am  422  ASP422     -0.1957
     48  CA         2.8790   53.9190   22.5210 C.3   422  ASP422      0.1840
     49  C          2.2770   54.3190   21.2180 C.2   422  ASP422      0.2622
     50  O          1.1460   54.7380   21.1640 O.2   422  ASP422     -0.2715
     51  CB         1.8460   53.9200   23.6840 C.3   422  ASP422      0.1450
     52  CG         0.6930   52.9280   23.4620 C.2   422  ASP422      0.3671
     53  OD1        0.9420   51.8700   22.8300 O.co2 422  ASP422     -0.2456
     54  OD2       -0.4790   53.2190   23.8340 O.co2 422  ASP422     -0.2456
     55  N          3.0880   54.2940   20.1800 N.am  423  ASN423     -0.1972
     56  CA         2.7120   54.7860   18.8460 C.3   423  ASN423      0.1688
     57  C          2.4520   53.5960   17.9130 C.2   423  ASN423      0.2292
     58  O          3.2780   52.6890   17.7660 O.2   423  ASN423     -0.2864
     59  CB         3.8340   55.6460   18.2180 C.3   423  ASN423      0.1181
     60  CG         4.1060   56.9370   18.9360 C.2   423  ASN423      0.2629
     61  OD1        3.3560   57.3920   19.8300 O.2   423  ASN423     -0.2716
     62  ND2        5.2640   57.5750   18.5400 N.am  423  ASN423     -0.0877
     63  N          6.4030   57.4710   30.2780 N.3   495  VAL495     -0.1231
     64  CA         5.5910   57.9490   29.1030 C.3   495  VAL495      0.1692
     65  C          4.2830   58.4320   29.7040 C.2   495  VAL495      0.2592
     66  O          3.6190   57.6740   30.4440 O.2   495  VAL495     -0.2718
     67  CB         5.2920   56.7990   28.1070 C.3   495  VAL495      0.0266
     68  CG1        4.3880   57.2360   26.9910 C.3   495  VAL495      0.0020
     69  CG2        6.5990   56.1960   27.5930 C.3   495  VAL495      0.0020
     70  N          3.9580   59.6940   29.4360 N.am  496  ASP496     -0.1974
     71  CA         2.7170   60.3110   29.8980 C.3   496  ASP496      0.1709
     72  C          2.4270   60.0660   31.3780 C.2   496  ASP496      0.2293
     73  O          1.2770   59.8000   31.7610 O.2   496  ASP496     -0.2864
     74  CB         1.5620   59.7680   29.0570 C.3   496  ASP496      0.1436
     75  CG         0.2470   60.5150   29.3010 C.2   496  ASP496      0.3671
     76  OD1        0.3540   61.7480   29.3120 O.co2 496  ASP496     -0.2456
     77  OD2       -0.8660   59.9130   29.4520 O.co2 496  ASP496     -0.2456
     78  N         -4.2940   56.1820   24.6380 N.3   509  LYS509     -0.1245
     79  CA        -4.5140   56.8120   23.3370 C.3   509  LYS509      0.1561
     80  C         -5.9840   57.0760   22.9340 C.2   509  LYS509      0.2260
     81  O         -6.3720   56.9450   21.7460 O.2   509  LYS509     -0.2867
     82  CB        -3.7760   55.9670   22.2360 C.3   509  LYS509      0.0271
     83  CG        -2.2290   55.9000   22.3670 C.3   509  LYS509      0.0035
     84  CD        -1.7010   57.3630   22.2610 C.3   509  LYS509      0.0206
     85  CE        -0.2740   57.6940   21.9210 C.3   509  LYS509      0.1093
     86  NZ        -0.0560   57.3470   20.4770 N.3   509  LYS509     -0.1314
@<TRIPOS>BOND
     1    13    12    2
     2    11    14    1
     3    11    12    1
     4    11    10    1
     5    14    15    1
     6    12    17   am
     7    15    16    1
     8    19    20    2
     9    19    18    1
    10    10    16    1
    11    17    18    1
    12    18    21    1
    13    23    25   ar
    14    23    22   ar
    15    21    22    1
    16    25    26   ar
    17    22    24   ar
    18     4     3    2
    19     2     1    1
    20     2     3    1
    21     2     5    1
    22    26    24   ar
    23    26    28   ar
    24    24    27   ar
    25     6     5    1
    26     6     7    1
    27    28    30   ar
    28    27    29   ar
    29    58    57    2
    30    57    56    1
    31     7     9   ar
    32     7     8   ar
    33    59    56    1
    34    59    60    1
    35    62    60   am
    36    31    32    1
    37    30    29   ar
    38    56    55    1
    39    60    61    2
    40    36    35    1
    41    32    35    1
    42    32    33    1
    43    55    49   am
    44    86    85    1
    45    46    45    1
    46    33    34    2
    47    50    49    2
    48    49    48    1
    49    81    80    2
    50    85    84    1
    51    45    42    1
    52    82    83    1
    53    82    79    1
    54    84    83    1
    55    48    47    1
    56    48    51    1
    57    47    43   am
    58    53    52   ar
    59    80    79    1
    60    43    44    2
    61    43    42    1
    62    79    78    1
    63    42    41    1
    64    52    51    1
    65    52    54   ar
    66    41    39   am
    67    37    38    1
    68    39    40    2
    69    39    38    1
    70    68    67    1
    71    69    67    1
    72    67    64    1
    73    74    75    1
    74    74    71    1
    75    64    65    1
    76    64    63    1
    77    75    76   ar
    78    75    77   ar
    79    70    65   am
    80    70    71    1
    81    65    66    2
    82    71    72    1
    83    72    73    2
