@<TRIPOS>MOLECULE
tmp/5fjiB03.pdb
 86 84 0 0 0
SMALL
GASTEIGER

@<TRIPOS>ATOM
      1  N          5.5010   60.3540    4.4700 N.3   404  GLU404     -0.1245
      2  CA         4.0510   60.2490    4.6200 C.3   404  GLU404      0.1567
      3  C          3.3870   59.7150    3.3260 C.2   404  GLU404      0.2260
      4  O          2.4290   58.9140    3.4130 O.2   404  GLU404     -0.2867
      5  CB         3.4280   61.5650    5.0180 C.3   404  GLU404      0.0388
      6  CG         1.9280   61.4430    5.2040 C.3   404  GLU404      0.1160
      7  CD         1.2190   62.7690    5.4310 C.2   404  GLU404      0.3649
      8  OE1        1.9420   63.7700    5.7460 O.co2 404  GLU404     -0.2457
      9  OE2       -0.0450   62.7820    5.3610 O.co2 404  GLU404     -0.2457
     10  N         -4.5440   58.2910    7.6830 N.3   410  PRO410     -0.2102
     11  CA        -5.1130   57.8160    8.9680 C.3   410  PRO410      0.1504
     12  C         -6.6200   58.0590    9.1900 C.2   410  PRO410      0.2575
     13  O         -7.1690   57.5510   10.1620 O.2   410  PRO410     -0.2718
     14  CB        -4.3180   58.6040   10.0150 C.3   410  PRO410      0.0282
     15  CG        -3.1240   59.1680    9.2950 C.3   410  PRO410      0.0208
     16  CD        -3.5600   59.3580    7.8600 C.3   410  PRO410      0.0893
     17  N         -7.2780   58.8470    8.3310 N.am  411  TRP411     -0.1977
     18  CA        -8.7280   59.0000    8.3450 C.3   411  TRP411      0.1640
     19  C         -9.4650   57.9550    7.5310 C.2   411  TRP411      0.2290
     20  O        -10.7420   57.9960    7.4600 O.2   411  TRP411     -0.2864
     21  CB        -9.0940   60.4130    7.9020 C.3   411  TRP411      0.0576
     22  CG        -8.7900   61.5110    8.9100 C.ar  411  TRP411      0.0006
     23  CD1       -8.0340   61.4340   10.0420 C.ar  411  TRP411      0.0946
     24  CD2       -9.2790   62.8200    8.8400 C.ar  411  TRP411      0.0152
     25  NE1       -8.0210   62.6730   10.6880 N.ar  411  TRP411     -0.2442
     26  CE2       -8.7920   63.5230    9.9570 C.ar  411  TRP411      0.0810
     27  CE3      -10.0780   63.5100    7.9010 C.ar  411  TRP411      0.0012
     28  CZ2       -9.1200   64.8610   10.1910 C.ar  411  TRP411      0.0191
     29  CZ3      -10.4090   64.8560    8.1540 C.ar  411  TRP411      0.0001
     30  CH2       -9.9360   65.4950    9.2810 C.ar  411  TRP411      0.0015
     31  N        -11.6460   61.7650    3.5880 N.3   416  CYS416     -0.1235
     32  CA       -11.8830   63.1550    3.2580 C.3   416  CYS416      0.1677
     33  C        -12.8620   63.2720    2.0510 C.2   416  CYS416      0.2270
     34  O        -12.6130   62.6890    0.9870 O.2   416  CYS416     -0.2867
     35  CB       -10.5470   63.7850    2.8840 C.3   416  CYS416      0.0956
     36  SG        -9.0620   63.3770    3.9880 S.3   416  CYS416     -0.0801
     37  N        -10.5220   65.5880   -0.6040 N.3   420  GLY420     -0.1210
     38  CA       -10.0050   66.9440   -0.4020 C.3   420  GLY420      0.1956
     39  C         -9.0310   67.0620    0.7610 C.2   420  GLY420      0.2612
     40  O         -9.3110   67.6980    1.7520 O.2   420  GLY420     -0.2717
     41  N         -7.9180   66.3830    0.6330 N.am  421  CYS421     -0.1956
     42  CA        -6.8400   66.3840    1.5850 C.3   421  CYS421      0.1843
     43  C         -5.6120   65.8180    0.9500 C.2   421  CYS421      0.2625
     44  O         -5.6990   65.1820   -0.1420 O.2   421  CYS421     -0.2714
     45  CB        -7.1450   65.5510    2.7980 C.3   421  CYS421      0.0997
     46  SG        -7.2170   63.7330    2.5320 S.3   421  CYS421     -0.0797
     47  N         -4.4680   65.9400    1.6380 N.am  422  ASP422     -0.1957
     48  CA        -3.2660   65.2770    1.1340 C.3   422  ASP422      0.1840
     49  C         -2.6810   64.4530    2.2610 C.2   422  ASP422      0.2622
     50  O         -1.5260   64.6570    2.6270 O.2   422  ASP422     -0.2715
     51  CB        -2.2750   66.2740    0.5380 C.3   422  ASP422      0.1450
     52  CG        -1.0450   65.6000   -0.1150 C.2   422  ASP422      0.3671
     53  OD1       -1.2080   64.5130   -0.6760 O.co2 422  ASP422     -0.2456
     54  OD2        0.0980   66.1670   -0.0180 O.co2 422  ASP422     -0.2456
     55  N         -3.4700   63.5100    2.7670 N.am  423  ASN423     -0.1972
     56  CA        -3.0580   62.6270    3.8730 C.3   423  ASN423      0.1688
     57  C         -2.6570   61.2120    3.3730 C.2   423  ASN423      0.2292
     58  O         -3.3960   60.5220    2.6800 O.2   423  ASN423     -0.2864
     59  CB        -4.1960   62.4720    4.8690 C.3   423  ASN423      0.1181
     60  CG        -4.5710   63.7590    5.5660 C.2   423  ASN423      0.2629
     61  OD1       -3.8760   64.7810    5.4710 O.2   423  ASN423     -0.2716
     62  ND2       -5.7190   63.6970    6.3130 N.am  423  ASN423     -0.0877
     63  N         -7.3360   73.3710   -0.2980 N.3   495  VAL495     -0.1231
     64  CA        -6.4960   72.7470    0.7500 C.3   495  VAL495      0.1692
     65  C         -5.2720   73.6360    0.8860 C.2   495  VAL495      0.2592
     66  O         -4.5620   73.8620   -0.1130 O.2   495  VAL495     -0.2718
     67  CB        -6.0930   71.3080    0.3580 C.3   495  VAL495      0.0266
     68  CG1       -5.1900   70.6570    1.4090 C.3   495  VAL495      0.0020
     69  CG2       -7.3180   70.4390    0.0970 C.3   495  VAL495      0.0020
     70  N         -5.0500   74.1660    2.0960 N.am  496  ASP496     -0.1974
     71  CA        -3.8470   74.9670    2.4210 C.3   496  ASP496      0.1709
     72  C         -3.5800   76.0900    1.4080 C.2   496  ASP496      0.2293
     73  O         -2.4470   76.2910    1.0070 O.2   496  ASP496     -0.2864
     74  CB        -2.6160   74.0220    2.4660 C.3   496  ASP496      0.1436
     75  CG        -1.3690   74.6780    3.0170 C.2   496  ASP496      0.3671
     76  OD1       -1.5600   75.3640    4.0380 O.co2 496  ASP496     -0.2456
     77  OD2       -0.2380   74.5100    2.4610 O.co2 496  ASP496     -0.2456
     78  N          3.6270   68.7410    2.1490 N.3   509  LYS509     -0.1245
     79  CA         3.8510   67.9960    3.3870 C.3   509  LYS509      0.1561
     80  C          5.3480   67.9010    3.8370 C.2   509  LYS509      0.2260
     81  O          5.7660   66.8950    4.4630 O.2   509  LYS509     -0.2867
     82  CB         3.2490   66.5720    3.2510 C.3   509  LYS509      0.0271
     83  CG         1.6980   66.4920    3.0620 C.3   509  LYS509      0.0035
     84  CD         1.0770   67.1710    4.3080 C.3   509  LYS509      0.0206
     85  CE        -0.3230   66.9490    4.7260 C.3   509  LYS509      0.1093
     86  NZ        -0.4750   65.5580    5.2390 N.3   509  LYS509     -0.1314
@<TRIPOS>BOND
     1    53    52   ar
     2    37    38    1
     3    38    39    1
     4    63    64    1
     5    44    43    2
     6    52    54   ar
     7    52    51    1
     8    66    65    2
     9    69    67    1
    10    67    64    1
    11    67    68    1
    12    51    48    1
    13    41    39   am
    14    41    42    1
    15    64    65    1
    16    39    40    2
    17    65    70   am
    18    43    42    1
    19    43    47   am
    20    34    33    2
    21    73    72    2
    22    48    47    1
    23    48    49    1
    24    72    71    1
    25    42    45    1
    26    33    32    1
    27    70    71    1
    28    78    79    1
    29    49    50    2
    30    49    55   am
    31    71    74    1
    32    77    75   ar
    33    74    75    1
    34    46    45    1
    35    46    36    1
    36    58    57    2
    37    55    56    1
    38    35    32    1
    39    35    36    1
    40    75    76   ar
    41    83    82    1
    42    83    84    1
    43    82    79    1
    44    32    31    1
    45     3     4    2
    46     3     2    1
    47    57    56    1
    48    79    80    1
    49    80    81    2
    50    56    59    1
    51    84    85    1
    52     1     2    1
    53     2     5    1
    54    85    86    1
    55    59    60    1
    56     5     6    1
    57     6     7    1
    58     9     7   ar
    59     7     8   ar
    60    61    60    2
    61    60    62   am
    62    20    19    2
    63    19    18    1
    64    10    16    1
    65    10    11    1
    66    16    15    1
    67    27    29   ar
    68    27    24   ar
    69    21    18    1
    70    21    22    1
    71    29    30   ar
    72    17    18    1
    73    17    12   am
    74    24    22   ar
    75    24    26   ar
    76    22    23   ar
    77    11    12    1
    78    11    14    1
    79    12    13    2
    80    30    28   ar
    81    15    14    1
    82    26    28   ar
    83    26    25   ar
    84    23    25   ar
