@<TRIPOS>MOLECULE
tmp/5fjiB02.pdb
 105 104 0 0 0
SMALL
GASTEIGER

@<TRIPOS>ATOM
      1  N        -32.5570   80.4160  -20.8720 N.3   268  GLY268     -0.1225
      2  CA       -33.4700   79.4750  -21.5260 C.3   268  GLY268      0.1811
      3  C        -33.3850   79.5200  -23.0350 C.2   268  GLY268      0.2280
      4  O        -32.8300   78.6210  -23.6970 O.2   268  GLY268     -0.2866
      5  N        -31.7610   76.3900  -11.7800 N.3   284  ILE284     -0.1245
      6  CA       -30.9650   77.5500  -12.1160 C.3   284  ILE284      0.1561
      7  C        -29.7150   77.4680  -11.2600 C.2   284  ILE284      0.2260
      8  O        -28.5840   77.4250  -11.7960 O.2   284  ILE284     -0.2867
      9  CB       -31.7470   78.8620  -11.9700 C.3   284  ILE284      0.0252
     10  CG1      -32.7900   78.9540  -13.0730 C.3   284  ILE284      0.0019
     11  CG2      -30.7730   80.0350  -12.0310 C.3   284  ILE284      0.0019
     12  CD1      -33.6160   80.2320  -13.0850 C.3   284  ILE284      0.0001
     13  N        -35.4590   75.4340   -7.0310 N.3   289  GLY289     -0.1210
     14  CA       -36.7960   75.1730   -7.5380 C.3   289  GLY289      0.1956
     15  C        -37.1660   75.8600   -8.8370 C.2   289  GLY289      0.2612
     16  O        -38.3130   75.7540   -9.2640 O.2   289  GLY289     -0.2717
     17  N        -36.2390   76.5520   -9.4520 N.am  290  LEU290     -0.1965
     18  CA       -36.4580   77.2950  -10.7120 C.3   290  LEU290      0.1728
     19  C        -35.6320   76.6070  -11.8290 C.2   290  LEU290      0.2617
     20  O        -34.6270   75.9430  -11.5420 O.2   290  LEU290     -0.2715
     21  CB       -35.9360   78.7390  -10.5380 C.3   290  LEU290      0.0311
     22  CG       -36.4710   79.5300   -9.2850 C.3   290  LEU290      0.0022
     23  CD1      -35.8100   80.9190   -9.1570 C.3   290  LEU290      0.0001
     24  CD2      -38.0060   79.6630   -9.2770 C.3   290  LEU290      0.0001
     25  N        -36.0270   76.7780  -13.0840 N.am  291  SER291     -0.1936
     26  CA       -35.2380   76.2480  -14.2010 C.3   291  SER291      0.2055
     27  C        -35.2780   77.1830  -15.3900 C.2   291  SER291      0.2643
     28  O        -36.3320   77.8060  -15.6800 O.2   291  SER291     -0.2714
     29  CB       -35.7940   74.8920  -14.6190 C.3   291  SER291      0.2130
     30  OG       -35.0250   74.3290  -15.7040 O.3   291  SER291     -0.2179
     31  N        -34.1420   77.2860  -16.0950 N.am  292  PHE292     -0.1959
     32  CA       -34.1630   77.9860  -17.3460 C.3   292  PHE292      0.1771
     33  C        -34.9700   77.2260  -18.3570 C.2   292  PHE292      0.2619
     34  O        -35.4960   77.8370  -19.2890 O.2   292  PHE292     -0.2715
     35  CB       -32.7790   78.2670  -17.9060 C.3   292  PHE292      0.0574
     36  CG       -32.0450   79.3160  -17.1560 C.ar  292  PHE292     -0.0200
     37  CD1      -32.5310   80.6410  -17.1140 C.ar  292  PHE292     -0.0042
     38  CD2      -30.8600   79.0340  -16.5340 C.ar  292  PHE292     -0.0042
     39  CE1      -31.8590   81.6420  -16.3990 C.ar  292  PHE292     -0.0003
     40  CE2      -30.1700   80.0200  -15.8570 C.ar  292  PHE292     -0.0003
     41  CZ       -30.6590   81.3290  -15.8150 C.ar  292  PHE292     -0.0000
     42  N        -35.0050   75.9260  -18.2330 N.am  293  TRP293     -0.1974
     43  CA       -35.8290   75.0470  -19.1180 C.3   293  TRP293      0.1640
     44  C        -36.9710   74.4740  -18.2650 C.2   293  TRP293      0.2290
     45  O        -37.6140   75.2680  -17.5330 O.2   293  TRP293     -0.2864
     46  CB       -34.9880   74.0090  -19.8330 C.3   293  TRP293      0.0576
     47  CG       -34.0650   74.5540  -20.8560 C.ar  293  TRP293      0.0006
     48  CD1      -34.0360   75.8480  -21.3630 C.ar  293  TRP293      0.0946
     49  CD2      -33.0820   73.8150  -21.6190 C.ar  293  TRP293      0.0152
     50  NE1      -33.0740   75.9380  -22.3650 N.ar  293  TRP293     -0.2442
     51  CE2      -32.4980   74.7130  -22.5530 C.ar  293  TRP293      0.0810
     52  CE3      -32.6910   72.4760  -21.6360 C.ar  293  TRP293      0.0012
     53  CZ2      -31.4820   74.3330  -23.4340 C.ar  293  TRP293      0.0191
     54  CZ3      -31.7030   72.0960  -22.4960 C.ar  293  TRP293      0.0001
     55  CH2      -31.1280   73.0270  -23.3970 C.ar  293  TRP293      0.0015
     56  N        -40.5370   73.9330  -17.1990 N.3   295  THR295     -0.1203
     57  CA       -41.6620   74.8320  -17.4960 C.3   295  THR295      0.1994
     58  C        -41.3160   75.9410  -18.4800 C.2   295  THR295      0.2617
     59  O        -42.0590   76.1750  -19.4450 O.2   295  THR295     -0.2717
     60  CB       -42.2130   75.4620  -16.1990 C.3   295  THR295      0.1784
     61  OG1      -42.5910   74.4300  -15.2930 O.3   295  THR295     -0.2211
     62  CG2      -43.4300   76.3530  -16.4440 C.3   295  THR295      0.0376
     63  N        -40.1790   76.5790  -18.2960 N.am  296  ASN296     -0.1974
     64  CA       -39.8040   77.6840  -19.1790 C.3   296  ASN296      0.1688
     65  C        -39.5380   77.2700  -20.6140 C.2   296  ASN296      0.2292
     66  O        -39.7610   78.0190  -21.5630 O.2   296  ASN296     -0.2864
     67  CB       -38.5360   78.3400  -18.6240 C.3   296  ASN296      0.1181
     68  CG       -38.8080   79.6100  -17.7540 C.2   296  ASN296      0.2629
     69  OD1      -39.7020   80.4140  -18.0590 O.2   296  ASN296     -0.2716
     70  ND2      -37.9600   79.8070  -16.7290 N.am  296  ASN296     -0.0877
     71  N        -47.0120   81.3420  -15.9920 N.3   699  SER699     -0.1202
     72  CA       -46.4020   80.0720  -15.7250 C.3   699  SER699      0.2020
     73  C        -44.8750   80.1770  -15.7810 C.2   699  SER699      0.2619
     74  O        -44.1750   79.4790  -15.0280 O.2   699  SER699     -0.2717
     75  CB       -46.8770   79.0400  -16.7260 C.3   699  SER699      0.2103
     76  OG       -48.2250   78.7680  -16.5610 O.3   699  SER699     -0.2182
     77  N        -44.3720   81.0070  -16.6890 N.am  700  SER700     -0.1937
     78  CA       -42.9400   81.2740  -16.8000 C.3   700  SER700      0.2055
     79  C        -42.4270   82.1450  -15.6770 C.2   700  SER700      0.2643
     80  O        -41.4220   81.8360  -15.0590 O.2   700  SER700     -0.2714
     81  CB       -42.6260   81.9610  -18.1090 C.3   700  SER700      0.2130
     82  OG       -41.3190   82.5120  -18.0470 O.3   700  SER700     -0.2179
     83  N        -43.0930   83.2780  -15.4900 N.am  701  ASP701     -0.1957
     84  CA       -42.7660   84.2530  -14.4940 C.3   701  ASP701      0.1840
     85  C        -41.4180   84.9580  -14.7390 C.2   701  ASP701      0.2622
     86  O        -40.8260   85.5300  -13.8210 O.2   701  ASP701     -0.2715
     87  CB       -42.7830   83.5690  -13.1310 C.3   701  ASP701      0.1450
     88  CG       -42.9260   84.5120  -12.0010 C.2   701  ASP701      0.3671
     89  OD1      -43.6010   85.5360  -12.1520 O.co2 701  ASP701     -0.2456
     90  OD2      -42.4190   84.1980  -10.9020 O.co2 701  ASP701     -0.2456
     91  N        -40.8960   84.9230  -15.9600 N.am  702  ASP702     -0.1958
     92  CA       -39.6200   85.5820  -16.2420 C.3   702  ASP702      0.1825
     93  C        -39.8220   87.0710  -16.0730 C.2   702  ASP702      0.2464
     94  O        -40.7490   87.5910  -16.6720 O.2   702  ASP702     -0.2730
     95  CB       -39.1520   85.3040  -17.6680 C.3   702  ASP702      0.1450
     96  CG       -37.7140   85.7710  -17.8990 C.2   702  ASP702      0.3671
     97  OD1      -37.4990   86.9970  -18.0430 O.co2 702  ASP702     -0.2456
     98  OD2      -36.7940   84.8870  -17.9690 O.co2 702  ASP702     -0.2456
     99  N        -38.9600   87.7630  -15.2990 N.am  703  PRO703     -0.2727
    100  CA       -39.1420   89.2030  -15.0800 C.3   703  PRO703      0.1402
    101  C        -39.0820   90.0650  -16.3490 C.2   703  PRO703      0.2269
    102  O        -39.4920   91.2150  -16.2830 O.2   703  PRO703     -0.2865
    103  CB       -37.9770   89.5870  -14.1690 C.3   703  PRO703      0.0296
    104  CG       -37.4330   88.3240  -13.6690 C.3   703  PRO703      0.0237
    105  CD       -37.7080   87.2870  -14.6980 C.3   703  PRO703      0.0939
@<TRIPOS>BOND
     1     4     3    2
     2    53    55   ar
     3    53    51   ar
     4    55    54   ar
     5     3     2    1
     6    51    50   ar
     7    51    49   ar
     8    54    52   ar
     9    50    48   ar
    10    52    49   ar
    11    49    47   ar
    12    66    65    2
    13     2     1    1
    14    48    47   ar
    15    47    46    1
    16    65    64    1
    17    46    43    1
    18    59    58    2
    19    34    33    2
    20    64    67    1
    21    64    63    1
    22    43    44    1
    23    43    42    1
    24    67    68    1
    25    58    63   am
    26    58    57    1
    27    33    42   am
    28    33    32    1
    29    44    45    2
    30    81    82    1
    31    81    78    1
    32    69    68    2
    33    97    96   ar
    34    98    96   ar
    35    35    32    1
    36    35    36    1
    37    96    95    1
    38    68    70   am
    39    95    92    1
    40    57    56    1
    41    57    60    1
    42    32    31    1
    43    36    37   ar
    44    36    38   ar
    45    37    39   ar
    46    78    77    1
    47    78    79    1
    48    75    76    1
    49    75    72    1
    50    77    73   am
    51    94    93    2
    52    38    40   ar
    53    62    60    1
    54    39    41   ar
    55   101   102    2
    56   101   100    1
    57    92    93    1
    58    92    91    1
    59    60    61    1
    60    31    27   am
    61    93    99   am
    62    71    72    1
    63    91    85   am
    64    40    41   ar
    65    73    72    1
    66    73    74    2
    67    30    29    1
    68    28    27    2
    69    79    83   am
    70    79    80    2
    71    83    84    1
    72    27    26    1
    73    99   100    1
    74    99   105    1
    75   100   103    1
    76    85    84    1
    77    85    86    2
    78   105   104    1
    79    29    26    1
    80    84    87    1
    81    26    25    1
    82   103   104    1
    83    87    88    1
    84    12    10    1
    85    25    19   am
    86    10     9    1
    87    89    88   ar
    88     6     9    1
    89     6     5    1
    90     6     7    1
    91    11     9    1
    92    88    90   ar
    93    19    20    2
    94    19    18    1
    95     8     7    2
    96    18    21    1
    97    18    17    1
    98    21    22    1
    99    17    15   am
   100    22    24    1
   101    22    23    1
   102    16    15    2
   103    15    14    1
   104    14    13    1
