@<TRIPOS>MOLECULE
tmp/5fjiA01.pdb
 165 158 0 0 0
SMALL
GASTEIGER

@<TRIPOS>ATOM
      1  N         11.4240   45.6530   59.3660 N.3     3  ALA3       -0.1231
      2  CA        11.7870   44.2930   58.9050 C.3     3  ALA3        0.1694
      3  C         13.3000   44.0950   58.8710 C.2     3  ALA3        0.2592
      4  O         14.0760   44.9720   58.4770 O.2     3  ALA3       -0.2718
      5  CB        11.1960   44.0450   57.5290 C.3     3  ALA3        0.0304
      6  N         13.7160   42.9200   59.3000 N.am    4  PHE4       -0.1962
      7  CA        15.0990   42.6100   59.4870 C.3     4  PHE4        0.1771
      8  C         15.4140   41.3400   58.6870 C.2     4  PHE4        0.2620
      9  O         14.5800   40.4250   58.6390 O.2     4  PHE4       -0.2715
     10  CB        15.3720   42.4290   60.9800 C.3     4  PHE4        0.0574
     11  CG        16.7820   42.0500   61.2960 C.ar    4  PHE4       -0.0200
     12  CD1       17.8270   42.9560   61.0600 C.ar    4  PHE4       -0.0042
     13  CD2       17.0920   40.7860   61.8100 C.ar    4  PHE4       -0.0042
     14  CE1       19.1260   42.6130   61.3700 C.ar    4  PHE4       -0.0003
     15  CE2       18.4110   40.4210   62.1050 C.ar    4  PHE4       -0.0003
     16  CZ        19.4230   41.3370   61.8930 C.ar    4  PHE4       -0.0000
     17  N         16.6010   41.3050   58.0510 N.am    5  SER5       -0.1936
     18  CA        17.0750   40.1160   57.3200 C.3     5  SER5        0.2043
     19  C         18.2380   39.4380   58.0780 C.2     5  SER5        0.2522
     20  O         19.4060   39.9300   58.0060 O.2     5  SER5       -0.2726
     21  CB        17.4970   40.5260   55.9010 C.3     5  SER5        0.2129
     22  OG        17.5920   39.4050   55.0490 O.3     5  SER5       -0.2179
     23  N         17.9640   38.3870   58.8700 N.am    6  PRO6       -0.2503
     24  CA        19.0700   37.8190   59.6750 C.3     6  PRO6        0.1487
     25  C         20.2300   37.2010   58.8810 C.2     6  PRO6        0.2276
     26  O         20.0680   36.8690   57.6670 O.2     6  PRO6       -0.2865
     27  CB        18.4170   36.7450   60.5680 C.3     6  PRO6        0.0556
     28  CG        16.9920   36.6680   60.1320 C.2     6  PRO6       -0.0078
     29  CD        16.7280   37.6160   58.9950 C.2     6  PRO6        0.0634
     30  N          8.5240   40.1900   53.3430 N.3   201  VAL201     -0.1231
     31  CA         7.6680   39.0140   53.1230 C.3   201  VAL201      0.1692
     32  C          7.9660   37.9370   54.1660 C.2   201  VAL201      0.2592
     33  O          9.1280   37.7250   54.5400 O.2   201  VAL201     -0.2718
     34  CB         7.8020   38.4970   51.6680 C.3   201  VAL201      0.0266
     35  CG1        9.0190   37.7080   51.5060 C.3   201  VAL201      0.0020
     36  CG2        6.6420   37.5970   51.3060 C.3   201  VAL201      0.0020
     37  N          6.9310   37.2740   54.6160 N.am  202  ASP202     -0.1960
     38  CA         7.0290   36.1840   55.5800 C.3   202  ASP202      0.1840
     39  C          7.6560   34.9360   54.8940 C.2   202  ASP202      0.2622
     40  O          7.6670   34.8190   53.6380 O.2   202  ASP202     -0.2715
     41  CB         5.6140   35.8590   56.1960 C.3   202  ASP202      0.1450
     42  CG         4.6700   35.2420   55.2090 C.2   202  ASP202      0.3671
     43  OD1        4.0410   35.9880   54.3960 O.co2 202  ASP202     -0.2456
     44  OD2        4.6390   33.9950   55.0750 O.co2 202  ASP202     -0.2456
     45  N          8.2280   34.0510   55.7130 N.am  203  ASP203     -0.1957
     46  CA         8.9620   32.8310   55.2140 C.3   203  ASP203      0.1840
     47  C          8.1090   31.8030   54.4390 C.2   203  ASP203      0.2621
     48  O          8.5370   31.2740   53.4120 O.2   203  ASP203     -0.2715
     49  CB         9.6010   32.1660   56.4240 C.3   203  ASP203      0.1450
     50  CG        10.5650   31.0480   56.0870 C.2   203  ASP203      0.3671
     51  OD1       11.2530   31.1350   55.0450 O.co2 203  ASP203     -0.2456
     52  OD2       10.5700   30.0420   56.8850 O.co2 203  ASP203     -0.2456
     53  N          6.8390   31.6340   54.8570 N.am  204  LYS204     -0.1977
     54  CA         5.9200   30.7210   54.1400 C.3   204  LYS204      0.1596
     55  C          5.5410   31.2330   52.7420 C.2   204  LYS204      0.2287
     56  O          5.6510   30.4650   51.7470 O.2   204  LYS204     -0.2864
     57  CB         4.6880   30.4610   55.0020 C.3   204  LYS204      0.0298
     58  CG         3.6260   29.5810   54.3890 C.3   204  LYS204      0.0038
     59  CD         2.5820   29.2380   55.5060 C.3   204  LYS204      0.0206
     60  CE         1.6300   28.1010   55.2240 C.3   204  LYS204      0.1093
     61  NZ         0.9230   28.3800   54.0090 N.3   204  LYS204     -0.1314
     62  N          7.2680   33.3900   50.9970 N.3   206  MET206     -0.1245
     63  CA         8.5000   33.3360   50.1770 C.3   206  MET206      0.1570
     64  C          8.6080   31.9510   49.5110 C.2   206  MET206      0.2261
     65  O          8.8300   31.8430   48.3240 O.2   206  MET206     -0.2867
     66  CB         9.7400   33.6890   51.0040 C.3   206  MET206      0.0387
     67  CG        11.0590   33.4550   50.3180 C.3   206  MET206      0.0595
     68  SD        11.2990   34.5940   48.9070 S.3   206  MET206     -0.1393
     69  CE        12.1680   35.8670   49.8280 C.3   206  MET206      0.0692
     70  N         15.2600   43.2220   50.4810 N.3   232  ILE232     -0.1231
     71  CA        14.3810   42.2310   51.0700 C.3   232  ILE232      0.1692
     72  C         14.5820   42.3030   52.5660 C.2   232  ILE232      0.2592
     73  O         15.6970   42.1480   52.9960 O.2   232  ILE232     -0.2718
     74  CB        14.6530   40.7820   50.5880 C.3   232  ILE232      0.0266
     75  CG1       14.4400   40.6860   49.0560 C.3   232  ILE232      0.0019
     76  CG2       13.6240   39.8500   51.1680 C.3   232  ILE232      0.0020
     77  CD1       15.7130   40.9510   48.3200 C.3   232  ILE232      0.0001
     78  N         13.5210   42.6230   53.3170 N.am  233  ASN233     -0.1974
     79  CA        13.6420   42.9510   54.7430 C.3   233  ASN233      0.1688
     80  C         14.8690   43.8440   55.0420 C.2   233  ASN233      0.2292
     81  O         15.6730   43.5310   55.9330 O.2   233  ASN233     -0.2864
     82  CB        13.7850   41.6930   55.5790 C.3   233  ASN233      0.1181
     83  CG        12.5380   40.7970   55.6100 C.2   233  ASN233      0.2629
     84  OD1       11.4930   40.9930   54.9830 O.2   233  ASN233     -0.2716
     85  ND2       12.7170   39.7190   56.3900 N.am  233  ASN233     -0.0877
     86  N         22.1970   39.9770   50.1010 N.3   240  ASN240     -0.1240
     87  CA        21.2030   39.5060   51.0720 C.3   240  ASN240      0.1653
     88  C         21.5420   38.0660   51.3550 C.2   240  ASN240      0.2266
     89  O         21.3740   37.2040   50.5170 O.2   240  ASN240     -0.2867
     90  CB        19.7860   39.6540   50.5250 C.3   240  ASN240      0.1155
     91  CG        18.7320   39.3250   51.5540 C.2   240  ASN240      0.2627
     92  OD1       18.7120   38.2060   52.0820 O.2   240  ASN240     -0.2716
     93  ND2       17.8920   40.3230   51.9150 N.am  240  ASN240     -0.0877
     94  N         20.2730   35.8820   53.4320 N.3   242  GLN242     -0.1231
     95  CA        19.1510   34.9750   53.4040 C.3   242  GLN242      0.1698
     96  C         18.8350   34.5010   51.9710 C.2   242  GLN242      0.2592
     97  O         18.6540   33.3240   51.7640 O.2   242  GLN242     -0.2718
     98  CB        17.8600   35.5880   54.0280 C.3   242  GLN242      0.0381
     99  CG        17.9140   35.7000   55.5310 C.3   242  GLN242      0.0905
    100  CD        17.8840   34.3570   56.2290 C.2   242  GLN242      0.2608
    101  OE1       17.0370   33.4910   55.9420 O.2   242  GLN242     -0.2717
    102  NE2       18.8060   34.1750   57.2150 N.am  242  GLN242     -0.0878
    103  N         18.6460   35.4320   51.0430 N.am  243  THR243     -0.1953
    104  CA        18.1440   34.9940   49.7400 C.3   243  THR243      0.1897
    105  C         19.2340   34.3200   48.9540 C.2   243  THR243      0.2313
    106  O         18.9730   33.3310   48.2600 O.2   243  THR243     -0.2863
    107  CB        17.4930   36.1350   48.9390 C.3   243  THR243      0.1794
    108  OG1       18.4580   37.0910   48.5800 O.3   243  THR243     -0.2208
    109  CG2       16.3770   36.7720   49.7140 C.3   243  THR243      0.0378
    110  N         21.4090   31.4110   51.8980 N.3   246  LYS246     -0.1231
    111  CA        20.5340   30.3830   52.4690 C.3   246  LYS246      0.1693
    112  C         19.5330   29.7990   51.4340 C.2   246  LYS246      0.2591
    113  O         19.5610   28.5870   51.1460 O.2   246  LYS246     -0.2718
    114  CB        19.7560   30.8760   53.6740 C.3   246  LYS246      0.0285
    115  CG        19.1890   29.7270   54.4960 C.3   246  LYS246      0.0035
    116  CD        18.3050   30.1090   55.7160 C.3   246  LYS246      0.0206
    117  CE        16.8450   30.3350   55.2980 C.3   246  LYS246      0.1093
    118  NZ        16.0040   30.9560   56.3930 N.3   246  LYS246     -0.1314
    119  N         18.6640   30.6250   50.8350 N.am  247  LEU247     -0.1980
    120  CA        17.5830   30.0770   50.0320 C.3   247  LEU247      0.1596
    121  C         18.1160   29.5720   48.7070 C.2   247  LEU247      0.2287
    122  O         17.8730   28.4560   48.3450 O.2   247  LEU247     -0.2864
    123  CB        16.4850   31.1350   49.8010 C.3   247  LEU247      0.0297
    124  CG        15.7580   31.5730   51.0640 C.3   247  LEU247      0.0022
    125  CD1       14.7790   32.6870   50.7390 C.3   247  LEU247      0.0001
    126  CD2       15.0520   30.4550   51.8190 C.3   247  LEU247      0.0001
    127  N         17.6940   20.7130   55.8940 N.3   727  LYS727     -0.1245
    128  CA        16.7860   19.5880   55.7150 C.3   727  LYS727      0.1561
    129  C         16.0780   19.6950   54.3710 C.2   727  LYS727      0.2260
    130  O         15.9260   18.6780   53.7140 O.2   727  LYS727     -0.2867
    131  CB        15.7370   19.5220   56.8340 C.3   727  LYS727      0.0271
    132  CG        16.3810   19.1840   58.1950 C.3   727  LYS727      0.0035
    133  CD        15.3300   18.9670   59.2850 C.3   727  LYS727      0.0206
    134  CE        14.3340   20.1380   59.4370 C.3   727  LYS727      0.1093
    135  NZ        13.3290   19.9220   60.5840 N.3   727  LYS727     -0.1314
    136  N          7.2610   26.6010   58.8620 N.3   807  VAL807     -0.1231
    137  CA         8.2090   27.5530   59.3560 C.3   807  VAL807      0.1692
    138  C          8.8710   27.0680   60.6630 C.2   807  VAL807      0.2592
    139  O         10.0060   27.3550   60.9230 O.2   807  VAL807     -0.2718
    140  CB         7.3520   28.8210   59.4860 C.3   807  VAL807      0.0266
    141  CG1        7.6140   29.6510   60.6610 C.3   807  VAL807      0.0020
    142  CG2        7.2780   29.6260   58.1960 C.3   807  VAL807      0.0020
    143  N          8.1630   26.3130   61.4730 N.am  808  GLU808     -0.1966
    144  CA         8.7290   25.7700   62.7040 C.3   808  GLU808      0.1733
    145  C          9.7150   24.6810   62.4510 C.2   808  GLU808      0.2616
    146  O         10.7520   24.6480   63.0430 O.2   808  GLU808     -0.2715
    147  CB         7.6300   25.1790   63.5830 C.3   808  GLU808      0.0429
    148  CG         6.8160   26.2680   64.1800 C.3   808  GLU808      0.1163
    149  CD         5.8190   25.7110   65.1820 C.2   808  GLU808      0.3649
    150  OE1        6.2290   24.9710   66.1160 O.co2 808  GLU808     -0.2457
    151  OE2        4.6140   26.0060   64.9800 O.co2 808  GLU808     -0.2457
    152  N          9.4090   23.8200   61.4940 N.am  809  ALA809     -0.1963
    153  CA        10.3060   22.7710   61.1190 C.3   809  ALA809      0.1728
    154  C         11.4440   23.2230   60.1530 C.2   809  ALA809      0.2616
    155  O         12.4090   22.4970   60.0260 O.2   809  ALA809     -0.2715
    156  CB         9.5140   21.6320   60.4870 C.3   809  ALA809      0.0334
    157  N         11.2750   24.3450   59.4610 N.am  810  GLN810     -0.1977
    158  CA        12.1090   24.7260   58.3060 C.3   810  GLN810      0.1601
    159  C         12.1710   23.6290   57.2890 C.2   810  GLN810      0.2287
    160  O         13.2480   23.1600   56.8600 O.2   810  GLN810     -0.2864
    161  CB        13.5170   25.2170   58.7450 C.3   810  GLN810      0.0394
    162  CG        13.4300   26.5510   59.4860 C.3   810  GLN810      0.0908
    163  CD        12.9750   27.7040   58.5580 C.2   810  GLN810      0.2608
    164  OE1       13.6720   28.0250   57.5710 O.2   810  GLN810     -0.2717
    165  NE2       11.7840   28.3180   58.8600 N.am  810  GLN810     -0.0878
@<TRIPOS>BOND
     1   106   105    2
     2    77    75    1
     3    65    64    2
     4   122   121    2
     5   108   107    1
     6   121   120    1
     7    68    69    1
     8    68    67    1
     9   107   109    1
    10   107   104    1
    11   105   104    1
    12    75    74    1
    13    64    63    1
    14   104   103    1
    15   123   120    1
    16   123   124    1
    17   120   119    1
    18    86    87    1
    19    63    62    1
    20    63    66    1
    21    67    66    1
    22    70    71    1
    23    89    88    2
    24    90    87    1
    25    90    91    1
    26    74    71    1
    27    74    76    1
    28   125   124    1
    29   119   112   am
    30   103    96   am
    31   124   126    1
    32    71    72    1
    33    87    88    1
    34   113   112    2
    35    36    34    1
    36   112   111    1
    37    35    34    1
    38    91    93   am
    39    91    92    2
    40    34    31    1
    41    56    55    2
    42    97    96    2
    43   110   111    1
    44    96    95    1
    45   111   114    1
    46    72    73    2
    47    72    78   am
    48    55    54    1
    49    31    30    1
    50    31    32    1
    51    78    79    1
    52    95    94    1
    53    95    98    1
    54    48    47    2
    55    40    39    2
    56   114   115    1
    57   130   129    2
    58    61    60    1
    59    98    99    1
    60    54    53    1
    61    54    57    1
    62    32    33    2
    63    32    37   am
    64   129   128    1
    65    58    57    1
    66    58    59    1
    67    43    42   ar
    68    47    53   am
    69    47    46    1
    70   115   116    1
    71    37    38    1
    72    79    80    1
    73    79    82    1
    74    39    38    1
    75    39    45   am
    76    84    83    2
    77    80    81    2
    78    51    50   ar
    79    22    21    1
    80    44    42   ar
    81    42    41    1
    82    46    45    1
    83    46    49    1
    84    60    59    1
    85   117   116    1
    86   117   118    1
    87    99   100    1
    88    82    83    1
    89    38    41    1
    90    83    85   am
    91   128   127    1
    92   128   131    1
    93    21    18    1
    94   101   100    2
    95    50    49    1
    96    50    52   ar
    97   100   102   am
    98   131   132    1
    99   160   159    2
   100   159   158    1
   101    18    17    1
   102    18    19    1
   103     5     2    1
   104   164   163    2
   105    26    25    2
   106    20    19    2
   107    17     8   am
   108    19    23   am
   109   132   133    1
   110   142   140    1
   111   158   161    1
   112   158   157    1
   113     4     3    2
   114   163   165   am
   115   163   162    1
   116     9     8    2
   117     8     7    1
   118   161   162    1
   119   136   137    1
   120    23    29    1
   121    23    24    1
   122     3     2    1
   123     3     6   am
   124    25    24    1
   125     2     1    1
   126    29    28    2
   127   133   134    1
   128     6     7    1
   129   137   140    1
   130   137   138    1
   131   134   135    1
   132   157   154   am
   133   140   141    1
   134     7    10    1
   135    24    27    1
   136   155   154    2
   137    28    27    1
   138   154   153    1
   139   156   153    1
   140   138   139    2
   141   138   143   am
   142    10    11    1
   143    12    11   ar
   144    12    14   ar
   145   153   152    1
   146    11    13   ar
   147    14    16   ar
   148   143   144    1
   149   152   145   am
   150    13    15   ar
   151    16    15   ar
   152   145   144    1
   153   145   146    2
   154   144   147    1
   155   147   148    1
   156   148   149    1
   157   151   149   ar
   158   149   150   ar
