@<TRIPOS>MOLECULE
tmp/5fjjD02.pdb
 143 136 0 0 0
SMALL
GASTEIGER

@<TRIPOS>ATOM
      1  N          6.9520   31.3190  -38.4710 N.3     2  ALA2       -0.1231
      2  CA         7.5690   32.6020  -38.7750 C.3     2  ALA2        0.1694
      3  C          7.8080   32.7460  -40.2690 C.2     2  ALA2        0.2592
      4  O          8.1840   31.7940  -40.9400 O.2     2  ALA2       -0.2718
      5  CB         8.8870   32.7870  -37.9850 C.3     2  ALA2        0.0304
      6  N          7.5960   33.9450  -40.7900 N.am    3  TYR3       -0.1962
      7  CA         7.6420   34.2020  -42.2310 C.3     3  TYR3        0.1771
      8  C          8.6630   35.3140  -42.5440 C.2     3  TYR3        0.2620
      9  O          8.6980   36.3380  -41.8550 O.2     3  TYR3       -0.2715
     10  CB         6.2350   34.6210  -42.7080 C.3     3  TYR3        0.0574
     11  CG         6.1340   35.0810  -44.1470 C.ar    3  TYR3       -0.0198
     12  CD1        6.2630   34.1770  -45.2060 C.ar    3  TYR3       -0.0009
     13  CD2        5.8710   36.4240  -44.4590 C.ar    3  TYR3       -0.0009
     14  CE1        6.1380   34.5970  -46.5310 C.ar    3  TYR3        0.0417
     15  CE2        5.7590   36.8490  -45.7800 C.ar    3  TYR3        0.0417
     16  CZ         5.8950   35.9320  -46.8100 C.ar    3  TYR3        0.1957
     17  OH         5.7970   36.3500  -48.1170 O.3     3  TYR3       -0.2866
     18  N          9.4620   35.0980  -43.5770 N.am    4  SER4       -0.1936
     19  CA        10.4280   36.0690  -44.0360 C.3     4  SER4        0.2040
     20  C          9.9030   36.8000  -45.2610 C.2     4  SER4        0.2485
     21  O          9.9170   36.2510  -46.3540 O.2     4  SER4       -0.2729
     22  CB        11.7680   35.3890  -44.3600 C.3     4  SER4        0.2129
     23  OG        12.8010   36.3560  -44.4400 O.3     4  SER4       -0.2179
     24  N          9.4850   38.0640  -45.1070 N.am    5  PRO5       -0.2726
     25  CA         8.8890   38.7110  -46.2960 C.3     5  PRO5        0.1402
     26  C          9.8510   38.9680  -47.4600 C.2     5  PRO5        0.2269
     27  O         11.0760   38.9170  -47.2820 O.2     5  PRO5       -0.2865
     28  CB         8.2930   40.0120  -45.7520 C.3     5  PRO5        0.0296
     29  CG         8.9730   40.2470  -44.4610 C.3     5  PRO5        0.0237
     30  CD         9.4380   38.9220  -43.9180 C.3     5  PRO5        0.0939
     31  N         13.5780   35.8580  -35.4310 N.3   199  VAL199     -0.1231
     32  CA        14.0720   37.0000  -34.7060 C.3   199  VAL199      0.1692
     33  C         13.4000   38.2610  -35.1920 C.2   199  VAL199      0.2592
     34  O         13.1770   38.4460  -36.3710 O.2   199  VAL199     -0.2718
     35  CB        15.6360   37.0990  -34.8150 C.3   199  VAL199      0.0266
     36  CG1       16.1130   37.0920  -36.2530 C.3   199  VAL199      0.0020
     37  CG2       16.1980   38.3110  -34.0850 C.3   199  VAL199      0.0020
     38  N         13.0970   39.1340  -34.2490 N.am  200  ASP200     -0.1960
     39  CA        12.4010   40.3530  -34.5560 C.3   200  ASP200      0.1840
     40  C         13.3430   41.3810  -35.2050 C.2   200  ASP200      0.2622
     41  O         14.5620   41.2520  -35.1330 O.2   200  ASP200     -0.2715
     42  CB        11.6760   40.8880  -33.3110 C.3   200  ASP200      0.1450
     43  CG        12.6080   41.3820  -32.2310 C.2   200  ASP200      0.3671
     44  OD1       13.1990   42.4890  -32.2920 O.co2 200  ASP200     -0.2456
     45  OD2       12.7350   40.6050  -31.2780 O.co2 200  ASP200     -0.2456
     46  N         12.7550   42.4000  -35.8250 N.am  201  ASP201     -0.1957
     47  CA        13.4890   43.3650  -36.5960 C.3   201  ASP201      0.1840
     48  C         14.3680   44.2910  -35.7210 C.2   201  ASP201      0.2621
     49  O         15.4670   44.6800  -36.1390 O.2   201  ASP201     -0.2715
     50  CB        12.4990   44.2060  -37.4200 C.3   201  ASP201      0.1450
     51  CG        13.1700   45.0680  -38.4550 C.2   201  ASP201      0.3671
     52  OD1       14.1200   44.5970  -39.1140 O.co2 201  ASP201     -0.2456
     53  OD2       12.7540   46.2440  -38.6140 O.co2 201  ASP201     -0.2456
     54  N         13.8490   44.6650  -34.5390 N.am  202  LYS202     -0.1977
     55  CA        14.6010   45.4850  -33.5970 C.3   202  LYS202      0.1596
     56  C         15.8550   44.7760  -33.0830 C.2   202  LYS202      0.2287
     57  O         16.9550   45.3090  -33.1650 O.2   202  LYS202     -0.2864
     58  CB        13.7210   45.8630  -32.4260 C.3   202  LYS202      0.0298
     59  CG        14.3820   46.8040  -31.4520 C.3   202  LYS202      0.0038
     60  CD        13.3920   47.3040  -30.4480 C.3   202  LYS202      0.0206
     61  CE        14.2970   48.0010  -29.4510 C.3   202  LYS202      0.1093
     62  NZ        14.9050   49.3100  -29.8060 N.3   202  LYS202     -0.1314
     63  N         17.2910   42.2380  -34.4370 N.3   204  MET204     -0.1245
     64  CA        18.1840   42.0010  -35.5530 C.3   204  MET204      0.1570
     65  C         19.1120   43.2000  -35.7060 C.2   204  MET204      0.2261
     66  O         20.3310   43.0530  -35.7710 O.2   204  MET204     -0.2867
     67  CB        17.3830   41.7110  -36.8380 C.3   204  MET204      0.0387
     68  CG        18.2080   41.6660  -38.1290 C.3   204  MET204      0.0595
     69  SD        19.4370   40.3330  -38.1830 S.3   204  MET204     -0.1393
     70  CE        18.3840   38.9610  -38.6850 C.3   204  MET204      0.0692
     71  N         16.3670   31.8500  -41.5630 N.3   230  ILE230     -0.1231
     72  CA        15.8940   32.9470  -40.7330 C.3   230  ILE230      0.1692
     73  C         14.4070   33.1690  -41.0940 C.2   230  ILE230      0.2592
     74  O         14.1100   33.4200  -42.2290 O.2   230  ILE230     -0.2718
     75  CB        16.6910   34.2550  -40.9580 C.3   230  ILE230      0.0266
     76  CG1       18.1880   34.0130  -40.8380 C.3   230  ILE230      0.0019
     77  CG2       16.2620   35.3060  -39.9510 C.3   230  ILE230      0.0020
     78  CD1       18.8830   33.7500  -42.1570 C.3   230  ILE230      0.0001
     79  N         13.5250   33.0710  -40.0970 N.am  231  ASN231     -0.1974
     80  CA        12.0770   33.0760  -40.3020 C.3   231  ASN231      0.1688
     81  C         11.7110   32.1410  -41.4470 C.2   231  ASN231      0.2292
     82  O         11.0450   32.5610  -42.3720 O.2   231  ASN231     -0.2864
     83  CB        11.5690   34.4730  -40.6580 C.3   231  ASN231      0.1181
     84  CG        11.6060   35.4430  -39.5190 C.2   231  ASN231      0.2629
     85  OD1       12.1280   35.1980  -38.4270 O.2   231  ASN231     -0.2716
     86  ND2       11.0170   36.6050  -39.7980 N.am  231  ASN231     -0.0877
     87  N         17.8100   34.2770  -48.5440 N.3   238  ASN238     -0.1240
     88  CA        16.9170   35.0510  -47.6920 C.3   238  ASN238      0.1653
     89  C         16.9470   36.4640  -48.2430 C.2   238  ASN238      0.2266
     90  O         17.9680   37.1500  -48.1240 O.2   238  ASN238     -0.2867
     91  CB        17.3570   35.0050  -46.2310 C.3   238  ASN238      0.1155
     92  CG        16.3400   35.6120  -45.3250 C.2   238  ASN238      0.2627
     93  OD1       16.0350   36.7980  -45.4540 O.2   238  ASN238     -0.2716
     94  ND2       15.7510   34.8100  -44.4330 N.am  238  ASN238     -0.0877
     95  N         15.2940   39.1700  -47.3780 N.3   240  GLU240     -0.1231
     96  CA        15.3500   40.1860  -46.3240 C.3   240  GLU240      0.1699
     97  C         16.7790   40.4010  -45.8340 C.2   240  GLU240      0.2592
     98  O         17.2550   41.5240  -45.8240 O.2   240  GLU240     -0.2718
     99  CB        14.4370   39.8860  -45.1260 C.3   240  GLU240      0.0402
    100  CG        14.5490   41.0240  -44.0880 C.3   240  GLU240      0.1161
    101  CD        13.3640   41.1980  -43.1630 C.2   240  GLU240      0.3649
    102  OE1       12.2320   41.3410  -43.6590 O.co2 240  GLU240     -0.2457
    103  OE2       13.5710   41.2020  -41.9230 O.co2 240  GLU240     -0.2457
    104  N         17.4770   39.3320  -45.4650 N.am  241  THR241     -0.1953
    105  CA        18.8210   39.5200  -44.8950 C.3   241  THR241      0.1897
    106  C         19.8230   39.9340  -45.9460 C.2   241  THR241      0.2313
    107  O         20.6150   40.8470  -45.6980 O.2   241  THR241     -0.2863
    108  CB        19.3050   38.3010  -44.0900 C.3   241  THR241      0.1794
    109  OG1       19.4970   37.1870  -44.9610 O.3   241  THR241     -0.2208
    110  CG2       18.3170   37.9280  -43.0060 C.3   241  THR241      0.0378
    111  N         17.7170   43.2090  -48.4670 N.3   244  LYS244     -0.1231
    112  CA        17.2050   44.3690  -47.7490 C.3   244  LYS244      0.1693
    113  C         18.2560   44.8910  -46.7510 C.2   244  LYS244      0.2591
    114  O         18.6500   46.0290  -46.8080 O.2   244  LYS244     -0.2718
    115  CB        15.9100   44.0520  -47.0120 C.3   244  LYS244      0.0285
    116  CG        15.1660   45.3100  -46.5380 C.3   244  LYS244      0.0035
    117  CD        13.8740   44.9450  -45.8290 C.3   244  LYS244      0.0206
    118  CE        13.1400   46.2010  -45.3970 C.3   244  LYS244      0.1093
    119  NZ        11.8320   45.8750  -44.7720 N.3   244  LYS244     -0.1314
    120  N         18.7160   44.0320  -45.8520 N.am  245  LEU245     -0.1980
    121  CA        19.6140   44.4460  -44.7550 C.3   245  LEU245      0.1596
    122  C         21.0250   44.6470  -45.2460 C.2   245  LEU245      0.2287
    123  O         21.5540   45.7510  -45.2010 O.2   245  LEU245     -0.2864
    124  CB        19.5550   43.4190  -43.6270 C.3   245  LEU245      0.0297
    125  CG        18.1940   43.1960  -42.9970 C.3   245  LEU245      0.0022
    126  CD1       18.2920   42.1600  -41.9010 C.3   245  LEU245      0.0001
    127  CD2       17.6190   44.4970  -42.4520 C.3   245  LEU245      0.0001
    128  N         11.0510   50.2830  -35.6780 N.3   806  VAL806     -0.1245
    129  CA        10.4530   49.3870  -36.6580 C.3   806  VAL806      0.1561
    130  C          9.4350   50.1000  -37.5900 C.2   806  VAL806      0.2260
    131  O          9.3330   49.7610  -38.7580 O.2   806  VAL806     -0.2867
    132  CB         9.8190   48.1810  -35.9480 C.3   806  VAL806      0.0252
    133  CG1        9.0740   47.3300  -36.9480 C.3   806  VAL806      0.0019
    134  CG2       10.9120   47.3330  -35.2800 C.3   806  VAL806      0.0019
    135  N         11.3390   52.3640  -39.9520 N.3   809  GLN809     -0.1245
    136  CA        12.4440   51.6280  -40.5720 C.3   809  GLN809      0.1566
    137  C         13.6830   52.5160  -40.6080 C.2   809  GLN809      0.2260
    138  O         14.3070   52.7310  -41.6400 O.2   809  GLN809     -0.2867
    139  CB        12.0520   51.1160  -41.9490 C.3   809  GLN809      0.0367
    140  CG        11.1060   49.9400  -41.8780 C.3   809  GLN809      0.0905
    141  CD        11.8070   48.6650  -41.4400 C.2   809  GLN809      0.2608
    142  OE1       12.7990   48.2590  -42.0560 O.2   809  GLN809     -0.2717
    143  NE2       11.2890   48.0190  -40.3840 N.am  809  GLN809     -0.0878
@<TRIPOS>BOND
     1    87    88    1
     2   111   112    1
     3    89    90    2
     4    89    88    1
     5    17    16    1
     6   112   115    1
     7   112   113    1
     8    88    91    1
     9    26    27    2
    10    26    25    1
    11    95    96    1
    12   115   116    1
    13    16    14   ar
    14    16    15   ar
    15   114   113    2
    16   113   120   am
    17   116   117    1
    18    14    12   ar
    19    21    20    2
    20    96    97    1
    21    96    99    1
    22    25    28    1
    23    25    24    1
    24    91    92    1
    25   106   107    2
    26   106   105    1
    27   120   121    1
    28    97    98    2
    29    97   104   am
    30   117   118    1
    31    15    13   ar
    32    28    29    1
    33   104   105    1
    34    93    92    2
    35   118   119    1
    36    92    94   am
    37    20    24   am
    38    20    19    1
    39   122   123    2
    40   122   121    1
    41    12    11   ar
    42    99   100    1
    43    24    30    1
    44   109   108    1
    45   105   108    1
    46   121   124    1
    47    29    30    1
    48    13    11   ar
    49    23    22    1
    50    22    19    1
    51    11    10    1
    52   108   110    1
    53   100   101    1
    54    19    18    1
    55   102   101   ar
    56   124   125    1
    57    18     8   am
    58   101   103   ar
    59   125   127    1
    60   125   126    1
    61    10     7    1
    62     8     7    1
    63     8     9    2
    64    82    81    2
    65     7     6    1
    66    74    73    2
    67    78    76    1
    68   142   141    2
    69   139   140    1
    70   139   136    1
    71   140   141    1
    72   138   137    2
    73    71    72    1
    74    81    80    1
    75   141   143   am
    76    73    72    1
    77    73    79   am
    78    75    76    1
    79    75    72    1
    80    75    77    1
    81     4     3    2
    82     6     3   am
    83    83    80    1
    84    83    84    1
    85   137   136    1
    86   136   135    1
    87    80    79    1
    88     3     2    1
    89    86    84   am
    90    84    85    2
    91    52    51   ar
    92     2     1    1
    93     2     5    1
    94   131   130    2
    95    70    69    1
    96    53    51   ar
    97    51    50    1
    98    69    68    1
    99    68    67    1
   100   130   129    1
   101    50    47    1
   102   133   132    1
   103    67    64    1
   104   129   132    1
   105   129   128    1
   106    47    46    1
   107    47    48    1
   108    34    33    2
   109    36    35    1
   110    49    48    2
   111   132   134    1
   112    46    40   am
   113    66    65    2
   114    48    54   am
   115    65    64    1
   116    64    63    1
   117    31    32    1
   118    40    41    2
   119    40    39    1
   120    33    32    1
   121    33    38   am
   122    35    32    1
   123    35    37    1
   124    39    38    1
   125    39    42    1
   126    54    55    1
   127    55    56    1
   128    55    58    1
   129    42    43    1
   130    57    56    2
   131    58    59    1
   132    44    43   ar
   133    43    45   ar
   134    59    60    1
   135    60    61    1
   136    62    61    1
