@<TRIPOS>MOLECULE
tmp/5fjjC00.pdb
 174 166 0 0 0
SMALL
GASTEIGER

@<TRIPOS>ATOM
      1  N         78.9860   -3.7290   25.9880 N.3    34  THR34      -0.1218
      2  CA        78.3320   -4.8790   26.6050 C.3    34  THR34       0.1862
      3  C         77.8370   -5.7960   25.4740 C.2    34  THR34       0.2287
      4  O         77.7550   -5.3660   24.3340 O.2    34  THR34      -0.2866
      5  CB        77.1140   -4.4480   27.4420 C.3    34  THR34       0.1770
      6  OG1       76.0810   -3.9440   26.5790 O.3    34  THR34      -0.2211
      7  CG2       77.4740   -3.3700   28.4410 C.3    34  THR34       0.0375
      8  N         74.8530   -6.8870   24.6730 N.3    36  THR36      -0.1203
      9  CA        73.6840   -6.3150   24.0060 C.3    36  THR36       0.1994
     10  C         73.9300   -5.0470   23.1380 C.2    36  THR36       0.2617
     11  O         73.1440   -4.7360   22.2400 O.2    36  THR36      -0.2717
     12  CB        72.5820   -5.9920   25.0530 C.3    36  THR36       0.1784
     13  OG1       73.1600   -5.3080   26.1650 O.3    36  THR36      -0.2211
     14  CG2       71.9220   -7.2550   25.5130 C.3    36  THR36       0.0376
     15  N         74.9420   -4.2740   23.4770 N.am   37  GLU37      -0.1979
     16  CA        75.3190   -3.1390   22.6460 C.3    37  GLU37       0.1602
     17  C         75.8870   -3.6580   21.3250 C.2    37  GLU37       0.2287
     18  O         75.5820   -3.1100   20.2510 O.2    37  GLU37      -0.2864
     19  CB        76.3320   -2.2760   23.3820 C.3    37  GLU37       0.0415
     20  CG        75.6930   -1.4720   24.4990 C.3    37  GLU37       0.1163
     21  CD        76.7080   -0.7330   25.3670 C.2    37  GLU37       0.3649
     22  OE1       77.9000   -1.1290   25.4340 O.co2  37  GLU37      -0.2457
     23  OE2       76.2970    0.2680   25.9920 O.co2  37  GLU37      -0.2457
     24  N         73.2000   -5.0160   19.1630 N.3    40  ASN40      -0.1240
     25  CA        72.4580   -3.9000   18.5680 C.3    40  ASN40       0.1653
     26  C         73.0220   -3.4750   17.1790 C.2    40  ASN40       0.2266
     27  O         72.2630   -3.2050   16.2580 O.2    40  ASN40      -0.2867
     28  CB        72.4780   -2.6760   19.5160 C.3    40  ASN40       0.1155
     29  CG        71.0670   -2.2420   19.9840 C.2    40  ASN40       0.2627
     30  OD1       70.0600   -2.8610   19.6720 O.2    40  ASN40      -0.2716
     31  ND2       71.0320   -1.1930   20.7770 N.am   40  ASN40      -0.0877
     32  N         66.3990   -2.8840   13.2970 N.3    45  THR45      -0.1218
     33  CA        65.3690   -2.6610   14.2490 C.3    45  THR45       0.1862
     34  C         63.9610   -2.9190   13.7050 C.2    45  THR45       0.2287
     35  O         62.9850   -2.7070   14.4490 O.2    45  THR45      -0.2866
     36  CB        65.4520   -1.2320   14.8540 C.3    45  THR45       0.1770
     37  OG1       65.3240   -0.2530   13.8080 O.3    45  THR45      -0.2211
     38  CG2       66.7700   -1.0730   15.5730 C.3    45  THR45       0.0375
     39  N         62.0200    2.8050   11.6610 N.3    50  GLU50      -0.1245
     40  CA        62.7630    4.0460   11.8060 C.3    50  GLU50       0.1567
     41  C         62.7610    4.7900   10.4580 C.2    50  GLU50       0.2260
     42  O         61.7310    4.8150    9.7990 O.2    50  GLU50      -0.2867
     43  CB        64.1150    3.7760   12.3930 C.3    50  GLU50       0.0388
     44  CG        64.0310    3.0770   13.7430 C.3    50  GLU50       0.1160
     45  CD        65.3210    3.1180   14.5160 C.2    50  GLU50       0.3649
     46  OE1       65.7110    4.2320   14.9460 O.co2  50  GLU50      -0.2457
     47  OE2       65.9390    2.0530   14.6990 O.co2  50  GLU50      -0.2457
     48  N         70.3740   -0.0060   12.1570 N.3    56  THR56      -0.1203
     49  CA        70.8270   -0.9020   13.2080 C.3    56  THR56       0.1994
     50  C         70.3250   -0.3350   14.5400 C.2    56  THR56       0.2618
     51  O         69.8470    0.7900   14.6250 O.2    56  THR56      -0.2717
     52  CB        72.3660   -0.9680   13.2620 C.3    56  THR56       0.1784
     53  OG1       72.8950    0.3240   13.5890 O.3    56  THR56      -0.2211
     54  CG2       72.9560   -1.4120   11.9270 C.3    56  THR56       0.0376
     55  N         70.5220   -1.0950   15.5980 N.am   57  GLY57      -0.1942
     56  CA        70.4140   -0.5440   16.9370 C.3    57  GLY57       0.2014
     57  C         71.5450    0.4210   17.1550 C.2    57  GLY57       0.2639
     58  O         72.5270    0.3970   16.3980 O.2    57  GLY57      -0.2714
     59  N         71.4150    1.2370   18.2060 N.am   58  SER58      -0.1949
     60  CA        72.4030    2.2160   18.5890 C.3    58  SER58       0.1924
     61  C         73.2360    1.7400   19.8070 C.2    58  SER58       0.2314
     62  O         72.9650    0.6990   20.3890 O.2    58  SER58      -0.2863
     63  CB        71.7170    3.5270   18.9140 C.3    58  SER58       0.2116
     64  OG        70.6190    3.2970   19.7610 O.3    58  SER58      -0.2180
     65  N         73.9630    4.1650   22.5220 N.3    60  PRO60      -0.2116
     66  CA        73.9420    5.5070   23.1270 C.3    60  PRO60       0.1372
     67  C         74.9450    5.7360   24.2850 C.2    60  PRO60       0.2244
     68  O         75.5220    6.8140   24.3610 O.2    60  PRO60      -0.2868
     69  CB        72.4620    5.7120   23.5440 C.3    60  PRO60       0.0268
     70  CG        71.9160    4.3270   23.6770 C.3    60  PRO60       0.0207
     71  CD        72.6680    3.4780   22.6800 C.3    60  PRO60       0.0892
     72  N         72.6860    4.9390   15.5690 N.3    66  SER66      -0.1217
     73  CA        72.2370    3.9290   14.6580 C.3    66  SER66       0.1889
     74  C         72.8660    4.1570   13.2560 C.2    66  SER66       0.2288
     75  O         72.8930    5.2840   12.7650 O.2    66  SER66      -0.2866
     76  CB        70.6960    3.9830   14.6320 C.3    66  SER66       0.2089
     77  OG        70.1750    3.2660   13.5450 O.3    66  SER66      -0.2183
     78  N         57.9830    5.9610   14.6410 N.3   346  HIS346     -0.1241
     79  CA        57.9560    4.5440   14.2660 C.3   346  HIS346      0.1621
     80  C         56.7510    4.3000   13.3530 C.2   346  HIS346      0.2264
     81  O         55.6280    4.0170   13.7880 O.2   346  HIS346     -0.2867
     82  CB        57.9600    3.6250   15.4990 C.3   346  HIS346      0.0745
     83  CG        59.0270    3.9770   16.4690 C.ar  346  HIS346      0.0817
     84  ND1       60.3630    3.8010   16.1900 N.ar  346  HIS346     -0.2268
     85  CD2       58.9720    4.5940   17.6670 C.ar  346  HIS346      0.1154
     86  CE1       61.0840    4.2590   17.1980 C.ar  346  HIS346      0.1986
     87  NE2       60.2620    4.7390   18.1130 N.ar  346  HIS346     -0.2212
     88  N         55.9660    6.1150   19.1170 N.3   352  GLY352     -0.1210
     89  CA        57.0100    7.1160   19.3110 C.3   352  GLY352      0.1956
     90  C         56.4580    8.5230   19.1260 C.2   352  GLY352      0.2611
     91  O         55.2700    8.6980   18.9400 O.2   352  GLY352     -0.2717
     92  N         57.3420    9.5110   19.1770 N.am  353  ALA353     -0.1979
     93  CA        56.9470   10.9230   19.0490 C.3   353  ALA353      0.1597
     94  C         56.3380   11.2260   17.7090 C.2   353  ALA353      0.2287
     95  O         56.7430   10.6600   16.6960 O.2   353  ALA353     -0.2864
     96  CB        58.1460   11.8420   19.2740 C.3   353  ALA353      0.0319
     97  N         56.5370   13.7870   15.2130 N.3   355  GLU355     -0.1245
     98  CA        57.5670   14.7900   15.0150 C.3   355  GLU355      0.1567
     99  C         57.8530   15.0890   13.5390 C.2   355  GLU355      0.2260
    100  O         57.2470   14.5060   12.6460 O.2   355  GLU355     -0.2867
    101  CB        58.8160   14.3160   15.7240 C.3   355  GLU355      0.0388
    102  CG        59.3730   13.0030   15.1980 C.3   355  GLU355      0.1160
    103  CD        60.5200   12.4740   16.0430 C.2   355  GLU355      0.3649
    104  OE1       61.0430   13.2060   16.9060 O.co2 355  GLU355     -0.2457
    105  OE2       60.8820   11.3150   15.8490 O.co2 355  GLU355     -0.2457
    106  N         61.8700    0.8930   30.1280 N.3   679  LEU679     -0.1231
    107  CA        61.8760    1.0860   28.6870 C.3   679  LEU679      0.1693
    108  C         60.4970    0.7250   28.0990 C.2   679  LEU679      0.2591
    109  O         60.0480   -0.4060   28.2550 O.2   679  LEU679     -0.2718
    110  CB        62.9310    0.2070   28.0470 C.3   679  LEU679      0.0284
    111  CG        62.9900    0.4110   26.5270 C.3   679  LEU679      0.0019
    112  CD1       64.1780    1.2780   26.1090 C.3   679  LEU679      0.0001
    113  CD2       62.9700   -0.8880   25.7710 C.3   679  LEU679      0.0001
    114  N         59.8530    1.6940   27.4350 N.am  680  GLU680     -0.1979
    115  CA        58.6210    1.4370   26.7070 C.3   680  GLU680      0.1602
    116  C         59.0080    0.7180   25.4280 C.2   680  GLU680      0.2287
    117  O         59.6910    1.2610   24.5510 O.2   680  GLU680     -0.2864
    118  CB        57.8050    2.7110   26.4050 C.3   680  GLU680      0.0415
    119  CG        56.3910    2.3380   25.8940 C.3   680  GLU680      0.1163
    120  CD        55.5640    3.3920   25.1430 C.2   680  GLU680      0.3649
    121  OE1       54.7840    4.1270   25.7790 O.co2 680  GLU680     -0.2457
    122  OE2       55.5970    3.4140   23.8750 O.co2 680  GLU680     -0.2457
    123  N         58.5090   -0.5100   21.9120 N.3   682  ILE682     -0.1245
    124  CA        57.7360   -0.1830   20.6890 C.3   682  ILE682      0.1561
    125  C         57.3750   -1.5060   20.0350 C.2   682  ILE682      0.2260
    126  O         58.2230   -2.4020   19.9310 O.2   682  ILE682     -0.2867
    127  CB        58.5680    0.7020   19.7230 C.3   682  ILE682      0.0252
    128  CG1       58.9700    2.0210   20.4060 C.3   682  ILE682      0.0019
    129  CG2       57.8480    0.9370   18.4130 C.3   682  ILE682      0.0019
    130  CD1       57.8040    2.9080   20.8430 C.3   682  ILE682      0.0001
    131  N         59.4190   -3.5700   17.0830 N.3   685  PHE685     -0.1241
    132  CA        60.7740   -3.1190   17.1280 C.3   685  PHE685      0.1605
    133  C         61.6600   -4.2430   17.6440 C.2   685  PHE685      0.2264
    134  O         61.2840   -4.9670   18.5740 O.2   685  PHE685     -0.2867
    135  CB        60.8750   -1.8780   18.0090 C.3   685  PHE685      0.0534
    136  CG        62.1140   -1.0380   17.7810 C.ar  685  PHE685     -0.0203
    137  CD1       63.3140   -1.3610   18.4210 C.ar  685  PHE685     -0.0042
    138  CD2       62.0740    0.1130   16.9960 C.ar  685  PHE685     -0.0042
    139  CE1       64.4530   -0.5450   18.2640 C.ar  685  PHE685     -0.0003
    140  CE2       63.1880    0.9420   16.8530 C.ar  685  PHE685     -0.0003
    141  CZ        64.3780    0.6250   17.4670 C.ar  685  PHE685     -0.0000
    142  N         64.8600   -5.3750   19.5170 N.3   687  TYR687     -0.1228
    143  CA        65.7890   -4.9450   20.5790 C.3   687  TYR687      0.1721
    144  C         66.7850   -6.0900   20.8400 C.2   687  TYR687      0.2437
    145  O         66.5800   -7.2150   20.3840 O.2   687  TYR687     -0.2733
    146  CB        65.0010   -4.6310   21.8420 C.3   687  TYR687      0.0547
    147  CG        64.0740   -3.4350   21.7940 C.ar  687  TYR687     -0.0200
    148  CD1       64.5750   -2.1500   21.9360 C.ar  687  TYR687     -0.0009
    149  CD2       62.7140   -3.5810   21.6420 C.ar  687  TYR687     -0.0009
    150  CE1       63.7460   -1.0490   21.9470 C.ar  687  TYR687      0.0417
    151  CE2       61.8770   -2.4770   21.6250 C.ar  687  TYR687      0.0417
    152  CZ        62.3930   -1.2180   21.7940 C.ar  687  TYR687      0.1957
    153  OH        61.5700   -0.0980   21.8100 O.3   687  TYR687     -0.2866
    154  N         67.9150   -5.7970   21.5180 N.am  688  PRO688     -0.2718
    155  CA        68.9320   -6.8300   21.7680 C.3   688  PRO688      0.1535
    156  C         68.6740   -7.6440   23.0450 C.2   688  PRO688      0.2598
    157  O         69.2970   -8.6850   23.2570 O.2   688  PRO688     -0.2715
    158  CB        70.2220   -6.0020   21.9020 C.3   688  PRO688      0.0310
    159  CG        69.7410   -4.7060   22.4620 C.3   688  PRO688      0.0237
    160  CD        68.3720   -4.4600   21.9210 C.3   688  PRO688      0.0939
    161  N         67.7910   -7.1150   23.8850 N.am  689  TRP689     -0.1974
    162  CA        67.5380   -7.5910   25.2360 C.3   689  TRP689      0.1640
    163  C         66.7230   -8.8840   25.2720 C.2   689  TRP689      0.2290
    164  O         65.9780   -9.1890   24.3400 O.2   689  TRP689     -0.2864
    165  CB        66.8110   -6.4930   26.0310 C.3   689  TRP689      0.0576
    166  CG        67.6410   -5.3000   26.3250 C.ar  689  TRP689      0.0006
    167  CD1       68.7930   -5.2610   27.0770 C.ar  689  TRP689      0.0946
    168  CD2       67.3630   -3.9630   25.9350 C.ar  689  TRP689      0.0152
    169  NE1       69.2620   -3.9770   27.1360 N.ar  689  TRP689     -0.2442
    170  CE2       68.3870   -3.1530   26.4670 C.ar  689  TRP689      0.0810
    171  CE3       66.3440   -3.3570   25.1980 C.ar  689  TRP689      0.0012
    172  CZ2       68.4200   -1.7470   26.2860 C.ar  689  TRP689      0.0191
    173  CZ3       66.3770   -1.9700   25.0340 C.ar  689  TRP689      0.0001
    174  CH2       67.4220   -1.1900   25.5530 C.ar  689  TRP689      0.0015
@<TRIPOS>BOND
     1    42    41    2
     2    41    40    1
     3    39    40    1
     4    40    43    1
     5    54    52    1
     6    48    49    1
     7    43    44    1
     8   100    99    2
     9    75    74    2
    10    49    52    1
    11    49    50    1
    12    74    73    1
    13    52    53    1
    14    32    33    1
    15    80    81    2
    16    80    79    1
    17    99    98    1
    18    77    76    1
    19    34    33    1
    20    34    35    2
    21    44    45    1
    22    37    36    1
    23    33    36    1
    24    79    78    1
    25    79    82    1
    26    45    47   ar
    27    45    46   ar
    28    50    51    2
    29    50    55   am
    30    76    73    1
    31    73    72    1
    32    36    38    1
    33    98    97    1
    34    98   101    1
    35   102   101    1
    36   102   103    1
    37    82    83    1
    38    55    56    1
    39   105   103   ar
    40   103   104   ar
    41    84    83   ar
    42    84    86   ar
    43    27    26    2
    44    58    57    2
    45    83    85   ar
    46    95    94    2
    47   140   138   ar
    48   140   141   ar
    49    56    57    1
    50   138   136   ar
    51   131   132    1
    52   132   133    1
    53   132   135    1
    54    57    59   am
    55    26    25    1
    56    86    87   ar
    57   141   139   ar
    58   133   134    2
    59    85    87   ar
    60    94    93    1
    61   136   135    1
    62   136   137   ar
    63    59    60    1
    64   139   137   ar
    65   129   127    1
    66    25    24    1
    67    25    28    1
    68    60    63    1
    69    60    61    1
    70    63    64    1
    71    91    90    2
    72    93    92    1
    73    93    96    1
    74    88    89    1
    75    90    92   am
    76    90    89    1
    77    28    29    1
    78   142   143    1
    79    30    29    2
    80   127   128    1
    81   127   124    1
    82    61    62    2
    83   126   125    2
    84    29    31   am
    85   125   124    1
    86    18    17    2
    87   145   144    2
    88   128   130    1
    89   143   144    1
    90   143   146    1
    91   124   123    1
    92   144   154   am
    93    17    16    1
    94   154   155    1
    95   154   160    1
    96   151   149   ar
    97   151   152   ar
    98   149   147   ar
    99   155   158    1
   100   155   156    1
   101   152   153    1
   102   152   150   ar
   103   147   146    1
   104   147   148   ar
   105   158   159    1
   106   160   159    1
   107   148   150   ar
   108    11    10    2
   109    65    71    1
   110    65    66    1
   111    16    19    1
   112    16    15    1
   113    71    70    1
   114   156   157    2
   115   156   161   am
   116    66    69    1
   117    66    67    1
   118    10    15   am
   119    10     9    1
   120    19    20    1
   121    69    70    1
   122   122   120   ar
   123   161   162    1
   124     9     8    1
   125     9    12    1
   126    67    68    2
   127     4     3    2
   128   164   163    2
   129    20    21    1
   130   117   116    2
   131   173   171   ar
   132   173   174   ar
   133    12    14    1
   134    12    13    1
   135   120   121   ar
   136   120   119    1
   137   171   168   ar
   138   162   163    1
   139   162   165    1
   140    21    22   ar
   141    21    23   ar
   142   116   115    1
   143     3     2    1
   144   174   172   ar
   145   113   111    1
   146   119   118    1
   147   168   166   ar
   148   168   170   ar
   149     1     2    1
   150   165   166    1
   151   112   111    1
   152   172   170   ar
   153   166   167   ar
   154   118   115    1
   155   170   169   ar
   156   111   110    1
   157     6     5    1
   158     2     5    1
   159   115   114    1
   160   167   169   ar
   161   114   108   am
   162     5     7    1
   163   110   107    1
   164   108   109    2
   165   108   107    1
   166   107   106    1
