@<TRIPOS>MOLECULE
tmp/5fjjD00.pdb
 93 93 0 0 0
SMALL
GASTEIGER

@<TRIPOS>ATOM
      1  N         44.2920   18.7360  -49.8040 N.3   337  TRP337     -0.1227
      2  CA        43.7910   17.3740  -49.7470 C.3   337  TRP337      0.1737
      3  C         44.8620   16.3320  -49.5090 C.2   337  TRP337      0.2596
      4  O         44.5520   15.1950  -49.1380 O.2   337  TRP337     -0.2718
      5  CB        43.0460   17.0650  -51.0270 C.3   337  TRP337      0.0564
      6  CG        42.2010   18.2080  -51.4600 C.ar  337  TRP337      0.0003
      7  CD1       42.3540   18.9270  -52.5940 C.ar  337  TRP337      0.0946
      8  CD2       41.1540   18.8470  -50.7070 C.ar  337  TRP337      0.0152
      9  NE1       41.4320   19.9320  -52.6270 N.ar  337  TRP337     -0.2442
     10  CE2       40.6670   19.8960  -51.4910 C.ar  337  TRP337      0.0810
     11  CE3       40.5650   18.6000  -49.4720 C.ar  337  TRP337      0.0012
     12  CZ2       39.6360   20.7280  -51.0760 C.ar  337  TRP337      0.0191
     13  CZ3       39.5020   19.4130  -49.0590 C.ar  337  TRP337      0.0001
     14  CH2       39.0450   20.4600  -49.8660 C.ar  337  TRP337      0.0015
     15  N         46.1240   16.7140  -49.5930 N.am  338  THR338     -0.1939
     16  CA        47.2250   15.8300  -49.2240 C.3   338  THR338      0.2028
     17  C         48.4110   16.6990  -48.7550 C.2   338  THR338      0.2642
     18  O         48.5390   17.8720  -49.1620 O.2   338  THR338     -0.2714
     19  CB        47.6240   14.9730  -50.4530 C.3   338  THR338      0.1808
     20  OG1       48.7320   14.1280  -50.1650 O.3   338  THR338     -0.2208
     21  CG2       48.0270   15.8510  -51.6240 C.3   338  THR338      0.0379
     22  N         49.2710   16.1110  -47.9320 N.am  339  ARG339     -0.1963
     23  CA        50.5400   16.7220  -47.5720 C.3   339  ARG339      0.1729
     24  C         51.6960   16.1530  -48.3910 C.2   339  ARG339      0.2616
     25  O         52.8150   16.6460  -48.2460 O.2   339  ARG339     -0.2715
     26  CB        50.8410   16.5330  -46.0680 C.3   339  ARG339      0.0348
     27  CG        49.8000   17.1250  -45.1550 C.3   339  ARG339      0.0492
     28  CD        50.0360   18.6110  -44.8450 C.3   339  ARG339      0.2205
     29  NE        50.0970   19.4950  -46.0060 N.pl3 339  ARG339     -0.0865
     30  CZ        49.0650   20.0000  -46.6710 C.cat 339  ARG339      0.5346
     31  NH1       47.8270   19.7740  -46.2900 N.pl3 339  ARG339      0.1354
     32  NH2       49.2780   20.7910  -47.7140 N.pl3 339  ARG339      0.1354
     33  N         51.4350   15.1870  -49.2840 N.am  340  ASP340     -0.1971
     34  CA        52.4810   14.7130  -50.1860 C.3   340  ASP340      0.1709
     35  C         52.9870   15.8120  -51.1620 C.2   340  ASP340      0.2293
     36  O         52.2330   16.6980  -51.6230 O.2   340  ASP340     -0.2864
     37  CB        51.9880   13.5520  -51.0530 C.3   340  ASP340      0.1436
     38  CG        51.4820   12.3910  -50.2530 C.2   340  ASP340      0.3671
     39  OD1       51.8190   12.2610  -49.0610 O.co2 340  ASP340     -0.2456
     40  OD2       50.6820   11.6190  -50.8180 O.co2 340  ASP340     -0.2456
     41  N         53.7300   15.2740  -54.3260 N.3   342  TYR342     -0.1227
     42  CA        53.1270   15.0250  -55.6310 C.3   342  TYR342      0.1736
     43  C         51.7350   14.5110  -55.4780 C.2   342  TYR342      0.2596
     44  O         51.4320   13.7360  -54.5540 O.2   342  TYR342     -0.2718
     45  CB        53.9990   14.0290  -56.4520 C.3   342  TYR342      0.0548
     46  CG        55.2650   14.6580  -56.9400 C.ar  342  TYR342     -0.0200
     47  CD1       55.2770   15.4340  -58.0870 C.ar  342  TYR342     -0.0009
     48  CD2       56.4480   14.5320  -56.2300 C.ar  342  TYR342     -0.0009
     49  CE1       56.4420   16.0560  -58.5220 C.ar  342  TYR342      0.0417
     50  CE2       57.6260   15.1410  -56.6630 C.ar  342  TYR342      0.0417
     51  CZ        57.6160   15.8950  -57.8070 C.ar  342  TYR342      0.1957
     52  OH        58.7860   16.5180  -58.2160 O.3   342  TYR342     -0.2866
     53  N         50.8890   14.8390  -56.4410 N.am  343  GLY343     -0.1942
     54  CA        49.5440   14.2490  -56.4950 C.3   343  GLY343      0.2014
     55  C         48.8100   14.7000  -57.7360 C.2   343  GLY343      0.2638
     56  O         49.3640   15.4300  -58.5410 O.2   343  GLY343     -0.2714
     57  N         47.6200   14.1710  -57.9280 N.am  344  PHE344     -0.1973
     58  CA        46.8230   14.4970  -59.1020 C.3   344  PHE344      0.1639
     59  C         46.2810   15.8920  -58.9390 C.2   344  PHE344      0.2290
     60  O         45.8910   16.2750  -57.8370 O.2   344  PHE344     -0.2864
     61  CB        45.6820   13.4930  -59.2880 C.3   344  PHE344      0.0560
     62  CG        46.1390   12.1480  -59.7820 C.ar  344  PHE344     -0.0200
     63  CD1       46.5860   12.0030  -61.1010 C.ar  344  PHE344     -0.0042
     64  CD2       46.1480   11.0370  -58.9490 C.ar  344  PHE344     -0.0042
     65  CE1       47.0210   10.7680  -61.5700 C.ar  344  PHE344     -0.0003
     66  CE2       46.5840    9.8040  -59.4130 C.ar  344  PHE344     -0.0003
     67  CZ        47.0210    9.6690  -60.7220 C.ar  344  PHE344     -0.0000
     68  N         41.9180   16.0550  -57.1020 N.3   347  ASN347     -0.1240
     69  CA        42.2790   15.0750  -56.1130 C.3   347  ASN347      0.1653
     70  C         41.1830   14.0530  -55.9370 C.2   347  ASN347      0.2266
     71  O         41.4860   12.8790  -55.8130 O.2   347  ASN347     -0.2867
     72  CB        42.6420   15.7240  -54.7660 C.3   347  ASN347      0.1155
     73  CG        42.9550   14.7000  -53.7020 C.2   347  ASN347      0.2627
     74  OD1       42.0620   14.2480  -52.9910 O.2   347  ASN347     -0.2716
     75  ND2       44.2030   14.2710  -53.6340 N.am  347  ASN347     -0.0877
     76  N         41.3090   11.5790  -58.9960 N.3   350  SER350     -0.1217
     77  CA        42.6180   11.1860  -59.4920 C.3   350  SER350      0.1889
     78  C         42.7360   11.4150  -61.0020 C.2   350  SER350      0.2288
     79  O         43.1220   10.5300  -61.7490 O.2   350  SER350     -0.2866
     80  CB        42.9260    9.7220  -59.1330 C.3   350  SER350      0.2089
     81  OG        42.9920    9.5010  -57.7410 O.3   350  SER350     -0.2183
     82  N         49.7000   14.4340  -62.9040 N.3   354  TYR354     -0.1241
     83  CA        50.3100   14.0070  -61.6760 C.3   354  TYR354      0.1605
     84  C         51.5240   14.8980  -61.4930 C.2   354  TYR354      0.2264
     85  O         52.5040   14.7750  -62.2040 O.2   354  TYR354     -0.2867
     86  CB        50.7270   12.5550  -61.7580 C.3   354  TYR354      0.0534
     87  CG        51.1160   12.0340  -60.4250 C.ar  354  TYR354     -0.0201
     88  CD1       50.1300   11.6700  -59.5010 C.ar  354  TYR354     -0.0009
     89  CD2       52.4520   11.9580  -60.0440 C.ar  354  TYR354     -0.0009
     90  CE1       50.4610   11.2100  -58.2350 C.ar  354  TYR354      0.0417
     91  CE2       52.7970   11.4940  -58.7760 C.ar  354  TYR354      0.0417
     92  CZ        51.7930   11.1250  -57.8770 C.ar  354  TYR354      0.1957
     93  OH        52.1040   10.6590  -56.6320 O.3   354  TYR354     -0.2866
@<TRIPOS>BOND
     1    82    83    1
     2    85    84    2
     3    86    83    1
     4    86    87    1
     5    79    78    2
     6    83    84    1
     7    65    63   ar
     8    65    67   ar
     9    63    62   ar
    10    78    77    1
    11    67    66   ar
    12    87    89   ar
    13    87    88   ar
    14    89    91   ar
    15    62    61    1
    16    62    64   ar
    17    88    90   ar
    18    77    80    1
    19    77    76    1
    20    66    64   ar
    21    61    58    1
    22    80    81    1
    23    58    59    1
    24    58    57    1
    25    59    60    2
    26    91    92   ar
    27    56    55    2
    28    49    47   ar
    29    49    51   ar
    30    90    92   ar
    31    52    51    1
    32    47    46   ar
    33    57    55   am
    34    92    93    1
    35    51    50   ar
    36    55    54    1
    37    68    69    1
    38    46    45    1
    39    46    48   ar
    40    50    48   ar
    41    54    53    1
    42    45    42    1
    43    53    43   am
    44    69    70    1
    45    69    72    1
    46    70    71    2
    47    42    43    1
    48    42    41    1
    49    43    44    2
    50    72    73    1
    51    73    75   am
    52    73    74    2
    53     9     7   ar
    54     9    10   ar
    55     7     6   ar
    56    21    19    1
    57    36    35    2
    58    10    12   ar
    59    10     8   ar
    60     6     5    1
    61     6     8   ar
    62    35    34    1
    63    12    14   ar
    64    37    38    1
    65    37    34    1
    66     5     2    1
    67    40    38   ar
    68     8    11   ar
    69    19    20    1
    70    19    16    1
    71    38    39   ar
    72    34    33    1
    73    14    13   ar
    74     1     2    1
    75     2     3    1
    76    15     3   am
    77    15    16    1
    78     3     4    2
    79    11    13   ar
    80    33    24   am
    81    16    17    1
    82    18    17    2
    83    17    22   am
    84    24    25    2
    85    24    23    1
    86    22    23    1
    87    32    30    1
    88    23    26    1
    89    30    31    1
    90    30    29    2
    91    26    27    1
    92    29    28    1
    93    27    28    1
