@<TRIPOS>MOLECULE
tmp/5fjjC03.pdb
 93 90 0 0 0
SMALL
GASTEIGER

@<TRIPOS>ATOM
      1  N         56.0690    6.0910  -27.6900 N.3   402  GLU402     -0.1245
      2  CA        55.7870    6.4010  -26.3010 C.3   402  GLU402      0.1567
      3  C         57.0540    6.6820  -25.4800 C.2   402  GLU402      0.2260
      4  O         57.0200    7.5410  -24.5890 O.2   402  GLU402     -0.2867
      5  CB        54.9750    5.2630  -25.6450 C.3   402  GLU402      0.0388
      6  CG        54.4170    5.6810  -24.2760 C.3   402  GLU402      0.1160
      7  CD        53.6580    4.6010  -23.5450 C.2   402  GLU402      0.3649
      8  OE1       53.0820    3.7240  -24.1950 O.co2 402  GLU402     -0.2457
      9  OE2       53.6440    4.6270  -22.3040 O.co2 402  GLU402     -0.2457
     10  N         55.5180   10.1530  -18.6600 N.3   407  ASN407     -0.1225
     11  CA        54.7010    9.3210  -17.7810 C.3   407  ASN407      0.1785
     12  C         53.5680   10.1970  -17.2830 C.2   407  ASN407      0.2598
     13  O         53.8110   11.1190  -16.5210 O.2   407  ASN407     -0.2718
     14  CB        55.5260    8.7540  -16.6240 C.3   407  ASN407      0.1169
     15  CG        54.7320    7.7710  -15.7720 C.2   407  ASN407      0.2627
     16  OD1       53.5020    7.8240  -15.7240 O.2   407  ASN407     -0.2716
     17  ND2       55.4310    6.8970  -15.0840 N.am  407  ASN407     -0.0877
     18  N         52.3360    9.9100  -17.7160 N.am  408  SER408     -0.1938
     19  CA        51.2110   10.7960  -17.3520 C.3   408  SER408      0.2055
     20  C         50.8000   10.7170  -15.8550 C.2   408  SER408      0.2643
     21  O         50.0020   11.5260  -15.4040 O.2   408  SER408     -0.2714
     22  CB        49.9970   10.5140  -18.2340 C.3   408  SER408      0.2130
     23  OG        49.5300    9.2220  -17.9270 O.3   408  SER408     -0.2179
     24  N         51.3590    9.7670  -15.0980 N.am  409  TRP409     -0.1973
     25  CA        51.2210    9.7360  -13.6380 C.3   409  TRP409      0.1640
     26  C         52.3270   10.5130  -12.9010 C.2   409  TRP409      0.2290
     27  O         52.3480   10.4890  -11.6670 O.2   409  TRP409     -0.2864
     28  CB        51.2130    8.2700  -13.1870 C.3   409  TRP409      0.0576
     29  CG        50.0040    7.5230  -13.5870 C.ar  409  TRP409      0.0006
     30  CD1       48.9500    7.9600  -14.3220 C.ar  409  TRP409      0.0946
     31  CD2       49.7370    6.1590  -13.2830 C.ar  409  TRP409      0.0152
     32  NE1       48.0530    6.9550  -14.4910 N.ar  409  TRP409     -0.2442
     33  CE2       48.5010    5.8370  -13.8550 C.ar  409  TRP409      0.0810
     34  CE3       50.4230    5.1840  -12.5670 C.ar  409  TRP409      0.0012
     35  CZ2       47.9040    4.5570  -13.7240 C.ar  409  TRP409      0.0191
     36  CZ3       49.8570    3.8910  -12.4640 C.ar  409  TRP409      0.0001
     37  CH2       48.6000    3.6000  -13.0310 C.ar  409  TRP409      0.0015
     38  N         54.7090    5.7340  -10.7030 N.3   414  CYS414     -0.1235
     39  CA        54.5690    4.3050  -10.4550 C.3   414  CYS414      0.1677
     40  C         55.5080    3.9490   -9.3080 C.2   414  CYS414      0.2270
     41  O         56.7090    4.2830   -9.3410 O.2   414  CYS414     -0.2867
     42  CB        54.8920    3.4950  -11.7280 C.3   414  CYS414      0.0956
     43  SG        54.0660    4.0220  -13.2720 S.3   414  CYS414     -0.0801
     44  N         57.6280    0.8770  -11.1550 N.3   418  GLY418     -0.1210
     45  CA        57.0350   -0.3710  -11.6550 C.3   418  GLY418      0.1956
     46  C         56.0390   -0.1590  -12.7710 C.2   418  GLY418      0.2612
     47  O         54.8470   -0.4500  -12.6520 O.2   418  GLY418     -0.2717
     48  N         56.5240    0.3930  -13.8670 N.am  419  CYS419     -0.1956
     49  CA        55.7480    0.5320  -15.0970 C.3   419  CYS419      0.1843
     50  C         56.6830    0.8940  -16.2420 C.2   419  CYS419      0.2625
     51  O         57.8520    1.1600  -16.0340 O.2   419  CYS419     -0.2714
     52  CB        54.7000    1.6210  -14.9920 C.3   419  CYS419      0.0997
     53  SG        55.3440    3.3020  -14.9000 S.3   419  CYS419     -0.0797
     54  N         56.1470    0.8570  -17.4520 N.am  420  ASP420     -0.1957
     55  CA        56.8770    1.2810  -18.6400 C.3   420  ASP420      0.1840
     56  C         56.0210    2.3050  -19.3600 C.2   420  ASP420      0.2622
     57  O         55.7080    2.1320  -20.5270 O.2   420  ASP420     -0.2715
     58  CB        57.2240    0.0700  -19.5610 C.3   420  ASP420      0.1450
     59  CG        58.1380    0.4800  -20.7220 C.2   420  ASP420      0.3671
     60  OD1       59.0100    1.3790  -20.4880 O.co2 420  ASP420     -0.2456
     61  OD2       57.9180    0.0100  -21.8640 O.co2 420  ASP420     -0.2456
     62  N         55.6700    3.3740  -18.6490 N.am  421  ASN421     -0.1972
     63  CA        54.8460    4.4400  -19.1880 C.3   421  ASN421      0.1688
     64  C         55.7050    5.6840  -19.5020 C.2   421  ASN421      0.2292
     65  O         56.4340    6.1490  -18.6530 O.2   421  ASN421     -0.2864
     66  CB        53.7660    4.8490  -18.1810 C.3   421  ASN421      0.1181
     67  CG        52.8130    3.7250  -17.8550 C.2   421  ASN421      0.2629
     68  OD1       52.8230    2.6620  -18.5130 O.2   421  ASN421     -0.2716
     69  ND2       51.9520    3.9560  -16.8280 N.am  421  ASN421     -0.0877
     70  N         55.3720   -6.4390  -13.8860 N.3   493  VAL493     -0.1231
     71  CA        54.7940   -5.4690  -14.8160 C.3   493  VAL493      0.1692
     72  C         54.4240   -6.2150  -16.0890 C.2   493  VAL493      0.2592
     73  O         55.2890   -6.8580  -16.6910 O.2   493  VAL493     -0.2718
     74  CB        55.7470   -4.3240  -15.1550 C.3   493  VAL493      0.0266
     75  CG1       55.0850   -3.3290  -16.0790 C.3   493  VAL493      0.0020
     76  CG2       56.2070   -3.6220  -13.8890 C.3   493  VAL493      0.0020
     77  N         53.1210   -6.1870  -16.4230 N.am  494  ASP494     -0.1974
     78  CA        52.5480   -6.9010  -17.5560 C.3   494  ASP494      0.1709
     79  C         52.9900   -8.3680  -17.6260 C.2   494  ASP494      0.2293
     80  O         53.3850   -8.8600  -18.6540 O.2   494  ASP494     -0.2864
     81  CB        52.9140   -6.1730  -18.8570 C.3   494  ASP494      0.1436
     82  CG        52.2520   -6.7860  -20.0830 C.2   494  ASP494      0.3671
     83  OD1       51.0410   -7.0460  -19.9940 O.co2 494  ASP494     -0.2456
     84  OD2       52.9510   -7.0560  -21.1140 O.co2 494  ASP494     -0.2456
     85  N         55.8170   -2.2540  -25.8460 N.3   507  LYS507     -0.1245
     86  CA        54.8960   -1.2500  -26.3290 C.3   507  LYS507      0.1561
     87  C         55.0270   -1.1060  -27.8720 C.2   507  LYS507      0.2260
     88  O         55.1750    0.0050  -28.3960 O.2   507  LYS507     -0.2867
     89  CB        55.1900    0.1280  -25.6590 C.3   507  LYS507      0.0271
     90  CG        55.0330    0.2150  -24.1430 C.3   507  LYS507      0.0035
     91  CD        53.5700    0.2420  -23.7510 C.3   507  LYS507      0.0206
     92  CE        53.3630    0.3510  -22.2400 C.3   507  LYS507      0.1093
     93  NZ        53.2050    1.7350  -21.7620 N.3   507  LYS507     -0.1314
@<TRIPOS>BOND
     1    88    87    2
     2    87    86    1
     3     1     2    1
     4    86    85    1
     5    86    89    1
     6     2     5    1
     7     2     3    1
     8    89    90    1
     9     5     6    1
    10     3     4    2
    11     6     7    1
    12     8     7   ar
    13    90    91    1
    14    91    92    1
    15     7     9   ar
    16    92    93    1
    17    61    59   ar
    18    84    82   ar
    19    59    60   ar
    20    59    58    1
    21    57    56    2
    22    82    83   ar
    23    82    81    1
    24    58    55    1
    25    64    63    1
    26    64    65    2
    27    56    62   am
    28    56    55    1
    29    63    62    1
    30    63    66    1
    31    81    78    1
    32    10    11    1
    33    80    79    2
    34    55    54    1
    35    68    67    2
    36    22    23    1
    37    22    19    1
    38    66    67    1
    39    67    69   am
    40    11    12    1
    41    11    14    1
    42    18    19    1
    43    18    12   am
    44    79    78    1
    45    78    77    1
    46    54    50   am
    47    19    20    1
    48    12    13    2
    49    73    72    2
    50    14    15    1
    51    77    72   am
    52    50    51    2
    53    50    49    1
    54    72    71    1
    55    75    74    1
    56    20    21    2
    57    20    24   am
    58    15    16    2
    59    15    17   am
    60    74    71    1
    61    74    76    1
    62    24    25    1
    63    49    52    1
    64    49    48    1
    65    52    53    1
    66    53    43    1
    67    71    70    1
    68    32    30   ar
    69    32    33   ar
    70    30    29   ar
    71    48    46   am
    72    33    35   ar
    73    33    31   ar
    74    35    37   ar
    75    25    28    1
    76    25    26    1
    77    29    31   ar
    78    29    28    1
    79    31    34   ar
    80    43    42    1
    81    37    36   ar
    82    26    27    2
    83    46    47    2
    84    46    45    1
    85    34    36   ar
    86    42    39    1
    87    45    44    1
    88    38    39    1
    89    39    40    1
    90    41    40    2
