@<TRIPOS>MOLECULE
tmp/5fjjC07.pdb
 139 135 0 0 0
SMALL
GASTEIGER

@<TRIPOS>ATOM
      1  N         61.3500   -3.7130    9.9110 N.3    47  TRP47      -0.1241
      2  CA        60.8830   -3.0640    8.6760 C.3    47  TRP47       0.1605
      3  C         59.9740   -1.8830    8.9490 C.2    47  TRP47       0.2264
      4  O         58.9490   -2.0140    9.5770 O.2    47  TRP47      -0.2867
      5  CB        60.2010   -4.0990    7.7590 C.3    47  TRP47       0.0550
      6  CG        59.6800   -3.5730    6.4700 C.ar   47  TRP47       0.0003
      7  CD1       58.3790   -3.5230    6.0700 C.ar   47  TRP47       0.0946
      8  CD2       60.4460   -3.0030    5.3880 C.ar   47  TRP47       0.0152
      9  NE1       58.2850   -2.9750    4.8250 N.ar   47  TRP47      -0.2442
     10  CE2       59.5430   -2.6560    4.3740 C.ar   47  TRP47       0.0810
     11  CE3       61.8090   -2.7670    5.1830 C.ar   47  TRP47       0.0012
     12  CZ2       59.9570   -2.0720    3.1620 C.ar   47  TRP47       0.0191
     13  CZ3       62.2230   -2.1810    3.9780 C.ar   47  TRP47       0.0001
     14  CH2       61.3030   -1.8420    2.9860 C.ar   47  TRP47       0.0015
     15  N         65.7360    2.4130    5.0700 N.3    53  VAL53      -0.1245
     16  CA        65.2360    1.1090    4.7120 C.3    53  VAL53       0.1561
     17  C         65.8940    0.0300    5.5920 C.2    53  VAL53       0.2260
     18  O         65.3250   -1.0240    5.7830 O.2    53  VAL53      -0.2867
     19  CB        65.2820    0.7660    3.2040 C.3    53  VAL53       0.0252
     20  CG1       64.6670    1.8630    2.3530 C.3    53  VAL53       0.0019
     21  CG2       66.6920    0.4710    2.7380 C.3    53  VAL53       0.0019
     22  N         68.9980    2.2140    0.0280 N.3    71  ASP71      -0.1239
     23  CA        69.0170    2.0480   -1.4330 C.3    71  ASP71       0.1674
     24  C         69.1760    3.4560   -2.0760 C.2    71  ASP71       0.2266
     25  O         68.8450    4.4550   -1.4360 O.2    71  ASP71      -0.2867
     26  CB        67.6980    1.4660   -1.9260 C.3    71  ASP71       0.1410
     27  CG        67.4760   -0.0240   -1.5120 C.2    71  ASP71       0.3668
     28  OD1       68.4010   -0.8190   -1.7940 O.co2  71  ASP71      -0.2456
     29  OD2       66.3660   -0.3700   -0.9550 O.co2  71  ASP71      -0.2456
     30  N         66.9690    6.2260   -2.5480 N.3    77  ARG77      -0.1231
     31  CA        65.5970    5.7490   -2.6500 C.3    77  ARG77       0.1694
     32  C         64.6930    6.4040   -1.5870 C.2    77  ARG77       0.2592
     33  O         65.1760    6.7110   -0.4890 O.2    77  ARG77      -0.2718
     34  CB        65.5930    4.2370   -2.4380 C.3    77  ARG77       0.0321
     35  CG        64.2820    3.5620   -2.8270 C.3    77  ARG77       0.0489
     36  CD        64.2450    2.1120   -2.3590 C.3    77  ARG77       0.2205
     37  NE        63.0140    1.4620   -2.7610 N.pl3  77  ARG77      -0.0865
     38  CZ        62.6350    0.2250   -2.4200 C.cat  77  ARG77       0.5346
     39  NH1       63.3740   -0.5100   -1.6000 N.pl3  77  ARG77       0.1354
     40  NH2       61.4690   -0.2520   -2.8400 N.pl3  77  ARG77       0.1354
     41  N         63.4080    6.5420   -1.8930 N.am   78  PHE78      -0.1976
     42  CA        62.3880    6.8790   -0.9250 C.3    78  PHE78       0.1639
     43  C         62.6650    8.2320   -0.2340 C.2    78  PHE78       0.2290
     44  O         62.4760    8.3950    0.9950 O.2    78  PHE78      -0.2864
     45  CB        62.2000    5.7810    0.1540 C.3    78  PHE78       0.0560
     46  CG        61.5370    4.4840   -0.3030 C.ar   78  PHE78      -0.0200
     47  CD1       60.5230    4.4560   -1.2570 C.ar   78  PHE78      -0.0042
     48  CD2       61.9140    3.2900    0.3010 C.ar   78  PHE78      -0.0042
     49  CE1       59.9110    3.2620   -1.6380 C.ar   78  PHE78      -0.0003
     50  CE2       61.3130    2.0820   -0.0600 C.ar   78  PHE78      -0.0003
     51  CZ        60.2730    2.0870   -1.0250 C.ar   78  PHE78      -0.0000
     52  N         73.4440    1.3330   -0.2780 N.3   120  LEU120     -0.1245
     53  CA        73.2370   -0.0730   -0.6770 C.3   120  LEU120      0.1561
     54  C         73.5130   -0.2170   -2.1930 C.2   120  LEU120      0.2260
     55  O         72.6150   -0.3210   -3.0330 O.2   120  LEU120     -0.2867
     56  CB        71.8520   -0.5580   -0.2670 C.3   120  LEU120      0.0270
     57  CG        71.5950   -0.5110    1.2500 C.3   120  LEU120      0.0019
     58  CD1       70.1530   -0.9740    1.4930 C.3   120  LEU120      0.0001
     59  CD2       72.5870   -1.3780    2.0330 C.3   120  LEU120      0.0001
     60  N         69.8530  -13.4450   -1.9410 N.3   227  TYR227     -0.1241
     61  CA        68.6360  -14.2700   -1.7020 C.3   227  TYR227      0.1605
     62  C         68.7410  -15.7460   -2.1230 C.2   227  TYR227      0.2264
     63  O         68.1610  -16.6010   -1.4910 O.2   227  TYR227     -0.2867
     64  CB        67.4650  -13.6860   -2.4500 C.3   227  TYR227      0.0534
     65  CG        66.8430  -12.4650   -1.8470 C.ar  227  TYR227     -0.0201
     66  CD1       66.2960  -12.4700   -0.5750 C.ar  227  TYR227     -0.0009
     67  CD2       66.7260  -11.2910   -2.5960 C.ar  227  TYR227     -0.0009
     68  CE1       65.6950  -11.3260   -0.0600 C.ar  227  TYR227      0.0417
     69  CE2       66.1050  -10.1570   -2.0980 C.ar  227  TYR227      0.0417
     70  CZ        65.6170  -10.1630   -0.8310 C.ar  227  TYR227      0.1957
     71  OH        65.0180   -9.0310   -0.3290 O.3   227  TYR227     -0.2866
     72  N         70.7040   -9.2920    2.4120 N.3   259  ASP259     -0.1225
     73  CA        69.5840   -8.7280    1.6670 C.3   259  ASP259      0.1805
     74  C         68.3510   -8.8840    2.5310 C.2   259  ASP259      0.2597
     75  O         68.3620   -9.6000    3.5680 O.2   259  ASP259     -0.2718
     76  CB        69.4410   -9.3940    0.2630 C.3   259  ASP259      0.1424
     77  CG        68.8290   -8.4720   -0.7770 C.2   259  ASP259      0.3668
     78  OD1       68.1780   -7.4720   -0.4360 O.co2 259  ASP259     -0.2456
     79  OD2       69.0620   -8.7090   -1.9610 O.co2 259  ASP259     -0.2456
     80  N         67.2890   -8.1890    2.1400 N.am  260  TRP260     -0.1976
     81  CA        66.2040   -7.8790    3.0460 C.3   260  TRP260      0.1640
     82  C         65.3010   -9.1170    3.1400 C.2   260  TRP260      0.2290
     83  O         64.5300   -9.3860    2.2080 O.2   260  TRP260     -0.2864
     84  CB        65.4290   -6.6410    2.5790 C.3   260  TRP260      0.0576
     85  CG        65.8260   -5.3430    3.2440 C.ar  260  TRP260      0.0006
     86  CD1       64.9840   -4.4100    3.7680 C.ar  260  TRP260      0.0946
     87  CD2       67.1490   -4.8270    3.4260 C.ar  260  TRP260      0.0152
     88  NE1       65.6950   -3.3480    4.2590 N.ar  260  TRP260     -0.2442
     89  CE2       67.0250   -3.5760    4.0650 C.ar  260  TRP260      0.0810
     90  CE3       68.4300   -5.2990    3.1290 C.ar  260  TRP260      0.0012
     91  CZ2       68.1310   -2.7970    4.4260 C.ar  260  TRP260      0.0191
     92  CZ3       69.5490   -4.4880    3.4770 C.ar  260  TRP260      0.0001
     93  CH2       69.3690   -3.2680    4.1370 C.ar  260  TRP260      0.0015
     94  N         59.1330   -9.2800    7.4470 N.3   284  PHE284     -0.1241
     95  CA        58.8050   -7.8910    7.6360 C.3   284  PHE284      0.1605
     96  C         57.7550   -7.7100    8.6930 C.2   284  PHE284      0.2264
     97  O         56.6320   -8.1850    8.5510 O.2   284  PHE284     -0.2867
     98  CB        58.3230   -7.2360    6.3180 C.3   284  PHE284      0.0534
     99  CG        59.4100   -6.9580    5.3040 C.ar  284  PHE284     -0.0203
    100  CD1       60.7210   -7.3970    5.4560 C.ar  284  PHE284     -0.0042
    101  CD2       59.0760   -6.2410    4.1600 C.ar  284  PHE284     -0.0042
    102  CE1       61.6890   -7.1060    4.4900 C.ar  284  PHE284     -0.0003
    103  CE2       60.0220   -5.9530    3.2010 C.ar  284  PHE284     -0.0003
    104  CZ        61.3380   -6.4060    3.3570 C.ar  284  PHE284     -0.0000
    105  N         58.0950    2.3760   -6.9830 N.3   416  ASP416     -0.1239
    106  CA        59.3180    1.6940   -7.3490 C.3   416  ASP416      0.1674
    107  C         59.5650    1.6610   -8.8970 C.2   416  ASP416      0.2266
    108  O         60.2510    0.7800   -9.3660 O.2   416  ASP416     -0.2867
    109  CB        59.3040    0.2600   -6.7720 C.3   416  ASP416      0.1410
    110  CG        59.2050    0.2130   -5.2490 C.2   416  ASP416      0.3668
    111  OD1       59.5860    1.1980   -4.5540 O.co2 416  ASP416     -0.2456
    112  OD2       58.8040   -0.8520   -4.7180 O.co2 416  ASP416     -0.2456
    113  N         63.8850   -2.1340   -6.1020 N.3   430  SER430     -0.1217
    114  CA        64.5370   -1.4180   -5.0030 C.3   430  SER430      0.1889
    115  C         65.7400   -0.5970   -5.4570 C.2   430  SER430      0.2288
    116  O         66.1970    0.2630   -4.7410 O.2   430  SER430     -0.2866
    117  CB        64.9500   -2.4030   -3.9140 C.3   430  SER430      0.2089
    118  OG        66.0940   -3.1260   -4.2870 O.3   430  SER430     -0.2183
    119  N         63.2030   -5.8460  -10.3730 N.3   488  GLU488     -0.1245
    120  CA        63.3240   -6.7790   -9.2480 C.3   488  GLU488      0.1567
    121  C         62.1050   -7.6940   -9.1940 C.2   488  GLU488      0.2260
    122  O         60.9820   -7.2660   -9.4860 O.2   488  GLU488     -0.2867
    123  CB        63.4950   -6.0160   -7.9380 C.3   488  GLU488      0.0388
    124  CG        64.0850   -6.8690   -6.8310 C.3   488  GLU488      0.1160
    125  CD        64.4880   -6.0640   -5.6070 C.2   488  GLU488      0.3649
    126  OE1       64.4750   -4.8070   -5.6640 O.co2 488  GLU488     -0.2457
    127  OE2       64.8190   -6.7040   -4.5840 O.co2 488  GLU488     -0.2457
    128  N         60.0590   -8.9630   -7.0110 N.3   490  TYR490     -0.1241
    129  CA        58.8510   -8.7490   -6.2120 C.3   490  TYR490      0.1605
    130  C         57.7800   -7.9950   -6.9380 C.2   490  TYR490      0.2264
    131  O         56.6620   -7.9710   -6.4940 O.2   490  TYR490     -0.2867
    132  CB        59.1490   -8.0580   -4.8680 C.3   490  TYR490      0.0534
    133  CG        59.5150   -6.5870   -4.9350 C.ar  490  TYR490     -0.0201
    134  CD1       58.5400   -5.6110   -4.9390 C.ar  490  TYR490     -0.0009
    135  CD2       60.8570   -6.1790   -4.9750 C.ar  490  TYR490     -0.0009
    136  CE1       58.8710   -4.2610   -5.0060 C.ar  490  TYR490      0.0417
    137  CE2       61.2060   -4.8300   -5.0290 C.ar  490  TYR490      0.0417
    138  CZ        60.2120   -3.8730   -5.0550 C.ar  490  TYR490      0.1957
    139  OH        60.5280   -2.5420   -5.1080 O.3   490  TYR490     -0.2866
@<TRIPOS>BOND
     1   119   120    1
     2   122   121    2
     3   108   107    2
     4   120   121    1
     5   120   123    1
     6   107   106    1
     7   123   124    1
     8   106   105    1
     9   106   109    1
    10   128   129    1
    11   130   131    2
    12   130   129    1
    13   124   125    1
    14   109   110    1
    15   129   132    1
    16   113   114    1
    17   126   125   ar
    18   125   127   ar
    19   115   114    1
    20   115   116    2
    21   110   112   ar
    22   110   111   ar
    23   139   138    1
    24   138   137   ar
    25   138   136   ar
    26   137   135   ar
    27   136   134   ar
    28   114   117    1
    29   135   133   ar
    30   134   133   ar
    31   133   132    1
    32   118   117    1
    33    55    54    2
    34    40    38    1
    35    35    34    1
    36    35    36    1
    37    37    38    2
    38    37    36    1
    39    31    30    1
    40    31    34    1
    41    31    32    1
    42    67    69   ar
    43    67    65   ar
    44    64    65    1
    45    64    61    1
    46    38    39    1
    47    54    53    1
    48    62    61    1
    49    62    63    2
    50    69    70   ar
    51    24    25    2
    52    24    23    1
    53    79    77   ar
    54    60    61    1
    55    26    27    1
    56    26    23    1
    57    41    32   am
    58    41    42    1
    59    65    66   ar
    60    28    27   ar
    61    49    47   ar
    62    49    51   ar
    63    32    33    2
    64    27    29   ar
    65    23    22    1
    66    47    46   ar
    67    51    50   ar
    68    42    43    1
    69    42    45    1
    70    70    71    1
    71    70    68   ar
    72    77    78   ar
    73    77    76    1
    74    53    52    1
    75    53    56    1
    76    66    68   ar
    77    46    45    1
    78    46    48   ar
    79    56    57    1
    80    43    44    2
    81    50    48   ar
    82    76    73    1
    83    57    58    1
    84    57    59    1
    85    73    72    1
    86    73    74    1
    87    80    74   am
    88    80    81    1
    89    83    82    2
    90    20    19    1
    91    74    75    2
    92    84    81    1
    93    84    85    1
    94    21    19    1
    95    14    12   ar
    96    14    13   ar
    97    81    82    1
    98    90    87   ar
    99    90    92   ar
   100    12    10   ar
   101   103   104   ar
   102   103   101   ar
   103    19    16    1
   104    85    87   ar
   105    85    86   ar
   106   104   102   ar
   107    87    89   ar
   108    92    93   ar
   109    86    88   ar
   110    13    11   ar
   111    89    88   ar
   112    89    91   ar
   113    93    91   ar
   114   101    99   ar
   115    10     9   ar
   116    10     8   ar
   117   102   100   ar
   118    16    15    1
   119    16    17    1
   120     9     7   ar
   121    11     8   ar
   122    99   100   ar
   123    99    98    1
   124     8     6   ar
   125    17    18    2
   126     7     6   ar
   127    98    95    1
   128     6     5    1
   129    94    95    1
   130    95    96    1
   131     5     2    1
   132    97    96    2
   133     2     3    1
   134     2     1    1
   135     3     4    2
