@<TRIPOS>MOLECULE
tmp/5fjjB02.pdb
 161 155 0 0 0
SMALL
GASTEIGER

@<TRIPOS>ATOM
      1  N         69.0980  100.0730  -10.9470 N.3     2  ALA2       -0.1231
      2  CA        67.8210   99.4180  -10.6600 C.3     2  ALA2        0.1694
      3  C         67.6780   99.2340   -9.1410 C.2     2  ALA2        0.2592
      4  O         68.6430   98.9770   -8.4540 O.2     2  ALA2       -0.2718
      5  CB        67.7140   98.0770  -11.3830 C.3     2  ALA2        0.0304
      6  N         66.4680   99.4010   -8.6470 N.am    3  TYR3       -0.1962
      7  CA        66.2120   99.4120   -7.2330 C.3     3  TYR3        0.1771
      8  C         65.1810   98.3330   -6.8860 C.2     3  TYR3        0.2620
      9  O         64.1420   98.2270   -7.5590 O.2     3  TYR3       -0.2715
     10  CB        65.6960  100.8130   -6.8310 C.3     3  TYR3        0.0574
     11  CG        65.2130  100.9420   -5.3930 C.ar    3  TYR3       -0.0198
     12  CD1       66.1170  100.9080   -4.3310 C.ar    3  TYR3       -0.0009
     13  CD2       63.8720  101.1380   -5.1010 C.ar    3  TYR3       -0.0009
     14  CE1       65.6930  101.0570   -3.0210 C.ar    3  TYR3        0.0417
     15  CE2       63.4400  101.2640   -3.7860 C.ar    3  TYR3        0.0417
     16  CZ        64.3570  101.2060   -2.7600 C.ar    3  TYR3        0.1957
     17  OH        63.9420  101.3650   -1.4520 O.3     3  TYR3       -0.2866
     18  N         65.4240   97.6060   -5.7920 N.am    4  SER4       -0.1936
     19  CA        64.4830   96.5930   -5.3110 C.3     4  SER4        0.2040
     20  C         63.7190   97.1140   -4.1120 C.2     4  SER4        0.2485
     21  O         64.2780   97.1940   -3.0100 O.2     4  SER4       -0.2729
     22  CB        65.2230   95.3050   -4.9500 C.3     4  SER4        0.2129
     23  OG        64.3090   94.2320   -4.8460 O.3     4  SER4       -0.2179
     24  N         62.4410   97.4710   -4.2850 N.am    5  PRO5       -0.2726
     25  CA        61.7770   98.0850   -3.1400 C.3     5  PRO5        0.1402
     26  C         61.5850   97.1690   -1.9330 C.2     5  PRO5        0.2269
     27  O         61.6750   95.9400   -2.0630 O.2     5  PRO5       -0.2865
     28  CB        60.4370   98.5800   -3.7010 C.3     5  PRO5        0.0296
     29  CG        60.2330   97.8280   -4.9540 C.3     5  PRO5        0.0237
     30  CD        61.5890   97.4310   -5.4740 C.3     5  PRO5        0.0939
     31  N         64.9130   93.2110  -13.7800 N.3   199  VAL199     -0.1231
     32  CA        63.8130   92.6070  -14.5080 C.3   199  VAL199      0.1692
     33  C         62.5240   93.2070  -14.0480 C.2   199  VAL199      0.2592
     34  O         62.3260   93.4730  -12.8730 O.2   199  VAL199     -0.2718
     35  CB        63.7990   91.0310  -14.3340 C.3   199  VAL199      0.0266
     36  CG1       63.8250   90.6190  -12.8710 C.3   199  VAL199      0.0020
     37  CG2       62.6270   90.3800  -15.0340 C.3   199  VAL199      0.0020
     38  N         61.6460   93.4540  -15.0210 N.am  200  ASP200     -0.1960
     39  CA        60.4050   94.1180  -14.7660 C.3   200  ASP200      0.1840
     40  C         59.4130   93.1540  -14.1160 C.2   200  ASP200      0.2622
     41  O         59.6080   91.9280  -14.0970 O.2   200  ASP200     -0.2715
     42  CB        59.8550   94.7510  -16.0550 C.3   200  ASP200      0.1450
     43  CG        59.3690   93.7230  -17.0640 C.2   200  ASP200      0.3671
     44  OD1       60.2000   93.2340  -17.8520 O.co2 200  ASP200     -0.2456
     45  OD2       58.1560   93.3790  -17.0360 O.co2 200  ASP200     -0.2456
     46  N         58.3630   93.7150  -13.5560 N.am  201  ASP201     -0.1957
     47  CA        57.4530   92.9540  -12.7150 C.3   201  ASP201      0.1840
     48  C         56.6050   91.9940  -13.5410 C.2   201  ASP201      0.2621
     49  O         56.2240   90.8930  -13.0720 O.2   201  ASP201     -0.2715
     50  CB        56.5580   93.9290  -11.9220 C.3   201  ASP201      0.1450
     51  CG        55.7080   93.2390  -10.8730 C.2   201  ASP201      0.3671
     52  OD1       56.2240   92.3430  -10.1560 O.co2 201  ASP201     -0.2456
     53  OD2       54.5230   93.6190  -10.7080 O.co2 201  ASP201     -0.2456
     54  N         56.2260   92.4430  -14.7350 N.am  202  LYS202     -0.1977
     55  CA        55.4330   91.6140  -15.6410 C.3   202  LYS202      0.1596
     56  C         56.1890   90.3750  -16.0830 C.2   202  LYS202      0.2287
     57  O         55.6850   89.2720  -15.9950 O.2   202  LYS202     -0.2864
     58  CB        55.0050   92.4490  -16.8580 C.3   202  LYS202      0.0298
     59  CG        54.0700   91.7330  -17.8170 C.3   202  LYS202      0.0038
     60  CD        53.4410   92.7040  -18.8460 C.3   202  LYS202      0.0206
     61  CE        52.3800   92.0420  -19.7100 C.3   202  LYS202      0.1093
     62  NZ        53.0570   91.0880  -20.6520 N.3   202  LYS202     -0.1314
     63  N         58.6950   89.0930  -14.6850 N.3   204  MET204     -0.1245
     64  CA        59.0120   88.2720  -13.5190 C.3   204  MET204      0.1570
     65  C         57.8640   87.3060  -13.3190 C.2   204  MET204      0.2261
     66  O         58.0740   86.1000  -13.2550 O.2   204  MET204     -0.2867
     67  CB        59.2680   89.1270  -12.2660 C.3   204  MET204      0.0387
     68  CG        59.3570   88.3450  -10.9540 C.3   204  MET204      0.0595
     69  SD        60.7030   87.1970  -10.8550 S.3   204  MET204     -0.1393
     70  CE        62.0370   88.3290  -10.3860 C.3   204  MET204      0.0692
     71  N         68.9960   90.7650   -7.5150 N.3   230  ILE230     -0.1231
     72  CA        67.9130   91.1560   -8.3820 C.3   230  ILE230      0.1692
     73  C         67.6420   92.6380   -8.0870 C.2   230  ILE230      0.2592
     74  O         67.3400   92.9890   -6.9450 O.2   230  ILE230     -0.2718
     75  CB        66.6560   90.3380   -8.1430 C.3   230  ILE230      0.0266
     76  CG1       66.9770   88.8210   -8.2030 C.3   230  ILE230      0.0019
     77  CG2       65.5960   90.6640   -9.1820 C.3   230  ILE230      0.0020
     78  CD1       67.2700   88.2090   -6.8610 C.3   230  ILE230      0.0001
     79  N         67.7050   93.4930   -9.1110 N.am  231  ASN231     -0.1974
     80  CA        67.6030   94.9770   -8.9430 C.3   231  ASN231      0.1688
     81  C         68.4890   95.4590   -7.8200 C.2   231  ASN231      0.2292
     82  O         68.0230   96.1090   -6.9160 O.2   231  ASN231     -0.2864
     83  CB        66.1900   95.4260   -8.6240 C.3   231  ASN231      0.1181
     84  CG        65.2210   95.2760   -9.7650 C.2   231  ASN231      0.2629
     85  OD1       65.4900   94.7270  -10.8280 O.2   231  ASN231     -0.2716
     86  ND2       64.0200   95.7780   -9.5130 N.am  231  ASN231     -0.0877
     87  N         66.6440   89.4760   -0.5370 N.3   238  ASN238     -0.1240
     88  CA        65.8110   90.2870   -1.3840 C.3   238  ASN238      0.1653
     89  C         64.4030   90.1970   -0.8290 C.2   238  ASN238      0.2266
     90  O         63.7620   89.1780   -0.9670 O.2   238  ASN238     -0.2867
     91  CB        65.8960   89.8180   -2.8300 C.3   238  ASN238      0.1155
     92  CG        65.2340   90.7910   -3.7780 C.2   238  ASN238      0.2627
     93  OD1       64.0370   91.0190   -3.6920 O.2   238  ASN238     -0.2716
     94  ND2       66.0170   91.3880   -4.6740 N.am  238  ASN238     -0.0877
     95  N         61.6760   91.6960   -1.8100 N.3   240  GLU240     -0.1231
     96  CA        60.6430   91.5570   -2.8700 C.3   240  GLU240      0.1699
     97  C         60.4800   90.0990   -3.3070 C.2   240  GLU240      0.2592
     98  O         59.3700   89.5890   -3.3190 O.2   240  GLU240     -0.2718
     99  CB        60.8930   92.4510   -4.0900 C.3   240  GLU240      0.0402
    100  CG        59.7940   92.2330   -5.1450 C.3   240  GLU240      0.1161
    101  CD        59.6080   93.3820   -6.1450 C.2   240  GLU240      0.3649
    102  OE1       59.3640   94.5130   -5.6840 O.co2 240  GLU240     -0.2457
    103  OE2       59.6440   93.1140   -7.3810 O.co2 240  GLU240     -0.2457
    104  N         61.5740   89.4460   -3.6700 N.am  241  THR241     -0.1953
    105  CA        61.4820   88.0750   -4.1980 C.3   241  THR241      0.1897
    106  C         61.1290   87.0590   -3.1060 C.2   241  THR241      0.2313
    107  O         60.2160   86.2670   -3.3130 O.2   241  THR241     -0.2863
    108  CB        62.7130   87.6360   -4.9520 C.3   241  THR241      0.1794
    109  OG1       63.8210   87.5320   -4.0620 O.3   241  THR241     -0.2208
    110  CG2       63.0330   88.6010   -6.0760 C.3   241  THR241      0.0378
    111  N         57.7000   89.1540   -0.6490 N.3   244  LYS244     -0.1231
    112  CA        56.5160   89.5690   -1.4110 C.3   244  LYS244      0.1693
    113  C         56.0520   88.4810   -2.3950 C.2   244  LYS244      0.2591
    114  O         54.9440   88.0090   -2.3210 O.2   244  LYS244     -0.2718
    115  CB        56.7890   90.8650   -2.1950 C.3   244  LYS244      0.0285
    116  CG        55.5010   91.5000   -2.7060 C.3   244  LYS244      0.0035
    117  CD        55.8200   92.7960   -3.4640 C.3   244  LYS244      0.0206
    118  CE        54.5500   93.4570   -3.9480 C.3   244  LYS244      0.1093
    119  NZ        54.8250   94.7560   -4.6180 N.3   244  LYS244     -0.1314
    120  N         56.9420   88.0560   -3.2840 N.am  245  LEU245     -0.1980
    121  CA        56.5840   87.0800   -4.3320 C.3   245  LEU245      0.1596
    122  C         56.4540   85.6630   -3.7670 C.2   245  LEU245      0.2287
    123  O         55.3680   85.0680   -3.8210 O.2   245  LEU245     -0.2864
    124  CB        57.5830   87.1290   -5.4490 C.3   245  LEU245      0.0297
    125  CG        57.7570   88.4940   -6.1300 C.3   245  LEU245      0.0022
    126  CD1       58.8190   88.3790   -7.2000 C.3   245  LEU245      0.0001
    127  CD2       56.4420   88.9710   -6.7090 C.3   245  LEU245      0.0001
    128  N         46.4150   90.6490   -3.5840 N.3   726  PRO726     -0.2116
    129  CA        45.2950   90.2270   -4.4440 C.3   726  PRO726      0.1372
    130  C         45.5370   88.9230   -5.1870 C.2   726  PRO726      0.2244
    131  O         44.6280   88.0970   -5.2820 O.2   726  PRO726     -0.2868
    132  CB        45.1140   91.4170   -5.4240 C.3   726  PRO726      0.0268
    133  CG        45.7440   92.6030   -4.7610 C.3   726  PRO726      0.0207
    134  CD        46.8650   92.0300   -3.9060 C.3   726  PRO726      0.0892
    135  N         50.4520   95.0910  -13.6800 N.3   806  VAL806     -0.1231
    136  CA        51.3110   95.7440  -12.7280 C.3   806  VAL806      0.1692
    137  C         50.5430   96.7570  -11.8270 C.2   806  VAL806      0.2593
    138  O         50.8800   96.9210  -10.6630 O.2   806  VAL806     -0.2718
    139  CB        52.4960   96.3850  -13.4570 C.3   806  VAL806      0.0266
    140  CG1       53.3140   97.1910  -12.4860 C.3   806  VAL806      0.0020
    141  CG2       53.3820   95.3140  -14.0820 C.3   806  VAL806      0.0020
    142  N         49.4930   97.3770  -12.3470 N.am  807  SER807     -0.1938
    143  CA        48.6960   98.3530  -11.5920 C.3   807  SER807      0.2055
    144  C         47.7920   97.7520  -10.5740 C.2   807  SER807      0.2643
    145  O         47.6930   98.2510   -9.4650 O.2   807  SER807     -0.2714
    146  CB        47.8350   99.1820  -12.5330 C.3   807  SER807      0.2130
    147  OG        48.7090   99.9380  -13.3450 O.3   807  SER807     -0.2179
    148  N         47.0980   96.6990  -10.9490 N.am  808  ALA808     -0.1963
    149  CA        46.2590   95.9930   -9.9890 C.3   808  ALA808      0.1728
    150  C         47.0890   95.0810   -9.0680 C.2   808  ALA808      0.2616
    151  O         46.5730   94.6160   -8.0610 O.2   808  ALA808     -0.2715
    152  CB        45.2030   95.1580  -10.7040 C.3   808  ALA808      0.0334
    153  N         48.3390   94.8050   -9.4350 N.am  809  GLN809     -0.1977
    154  CA        49.1360   93.7640   -8.7860 C.3   809  GLN809      0.1601
    155  C         48.3190   92.4910   -8.7300 C.2   809  GLN809      0.2287
    156  O         48.1020   91.8860   -7.6720 O.2   809  GLN809     -0.2864
    157  CB        49.6160   94.2070   -7.4070 C.3   809  GLN809      0.0394
    158  CG        50.7420   95.2070   -7.5010 C.3   809  GLN809      0.0908
    159  CD        52.0510   94.5660   -7.9160 C.2   809  GLN809      0.2608
    160  OE1       52.4960   93.6010   -7.2800 O.2   809  GLN809     -0.2717
    161  NE2       52.6790   95.0840   -8.9770 N.am  809  GLN809     -0.0878
@<TRIPOS>BOND
     1    62    61    1
     2    61    60    1
     3    60    59    1
     4    44    43   ar
     5    59    58    1
     6    43    45   ar
     7    43    42    1
     8    58    55    1
     9    56    57    2
    10    56    55    1
    11    42    39    1
    12    55    54    1
    13    37    35    1
    14    38    39    1
    15    38    33   am
    16    39    40    1
    17    54    48   am
    18    63    64    1
    19    32    35    1
    20    32    33    1
    21    32    31    1
    22    35    36    1
    23    40    41    2
    24    40    46   am
    25   141   139    1
    26    33    34    2
    27   135   136    1
    28    46    47    1
    29    48    49    2
    30    48    47    1
    31    64    65    1
    32    64    67    1
    33   139   136    1
    34   139   140    1
    35   147   146    1
    36    65    66    2
    37   136   137    1
    38    47    50    1
    39   146   143    1
    40   142   137   am
    41   142   143    1
    42    67    68    1
    43    50    51    1
    44   137   138    2
    45   143   144    1
    46     5     2    1
    47    68    69    1
    48   148   144   am
    49   148   149    1
    50     1     2    1
    51    51    53   ar
    52    51    52   ar
    53    69    70    1
    54    85    84    2
    55   152   149    1
    56     2     3    1
    57   144   145    2
    58   149   150    1
    59    84    86   am
    60    84    83    1
    61   153   150   am
    62   153   154    1
    63    77    75    1
    64     3     6   am
    65     3     4    2
    66    79    80    1
    67    79    73   am
    68   150   151    2
    69   161   159   am
    70    80    83    1
    71    80    81    1
    72   154   155    1
    73   154   157    1
    74   155   156    2
    75     6     7    1
    76    72    75    1
    77    72    73    1
    78    72    71    1
    79    76    75    1
    80    76    78    1
    81    73    74    2
    82   159   158    1
    83   159   160    2
    84    81    82    2
    85     9     8    2
    86   158   157    1
    87   103   101   ar
    88     7     8    1
    89     7    10    1
    90   126   125    1
    91     8    18   am
    92    10    11    1
    93   127   125    1
    94   101   102   ar
    95   101   100    1
    96   125   124    1
    97   110   108    1
    98    18    19    1
    99    30    29    1
   100    30    24    1
   101   124   121    1
   102   132   133    1
   103   132   129    1
   104    11    13   ar
   105    11    12   ar
   106    19    22    1
   107    19    20    1
   108   131   130    2
   109   130   129    1
   110   100    99    1
   111    13    15   ar
   112    29    28    1
   113   108   105    1
   114   108   109    1
   115    22    23    1
   116   133   134    1
   117    94    92   am
   118   119   118    1
   119   129   128    1
   120   121   122    1
   121   121   120    1
   122    12    14   ar
   123    24    20   am
   124    24    25    1
   125   105   104    1
   126   105   106    1
   127    20    21    2
   128    99    96    1
   129   118   117    1
   130   134   128    1
   131   123   122    2
   132    15    16   ar
   133    92    93    2
   134    92    91    1
   135    28    25    1
   136   104    97   am
   137   117   116    1
   138    98    97    2
   139   107   106    2
   140    97    96    1
   141   120   113   am
   142    25    26    1
   143    14    16   ar
   144    96    95    1
   145    91    88    1
   146    16    17    1
   147   116   115    1
   148   113   114    2
   149   113   112    1
   150   115   112    1
   151    27    26    2
   152   112   111    1
   153    88    89    1
   154    88    87    1
   155    90    89    2
