@<TRIPOS>MOLECULE
tmp/5fjjC04.pdb
 145 142 0 0 0
SMALL
GASTEIGER

@<TRIPOS>ATOM
      1  N         56.1470    0.8570  -17.4520 N.3   420  ASP420     -0.1239
      2  CA        56.8770    1.2810  -18.6400 C.3   420  ASP420      0.1674
      3  C         56.0210    2.3050  -19.3600 C.2   420  ASP420      0.2266
      4  O         55.7080    2.1320  -20.5270 O.2   420  ASP420     -0.2867
      5  CB        57.2240    0.0700  -19.5610 C.3   420  ASP420      0.1410
      6  CG        58.1380    0.4800  -20.7220 C.2   420  ASP420      0.3668
      7  OD1       59.0100    1.3790  -20.4880 O.co2 420  ASP420     -0.2456
      8  OD2       57.9180    0.0100  -21.8640 O.co2 420  ASP420     -0.2456
      9  N         51.7680    7.8800  -28.8470 N.3   461  ASP461     -0.1239
     10  CA        50.9950    6.6430  -28.7740 C.3   461  ASP461      0.1674
     11  C         51.5850    5.5630  -29.7240 C.2   461  ASP461      0.2266
     12  O         51.3940    5.6020  -30.9210 O.2   461  ASP461     -0.2867
     13  CB        49.5490    6.9570  -29.1480 C.3   461  ASP461      0.1410
     14  CG        48.6000    5.7950  -28.8890 C.2   461  ASP461      0.3668
     15  OD1       49.0680    4.6480  -28.6570 O.co2 461  ASP461     -0.2456
     16  OD2       47.3770    6.0450  -28.9550 O.co2 461  ASP461     -0.2456
     17  N         50.6280    2.6500  -30.2620 N.3   463  TRP463     -0.1227
     18  CA        49.5860    1.8740  -30.8780 C.3   463  TRP463      0.1737
     19  C         48.7940    2.6270  -31.9390 C.2   463  TRP463      0.2595
     20  O         48.0010    2.0230  -32.6110 O.2   463  TRP463     -0.2718
     21  CB        48.6370    1.3590  -29.8000 C.3   463  TRP463      0.0564
     22  CG        49.3720    0.6130  -28.7670 C.ar  463  TRP463      0.0003
     23  CD1       49.7830    1.0870  -27.5360 C.ar  463  TRP463      0.0946
     24  CD2       49.8360   -0.7240  -28.8550 C.ar  463  TRP463      0.0152
     25  NE1       50.4550    0.1120  -26.8550 N.ar  463  TRP463     -0.2442
     26  CE2       50.4940   -1.0170  -27.6360 C.ar  463  TRP463      0.0810
     27  CE3       49.7280   -1.7290  -29.8320 C.ar  463  TRP463      0.0012
     28  CZ2       51.0540   -2.2680  -27.3750 C.ar  463  TRP463      0.0191
     29  CZ3       50.2870   -2.9710  -29.5730 C.ar  463  TRP463      0.0001
     30  CH2       50.9460   -3.2250  -28.3570 C.ar  463  TRP463      0.0015
     31  N         49.0920    3.9040  -32.1580 N.am  464  ALA464     -0.1966
     32  CA        48.4610    4.6870  -33.2040 C.3   464  ALA464      0.1728
     33  C         49.3710    4.7290  -34.4420 C.2   464  ALA464      0.2616
     34  O         49.9170    5.7900  -34.8320 O.2   464  ALA464     -0.2715
     35  CB        48.1770    6.0900  -32.6900 C.3   464  ALA464      0.0334
     36  N         49.5260    3.5710  -35.0890 N.am  465  LEU465     -0.1963
     37  CA        50.4350    3.4590  -36.2290 C.3   465  LEU465      0.1728
     38  C         50.0320    4.3650  -37.4100 C.2   465  LEU465      0.2616
     39  O         50.8990    4.8680  -38.1190 O.2   465  LEU465     -0.2715
     40  CB        50.5790    2.0070  -36.6750 C.3   465  LEU465      0.0311
     41  CG        51.1900    1.0590  -35.6450 C.3   465  LEU465      0.0022
     42  CD1       51.3600   -0.3310  -36.2470 C.3   465  LEU465      0.0001
     43  CD2       52.5350    1.5440  -35.1170 C.3   465  LEU465      0.0001
     44  N         48.7260    4.5770  -37.6080 N.am  466  ASP466     -0.1957
     45  CA        48.2870    5.5160  -38.6090 C.3   466  ASP466      0.1840
     46  C         48.8490    6.9590  -38.3410 C.2   466  ASP466      0.2621
     47  O         49.3090    7.6250  -39.2850 O.2   466  ASP466     -0.2715
     48  CB        46.7620    5.5470  -38.7200 C.3   466  ASP466      0.1450
     49  CG        46.0510    5.7840  -37.3690 C.2   466  ASP466      0.3671
     50  OD1       46.7000    5.7730  -36.2870 O.co2 466  ASP466     -0.2456
     51  OD2       44.8050    5.9410  -37.3800 O.co2 466  ASP466     -0.2456
     52  N         48.8550    7.3920  -37.0690 N.am  467  LYS467     -0.1977
     53  CA        49.3610    8.7240  -36.7050 C.3   467  LYS467      0.1596
     54  C         50.8780    8.7650  -36.8100 C.2   467  LYS467      0.2287
     55  O         51.4380    9.7130  -37.3200 O.2   467  LYS467     -0.2864
     56  CB        48.9310    9.1030  -35.2830 C.3   467  LYS467      0.0298
     57  CG        47.4400    8.9730  -35.0290 C.3   467  LYS467      0.0038
     58  CD        46.5780    9.6890  -36.0530 C.3   467  LYS467      0.0206
     59  CE        45.0960    9.4310  -35.7640 C.3   467  LYS467      0.1093
     60  NZ        44.3350   10.3170  -36.6580 N.3   467  LYS467     -0.1314
     61  N         55.3720   -6.4390  -13.8860 N.3   493  VAL493     -0.1231
     62  CA        54.7940   -5.4690  -14.8160 C.3   493  VAL493      0.1692
     63  C         54.4240   -6.2150  -16.0890 C.2   493  VAL493      0.2592
     64  O         55.2890   -6.8580  -16.6910 O.2   493  VAL493     -0.2718
     65  CB        55.7470   -4.3240  -15.1550 C.3   493  VAL493      0.0266
     66  CG1       55.0850   -3.3290  -16.0790 C.3   493  VAL493      0.0020
     67  CG2       56.2070   -3.6220  -13.8890 C.3   493  VAL493      0.0020
     68  N         53.1210   -6.1870  -16.4230 N.am  494  ASP494     -0.1974
     69  CA        52.5480   -6.9010  -17.5560 C.3   494  ASP494      0.1709
     70  C         52.9900   -8.3680  -17.6260 C.2   494  ASP494      0.2293
     71  O         53.3850   -8.8600  -18.6540 O.2   494  ASP494     -0.2864
     72  CB        52.9140   -6.1730  -18.8570 C.3   494  ASP494      0.1436
     73  CG        52.2520   -6.7860  -20.0830 C.2   494  ASP494      0.3671
     74  OD1       51.0410   -7.0460  -19.9940 O.co2 494  ASP494     -0.2456
     75  OD2       52.9510   -7.0560  -21.1140 O.co2 494  ASP494     -0.2456
     76  N         55.6740   -9.6720  -16.4200 N.3   496  ASN496     -0.1240
     77  CA        57.1140   -9.8590  -16.2970 C.3   496  ASN496      0.1653
     78  C         57.5050   -9.7890  -14.8270 C.2   496  ASN496      0.2266
     79  O         57.4700   -8.7000  -14.2270 O.2   496  ASN496     -0.2867
     80  CB        57.8680   -8.7810  -17.0650 C.3   496  ASN496      0.1155
     81  CG        57.6170   -8.8700  -18.5580 C.2   496  ASN496      0.2627
     82  OD1       58.4010   -9.5040  -19.2820 O.2   496  ASN496     -0.2716
     83  ND2       56.5990   -8.2120  -19.0190 N.am  496  ASN496     -0.0877
     84  N         60.2330  -11.4550  -19.8530 N.3   501  ASN501     -0.1225
     85  CA        59.7760  -12.6660  -20.5300 C.3   501  ASN501      0.1785
     86  C         60.3150  -12.8330  -21.9320 C.2   501  ASN501      0.2597
     87  O         60.3940  -13.9580  -22.4290 O.2   501  ASN501     -0.2718
     88  CB        58.2540  -12.7100  -20.5640 C.3   501  ASN501      0.1169
     89  CG        57.6560  -12.9780  -19.2190 C.2   501  ASN501      0.2627
     90  OD1       58.2240  -13.6970  -18.4350 O.2   501  ASN501     -0.2716
     91  ND2       56.5090  -12.3570  -18.9220 N.am  501  ASN501     -0.0877
     92  N         60.6860  -11.7200  -22.5620 N.am  502  ASN502     -0.1974
     93  CA        61.4170  -11.7460  -23.8200 C.3   502  ASN502      0.1688
     94  C         62.4160  -10.5840  -23.8760 C.2   502  ASN502      0.2292
     95  O         62.4220   -9.7450  -22.9880 O.2   502  ASN502     -0.2864
     96  CB        60.4400  -11.7080  -24.9920 C.3   502  ASN502      0.1181
     97  CG        59.5950  -10.4650  -25.0260 C.2   502  ASN502      0.2629
     98  OD1       60.1060   -9.3320  -25.1250 O.2   502  ASN502     -0.2716
     99  ND2       58.2780  -10.6530  -24.9740 N.am  502  ASN502     -0.0877
    100  N         62.4250   -8.4950  -26.6450 N.3   504  THR504     -0.1203
    101  CA        61.8730   -7.7380  -27.7220 C.3   504  THR504      0.1994
    102  C         61.4070   -6.3770  -27.2180 C.2   504  THR504      0.2618
    103  O         61.1210   -6.2410  -26.0460 O.2   504  THR504     -0.2717
    104  CB        60.6900   -8.5680  -28.3130 C.3   504  THR504      0.1784
    105  OG1       61.2740   -9.6810  -29.0260 O.3   504  THR504     -0.2211
    106  CG2       59.7760   -7.7730  -29.2490 C.3   504  THR504      0.0376
    107  N         61.3640   -5.3610  -28.0890 N.am  505  LEU505     -0.1965
    108  CA        60.9450   -4.0220  -27.6540 C.3   505  LEU505      0.1728
    109  C         59.5240   -4.0580  -27.1320 C.2   505  LEU505      0.2616
    110  O         58.7080   -4.7310  -27.6850 O.2   505  LEU505     -0.2715
    111  CB        60.9930   -3.0220  -28.8030 C.3   505  LEU505      0.0311
    112  CG        62.3790   -2.6990  -29.3410 C.3   505  LEU505      0.0022
    113  CD1       62.2400   -1.9400  -30.6280 C.3   505  LEU505      0.0001
    114  CD2       63.1260   -1.8570  -28.3160 C.3   505  LEU505      0.0001
    115  N         59.2560   -3.3350  -26.0380 N.am  506  TRP506     -0.1960
    116  CA        57.9540   -3.2720  -25.4440 C.3   506  TRP506      0.1771
    117  C         57.1040   -2.2820  -26.1950 C.2   506  TRP506      0.2620
    118  O         57.5900   -1.5550  -27.0360 O.2   506  TRP506     -0.2715
    119  CB        58.0590   -2.8360  -23.9520 C.3   506  TRP506      0.0590
    120  CG        58.5590   -3.9100  -23.0080 C.ar  506  TRP506      0.0006
    121  CD1       59.4350   -4.9080  -23.2730 C.ar  506  TRP506      0.0946
    122  CD2       58.2590   -3.9980  -21.6240 C.ar  506  TRP506      0.0152
    123  NE1       59.6820   -5.6540  -22.1480 N.ar  506  TRP506     -0.2442
    124  CE2       58.9440   -5.1190  -21.1200 C.ar  506  TRP506      0.0810
    125  CE3       57.4490   -3.2460  -20.7560 C.ar  506  TRP506      0.0012
    126  CZ2       58.8400   -5.5040  -19.7890 C.ar  506  TRP506      0.0191
    127  CZ3       57.3210   -3.6540  -19.4480 C.ar  506  TRP506      0.0001
    128  CH2       58.0000   -4.7700  -18.9790 C.ar  506  TRP506      0.0015
    129  N         55.8170   -2.2540  -25.8460 N.am  507  LYS507     -0.1963
    130  CA        54.8960   -1.2500  -26.3290 C.3   507  LYS507      0.1728
    131  C         55.0270   -1.1060  -27.8720 C.2   507  LYS507      0.2616
    132  O         55.1750    0.0050  -28.3960 O.2   507  LYS507     -0.2715
    133  CB        55.1900    0.1280  -25.6590 C.3   507  LYS507      0.0311
    134  CG        55.0330    0.2150  -24.1430 C.3   507  LYS507      0.0038
    135  CD        53.5700    0.2420  -23.7510 C.3   507  LYS507      0.0206
    136  CE        53.3630    0.3510  -22.2400 C.3   507  LYS507      0.1093
    137  NZ        53.2050    1.7350  -21.7620 N.3   507  LYS507     -0.1314
    138  N         54.9000   -2.2330  -28.5920 N.am  508  ASN508     -0.1972
    139  CA        54.7040   -2.2200  -30.0360 C.3   508  ASN508      0.1688
    140  C         55.9140   -1.5710  -30.7430 C.2   508  ASN508      0.2292
    141  O         55.7750   -1.0460  -31.8210 O.2   508  ASN508     -0.2864
    142  CB        53.4190   -1.4350  -30.3880 C.3   508  ASN508      0.1181
    143  CG        52.7220   -1.9570  -31.6420 C.2   508  ASN508      0.2629
    144  OD1       52.7620   -3.1600  -31.9280 O.2   508  ASN508     -0.2716
    145  ND2       52.0870   -1.0650  -32.3850 N.am  508  ASN508     -0.0877
@<TRIPOS>BOND
     1    47    46    2
     2    48    45    1
     3    48    49    1
     4    45    46    1
     5    45    44    1
     6    46    52   am
     7    39    38    2
     8    44    38   am
     9    38    37    1
    10    51    49   ar
    11    49    50   ar
    12    55    54    2
    13    52    53    1
    14    54    53    1
    15    53    56    1
    16    40    37    1
    17    40    41    1
    18    60    59    1
    19    42    41    1
    20    37    36    1
    21    58    59    1
    22    58    57    1
    23    41    43    1
    24    56    57    1
    25    36    33   am
    26    34    33    2
    27    33    32    1
    28    32    35    1
    29    32    31    1
    30    20    19    2
    31   145   143   am
    32    31    19   am
    33    19    18    1
    34   144   143    2
    35   141   140    2
    36   143   142    1
    37    12    11    2
    38    18    17    1
    39    18    21    1
    40   140   139    1
    41   113   112    1
    42   142   139    1
    43   139   138    1
    44    27    29   ar
    45    27    24   ar
    46    21    22    1
    47    11    10    1
    48    29    30   ar
    49   112   111    1
    50   112   114    1
    51   106   104    1
    52    13    14    1
    53    13    10    1
    54   105   104    1
    55    16    14   ar
    56    14    15   ar
    57    24    22   ar
    58    24    26   ar
    59     9    10    1
    60   111   108    1
    61    22    23   ar
    62   138   131   am
    63   132   131    2
    64    30    28   ar
    65   104   101    1
    66   107   108    1
    67   107   102   am
    68   131   130    1
    69   101   102    1
    70   101   100    1
    71   110   109    2
    72   108   109    1
    73    26    28   ar
    74    26    25   ar
    75    23    25   ar
    76   102   103    2
    77   109   115   am
    78   118   117    2
    79   130   129    1
    80   130   133    1
    81   117   129   am
    82   117   116    1
    83   115   116    1
    84   133   134    1
    85   116   119    1
    86    98    97    2
    87    97    96    1
    88    97    99   am
    89    96    93    1
    90   134   135    1
    91   119   120    1
    92    94    93    1
    93    94    95    2
    94    93    92    1
    95   135   136    1
    96   121   120   ar
    97   121   123   ar
    98   120   122   ar
    99    92    86   am
   100    87    86    2
   101   136   137    1
   102   123   124   ar
   103    86    85    1
   104     8     6   ar
   105   122   124   ar
   106   122   125   ar
   107   124   126   ar
   108    75    73   ar
   109   125   127   ar
   110     6     7   ar
   111     6     5    1
   112    88    85    1
   113    88    89    1
   114    85    84    1
   115     4     3    2
   116    73    74   ar
   117    73    72    1
   118   126   128   ar
   119     5     2    1
   120   127   128   ar
   121     3     2    1
   122    82    81    2
   123    89    91   am
   124    89    90    2
   125    83    81   am
   126    72    69    1
   127    71    70    2
   128     2     1    1
   129    81    80    1
   130    70    69    1
   131    69    68    1
   132    80    77    1
   133    64    63    2
   134    68    63   am
   135    76    77    1
   136    77    78    1
   137    63    62    1
   138    66    65    1
   139    65    62    1
   140    65    67    1
   141    78    79    2
   142    62    61    1
