@<TRIPOS>MOLECULE
tmp/5fjjD03.pdb
 121 119 0 0 0
SMALL
GASTEIGER

@<TRIPOS>ATOM
      1  N         18.9830   27.5170  -57.6590 N.3   266  GLY266     -0.1225
      2  CA        19.6830   28.3420  -58.6400 C.3   266  GLY266      0.1811
      3  C         19.0350   29.6960  -58.7990 C.2   266  GLY266      0.2280
      4  O         19.6320   30.7320  -58.4860 O.2   266  GLY266     -0.2866
      5  N         25.9790   20.6400  -56.0390 N.3   282  VAL282     -0.1231
      6  CA        24.7100   20.5780  -55.2990 C.3   282  VAL282      0.1692
      7  C         24.9650   20.0040  -53.9200 C.2   282  VAL282      0.2592
      8  O         24.4550   20.4990  -52.9270 O.2   282  VAL282     -0.2718
      9  CB        23.6140   19.7670  -56.0620 C.3   282  VAL282      0.0266
     10  CG1       22.4770   19.3070  -55.1540 C.3   282  VAL282      0.0020
     11  CG2       23.0610   20.6060  -57.2050 C.3   282  VAL282      0.0020
     12  N         25.7060   18.9020  -53.9160 N.am  283  THR283     -0.1953
     13  CA        26.2680   18.2790  -52.7170 C.3   283  THR283      0.1897
     14  C         27.6630   17.8870  -53.1100 C.2   283  THR283      0.2313
     15  O         27.9860   17.8420  -54.2980 O.2   283  THR283     -0.2863
     16  CB        25.5020   17.0120  -52.2650 C.3   283  THR283      0.1794
     17  OG1       25.4870   16.0390  -53.3090 O.3   283  THR283     -0.2208
     18  CG2       24.0860   17.3520  -51.8690 C.3   283  THR283      0.0378
     19  N         28.7400   15.7750  -56.2790 N.3   286  SER286     -0.1202
     20  CA        27.5870   15.3410  -57.0580 C.3   286  SER286      0.2020
     21  C         27.8140   15.4520  -58.5710 C.2   286  SER286      0.2619
     22  O         27.0710   14.8700  -59.3260 O.2   286  SER286     -0.2717
     23  CB        26.3540   16.1330  -56.6260 C.3   286  SER286      0.2103
     24  OG        26.4350   17.4990  -57.0210 O.3   286  SER286     -0.2182
     25  N         28.8080   16.2300  -59.0120 N.am  287  GLY287     -0.1942
     26  CA        28.9710   16.5650  -60.4200 C.3   287  GLY287      0.2014
     27  C         27.8390   17.3840  -61.0370 C.2   287  GLY287      0.2640
     28  O         27.7330   17.4760  -62.2540 O.2   287  GLY287     -0.2714
     29  N         26.9870   17.9600  -60.2060 N.am  288  THR288     -0.1936
     30  CA        25.9190   18.8320  -60.6360 C.3   288  THR288      0.2028
     31  C         26.0490   20.1130  -59.8270 C.2   288  THR288      0.2643
     32  O         26.7310   20.1090  -58.8050 O.2   288  THR288     -0.2714
     33  CB        24.5820   18.2310  -60.2610 C.3   288  THR288      0.1808
     34  OG1       24.5600   17.9810  -58.8520 O.3   288  THR288     -0.2208
     35  CG2       24.3380   16.9080  -61.0190 C.3   288  THR288      0.0379
     36  N         25.3740   21.1760  -60.2510 N.am  289  SER289     -0.1935
     37  CA        25.4110   22.4730  -59.5620 C.3   289  SER289      0.2055
     38  C         24.0890   23.1580  -59.6560 C.2   289  SER289      0.2643
     39  O         23.3980   23.0090  -60.6730 O.2   289  SER289     -0.2714
     40  CB        26.4400   23.3930  -60.2060 C.3   289  SER289      0.2130
     41  OG        26.3910   24.7040  -59.6380 O.3   289  SER289     -0.2179
     42  N         23.7040   23.8980  -58.6050 N.am  290  PHE290     -0.1959
     43  CA        22.5220   24.7580  -58.6970 C.3   290  PHE290      0.1771
     44  C         22.8000   25.9290  -59.6370 C.2   290  PHE290      0.2619
     45  O         21.8580   26.5030  -60.1790 O.2   290  PHE290     -0.2715
     46  CB        22.0490   25.2730  -57.3490 C.3   290  PHE290      0.0574
     47  CG        21.4240   24.2220  -56.4770 C.ar  290  PHE290     -0.0200
     48  CD1       20.1960   23.6330  -56.8170 C.ar  290  PHE290     -0.0042
     49  CD2       22.0610   23.8110  -55.3070 C.ar  290  PHE290     -0.0042
     50  CE1       19.6170   22.6490  -56.0130 C.ar  290  PHE290     -0.0003
     51  CE2       21.4910   22.8310  -54.4920 C.ar  290  PHE290     -0.0003
     52  CZ        20.2580   22.2510  -54.8390 C.ar  290  PHE290     -0.0000
     53  N         24.0720   26.2590  -59.8440 N.am  291  TRP291     -0.1974
     54  CA        24.4930   27.2350  -60.8350 C.3   291  TRP291      0.1640
     55  C         25.3300   26.5130  -61.8850 C.2   291  TRP291      0.2290
     56  O         24.8660   25.4940  -62.3970 O.2   291  TRP291     -0.2864
     57  CB        25.2210   28.3990  -60.1520 C.3   291  TRP291      0.0576
     58  CG        24.3200   29.3870  -59.4410 C.ar  291  TRP291      0.0006
     59  CD1       22.9610   29.3570  -59.3280 C.ar  291  TRP291      0.0946
     60  CD2       24.7540   30.5210  -58.6940 C.ar  291  TRP291      0.0152
     61  NE1       22.5200   30.4150  -58.5720 N.ar  291  TRP291     -0.2442
     62  CE2       23.6140   31.1380  -58.1670 C.ar  291  TRP291      0.0810
     63  CE3       26.0150   31.0660  -58.4100 C.ar  291  TRP291      0.0012
     64  CZ2       23.6900   32.2900  -57.3880 C.ar  291  TRP291      0.0191
     65  CZ3       26.0880   32.2040  -57.6340 C.ar  291  TRP291      0.0001
     66  CH2       24.9430   32.7930  -57.1300 C.ar  291  TRP291      0.0015
     67  N         26.2260   25.3220  -65.2800 N.3   293  ALA293     -0.1231
     68  CA        25.3040   25.1930  -66.4270 C.3   293  ALA293      0.1694
     69  C         23.9000   25.6870  -66.1260 C.2   293  ALA293      0.2592
     70  O         23.2780   26.3610  -66.9500 O.2   293  ALA293     -0.2718
     71  CB        25.2510   23.7490  -66.9230 C.3   293  ALA293      0.0304
     72  N         23.3770   25.3560  -64.9520 N.am  294  ASN294     -0.1974
     73  CA        22.0580   25.8850  -64.5570 C.3   294  ASN294      0.1688
     74  C         21.9470   27.4100  -64.5080 C.2   294  ASN294      0.2292
     75  O         20.8660   27.9650  -64.6810 O.2   294  ASN294     -0.2864
     76  CB        21.6300   25.3550  -63.2040 C.3   294  ASN294      0.1181
     77  CG        20.8070   24.0860  -63.2830 C.2   294  ASN294      0.2629
     78  OD1       19.8740   23.9720  -64.0900 O.2   294  ASN294     -0.2716
     79  ND2       21.1280   23.1260  -62.3870 N.am  294  ASN294     -0.0877
     80  N         19.8100   20.5490  -70.9050 N.3   698  SER698     -0.1202
     81  CA        21.1150   20.9620  -70.3570 C.3   698  SER698      0.2020
     82  C         21.0730   21.2250  -68.8300 C.2   698  SER698      0.2619
     83  O         22.0440   20.9850  -68.1480 O.2   698  SER698     -0.2717
     84  CB        21.6770   22.1660  -71.1270 C.3   698  SER698      0.2103
     85  OG        22.1760   21.7490  -72.3800 O.3   698  SER698     -0.2182
     86  N         19.9280   21.6810  -68.3400 N.am  699  SER699     -0.1937
     87  CA        19.6540   21.8850  -66.9140 C.3   699  SER699      0.2055
     88  C         19.3590   20.5760  -66.2030 C.2   699  SER699      0.2643
     89  O         19.9410   20.3010  -65.1490 O.2   699  SER699     -0.2714
     90  CB        18.4600   22.8180  -66.7140 C.3   699  SER699      0.2130
     91  OG        17.8100   22.5380  -65.4810 O.3   699  SER699     -0.2179
     92  N         18.4070   19.8050  -66.7410 N.am  700  ASP700     -0.1957
     93  CA        18.0410   18.4880  -66.2020 C.3   700  ASP700      0.1840
     94  C         17.2560   18.5990  -64.9260 C.2   700  ASP700      0.2622
     95  O         17.0140   17.5910  -64.2520 O.2   700  ASP700     -0.2715
     96  CB        19.2900   17.6160  -65.9850 C.3   700  ASP700      0.1450
     97  CG        19.0130   16.1530  -66.1170 C.2   700  ASP700      0.3671
     98  OD1       18.5650   15.7570  -67.1940 O.co2 700  ASP700     -0.2456
     99  OD2       19.2820   15.3960  -65.1860 O.co2 700  ASP700     -0.2456
    100  N         16.7970   19.8060  -64.5950 N.am  701  ASP701     -0.1957
    101  CA        15.9890   19.9970  -63.4130 C.3   701  ASP701      0.1840
    102  C         14.6070   19.4520  -63.7380 C.2   701  ASP701      0.2623
    103  O         13.9260   19.9720  -64.6170 O.2   701  ASP701     -0.2715
    104  CB        15.9000   21.4880  -63.0540 C.3   701  ASP701      0.1450
    105  CG        15.1690   21.7470  -61.7300 C.2   701  ASP701      0.3671
    106  OD1       14.0030   21.3430  -61.5660 O.co2 701  ASP701     -0.2456
    107  OD2       15.7410   22.4370  -60.8580 O.co2 701  ASP701     -0.2456
    108  N         14.1670   18.4400  -63.0060 N.am  702  SER702     -0.1936
    109  CA        12.8720   17.8180  -63.2790 C.3   702  SER702      0.2055
    110  C         11.6550   18.7490  -63.1560 C.2   702  SER702      0.2643
    111  O         10.5720   18.3660  -63.5850 O.2   702  SER702     -0.2714
    112  CB        12.6780   16.5930  -62.3880 C.3   702  SER702      0.2130
    113  OG        12.4650   16.9840  -61.0490 O.3   702  SER702     -0.2179
    114  N         11.7970   19.9190  -62.5250 N.am  703  ASN703     -0.1971
    115  CA        10.7230   20.9180  -62.4940 C.3   703  ASN703      0.1688
    116  C         10.9970   22.1100  -63.4180 C.2   703  ASN703      0.2292
    117  O         10.3410   23.1410  -63.2860 O.2   703  ASN703     -0.2864
    118  CB        10.4440   21.4030  -61.0620 C.3   703  ASN703      0.1181
    119  CG        10.3100   20.2700  -60.0690 C.2   703  ASN703      0.2629
    120  OD1       10.9940   20.2310  -59.0350 O.2   703  ASN703     -0.2716
    121  ND2        9.4190   19.3490  -60.3570 N.am  703  ASN703     -0.0877
@<TRIPOS>BOND
     1    85    84    1
     2    84    81    1
     3    80    81    1
     4    81    82    1
     5    82    86   am
     6    82    83    2
     7    86    87    1
     8    98    97   ar
     9    70    69    2
    10    71    68    1
    11    87    90    1
    12    87    88    1
    13    92    88   am
    14    92    93    1
    15    90    91    1
    16    68    69    1
    17    68    67    1
    18    88    89    2
    19    93    96    1
    20    93    94    1
    21    69    72   am
    22    97    96    1
    23    97    99   ar
    24    72    73    1
    25    94   100   am
    26    94    95    2
    27    75    74    2
    28   103   102    2
    29   100   101    1
    30    73    74    1
    31    73    76    1
    32    78    77    2
    33   102   101    1
    34   102   108   am
    35   111   110    2
    36   116   117    2
    37   116   115    1
    38   101   104    1
    39    77    76    1
    40    77    79   am
    41   109   110    1
    42   109   108    1
    43   109   112    1
    44   110   114   am
    45   104   105    1
    46   114   115    1
    47   115   118    1
    48    56    55    2
    49   112   113    1
    50    28    27    2
    51    55    54    1
    52   105   106   ar
    53   105   107   ar
    54   118   119    1
    55    27    26    1
    56    27    29   am
    57    35    33    1
    58    54    57    1
    59    54    53    1
    60    39    38    2
    61    30    33    1
    62    30    29    1
    63    30    31    1
    64    26    25    1
    65   121   119   am
    66    33    34    1
    67    36    31   am
    68    36    37    1
    69    40    41    1
    70    40    37    1
    71    45    44    2
    72    57    58    1
    73   119   120    2
    74    53    44   am
    75    31    32    2
    76    38    37    1
    77    38    42   am
    78    44    43    1
    79    58    59   ar
    80    58    60   ar
    81    59    61   ar
    82    22    21    2
    83    25    21   am
    84     3     2    1
    85     3     4    2
    86    43    42    1
    87    43    46    1
    88    60    63   ar
    89    60    62   ar
    90     2     1    1
    91    61    62   ar
    92    21    20    1
    93    63    65   ar
    94    62    64   ar
    95    65    66   ar
    96    64    66   ar
    97    46    47    1
    98    11     9    1
    99    20    23    1
   100    20    19    1
   101    24    23    1
   102    48    47   ar
   103    48    50   ar
   104    47    49   ar
   105     9     6    1
   106     9    10    1
   107     5     6    1
   108    50    52   ar
   109    49    51   ar
   110     6     7    1
   111    52    51   ar
   112    15    14    2
   113     7    12   am
   114     7     8    2
   115    12    13    1
   116    17    16    1
   117    14    13    1
   118    13    16    1
   119    16    18    1
