@<TRIPOS>MOLECULE
tmp/5fjjB03.pdb
 127 125 0 0 0
SMALL
GASTEIGER

@<TRIPOS>ATOM
      1  N         74.2920   88.7810    5.1770 N.3   265  SER265     -0.1202
      2  CA        74.1080   89.5220    6.4290 C.3   265  SER265      0.2020
      3  C         73.1130   88.8690    7.3780 C.2   265  SER265      0.2619
      4  O         72.1330   88.2940    6.9480 O.2   265  SER265     -0.2717
      5  CB        73.6170   90.9240    6.1500 C.3   265  SER265      0.2103
      6  OG        72.2760   90.9530    5.7030 O.3   265  SER265     -0.2182
      7  N         73.3490   88.9870    8.6760 N.am  266  GLY266     -0.1956
      8  CA        72.5260   88.3010    9.6870 C.3   266  GLY266      0.1869
      9  C         71.1590   88.8910    9.8190 C.2   266  GLY266      0.2309
     10  O         70.1520   88.2530    9.5120 O.2   266  GLY266     -0.2863
     11  N         80.6200   82.3360    7.4190 N.3   282  VAL282     -0.1231
     12  CA        80.6380   83.5620    6.6120 C.3   282  VAL282      0.1692
     13  C         81.2530   83.2920    5.2560 C.2   282  VAL282      0.2592
     14  O         80.7250   83.7090    4.2470 O.2   282  VAL282     -0.2718
     15  CB        81.3770   84.7400    7.3470 C.3   282  VAL282      0.0266
     16  CG1       81.7800   85.8600    6.3880 C.3   282  VAL282      0.0020
     17  CG2       80.4820   85.2930    8.4480 C.3   282  VAL282      0.0020
     18  N         82.4030   82.6490    5.2860 N.am  283  THR283     -0.1953
     19  CA        83.0350   82.0470    4.1340 C.3   283  THR283      0.1897
     20  C         83.4910   80.6650    4.5860 C.2   283  THR283      0.2313
     21  O         83.5650   80.3980    5.7860 O.2   283  THR283     -0.2863
     22  CB        84.2690   82.8470    3.6450 C.3   283  THR283      0.1794
     23  OG1       85.2200   82.9730    4.7120 O.3   283  THR283     -0.2208
     24  CG2       83.8540   84.2090    3.1790 C.3   283  THR283      0.0378
     25  N         85.6010   79.7770    7.8260 N.3   286  SER286     -0.1202
     26  CA        85.9700   81.0040    8.5420 C.3   286  SER286      0.2020
     27  C         85.8380   80.8470   10.0600 C.2   286  SER286      0.2619
     28  O         86.3900   81.6560   10.8000 O.2   286  SER286     -0.2717
     29  CB        85.1420   82.1920    8.0440 C.3   286  SER286      0.2103
     30  OG        83.7780   82.0860    8.4440 O.3   286  SER286     -0.2182
     31  N         85.0960   79.8380   10.5380 N.am  287  GLY287     -0.1942
     32  CA        84.7720   79.7290   11.9630 C.3   287  GLY287      0.2014
     33  C         83.9040   80.8450   12.5210 C.2   287  GLY287      0.2640
     34  O         83.7740   81.0020   13.7250 O.2   287  GLY287     -0.2714
     35  N         83.2980   81.6240   11.6370 N.am  288  THR288     -0.1936
     36  CA        82.3620   82.6620   12.0130 C.3   288  THR288      0.2028
     37  C         81.0870   82.4280   11.2110 C.2   288  THR288      0.2643
     38  O         81.1510   81.7230   10.1990 O.2   288  THR288     -0.2714
     39  CB        82.9000   84.0260   11.5850 C.3   288  THR288      0.1808
     40  OG1       83.1690   83.9970   10.1850 O.3   288  THR288     -0.2208
     41  CG2       84.2120   84.3650   12.3460 C.3   288  THR288      0.0379
     42  N         79.9960   83.0640   11.5980 N.am  289  SER289     -0.1935
     43  CA        78.7540   82.9620   10.8920 C.3   289  SER289      0.2055
     44  C         78.0200   84.2660   10.9020 C.2   289  SER289      0.2643
     45  O         78.0610   84.9820   11.9090 O.2   289  SER289     -0.2714
     46  CB        77.8520   81.9180   11.5650 C.3   289  SER289      0.2130
     47  OG        76.5220   81.8650   10.9710 O.3   289  SER289     -0.2179
     48  N         77.2460   84.5570    9.8360 N.am  290  PHE290     -0.1959
     49  CA        76.2770   85.6770    9.8930 C.3   290  PHE290      0.1771
     50  C         75.1400   85.3920   10.8430 C.2   290  PHE290      0.2619
     51  O         74.4860   86.3050   11.3210 O.2   290  PHE290     -0.2715
     52  CB        75.7380   86.0690    8.5200 C.3   290  PHE290      0.0574
     53  CG        76.7820   86.6880    7.6190 C.ar  290  PHE290     -0.0200
     54  CD1       77.3200   87.9610    7.9250 C.ar  290  PHE290     -0.0042
     55  CD2       77.2310   86.0330    6.4880 C.ar  290  PHE290     -0.0042
     56  CE1       78.2750   88.5380    7.1240 C.ar  290  PHE290     -0.0003
     57  CE2       78.1950   86.6110    5.6660 C.ar  290  PHE290     -0.0003
     58  CZ        78.7320   87.8640    6.0010 C.ar  290  PHE290     -0.0000
     59  N         74.8970   84.1200   11.0970 N.am  291  TRP291     -0.1974
     60  CA        73.8760   83.6880   12.0770 C.3   291  TRP291      0.1640
     61  C         74.6170   82.9310   13.1900 C.2   291  TRP291      0.2290
     62  O         75.6230   83.4640   13.6640 O.2   291  TRP291     -0.2864
     63  CB        72.7630   82.8760   11.3920 C.3   291  TRP291      0.0576
     64  CG        71.7440   83.6890   10.6190 C.ar  291  TRP291      0.0006
     65  CD1       71.6730   85.0240   10.4910 C.ar  291  TRP291      0.0946
     66  CD2       70.6380   83.1680    9.8980 C.ar  291  TRP291      0.0152
     67  NE1       70.5790   85.3860    9.7380 N.ar  291  TRP291     -0.2442
     68  CE2       69.9420   84.2570    9.3360 C.ar  291  TRP291      0.0810
     69  CE3       70.1740   81.8740    9.6550 C.ar  291  TRP291      0.0012
     70  CZ2       68.7900   84.0960    8.5720 C.ar  291  TRP291      0.0191
     71  CZ3       69.0300   81.7150    8.8690 C.ar  291  TRP291      0.0001
     72  CH2       68.3590   82.8100    8.3530 C.ar  291  TRP291      0.0015
     73  N         75.8590   82.2560   16.5870 N.3   293  ALA293     -0.1231
     74  CA        75.9020   83.2100   17.7280 C.3   293  ALA293      0.1694
     75  C         75.3400   84.5790   17.3540 C.2   293  ALA293      0.2592
     76  O         74.6190   85.1960   18.1260 O.2   293  ALA293     -0.2718
     77  CB        77.3280   83.3550   18.2300 C.3   293  ALA293      0.0304
     78  N         75.6420   85.0590   16.1520 N.am  294  ASN294     -0.1974
     79  CA        75.0410   86.3520   15.6860 C.3   294  ASN294      0.1688
     80  C         73.5410   86.3720   15.6390 C.2   294  ASN294      0.2292
     81  O         72.9130   87.4310   15.7570 O.2   294  ASN294     -0.2864
     82  CB        75.5750   86.7520   14.3040 C.3   294  ASN294      0.1181
     83  CG        76.8530   87.6240   14.3680 C.2   294  ASN294      0.2629
     84  OD1       76.9150   88.5680   15.1450 O.2   294  ASN294     -0.2716
     85  ND2       77.8450   87.2950   13.5350 N.am  294  ASN294     -0.0877
     86  N         80.2230   89.0930   22.0070 N.3   698  SER698     -0.1202
     87  CA        79.8620   87.7650   21.5000 C.3   698  SER698      0.2020
     88  C         79.6240   87.7380   19.9670 C.2   698  SER698      0.2619
     89  O         79.9420   86.7310   19.3190 O.2   698  SER698     -0.2717
     90  CB        78.6780   87.1840   22.2670 C.3   698  SER698      0.2103
     91  OG        79.1130   86.7620   23.5490 O.3   698  SER698     -0.2182
     92  N         79.1340   88.8530   19.4200 N.am  699  SER699     -0.1937
     93  CA        78.9460   89.0550   17.9760 C.3   699  SER699      0.2055
     94  C         80.2440   89.3690   17.2650 C.2   699  SER699      0.2643
     95  O         80.5610   88.7360   16.2400 O.2   699  SER699     -0.2714
     96  CB        77.9570   90.1720   17.7040 C.3   699  SER699      0.2130
     97  OG        78.2220   90.7650   16.4460 O.3   699  SER699     -0.2179
     98  N         80.9780   90.3660   17.7830 N.am  700  ASP700     -0.1957
     99  CA        82.2780   90.7790   17.2160 C.3   700  ASP700      0.1840
    100  C         82.1250   91.5160   15.8840 C.2   700  ASP700      0.2622
    101  O         83.1220   91.7550   15.1910 O.2   700  ASP700     -0.2715
    102  CB        83.2180   89.5790   17.0360 C.3   700  ASP700      0.1450
    103  CG        84.7140   89.9650   16.9100 C.2   700  ASP700      0.3671
    104  OD1       85.1510   90.9790   17.4650 O.co2 700  ASP700     -0.2456
    105  OD2       85.4700   89.2070   16.2660 O.co2 700  ASP700     -0.2456
    106  N         80.9000   91.9190   15.5450 N.am  701  ASP701     -0.1957
    107  CA        80.6720   92.6490   14.3160 C.3   701  ASP701      0.1840
    108  C         81.1570   94.0680   14.5670 C.2   701  ASP701      0.2623
    109  O         80.6000   94.7470   15.3960 O.2   701  ASP701     -0.2715
    110  CB        79.1850   92.6290   13.9540 C.3   701  ASP701      0.1450
    111  CG        78.8920   93.2650   12.5960 C.2   701  ASP701      0.3671
    112  OD1       79.2330   94.4460   12.3650 O.co2 701  ASP701     -0.2456
    113  OD2       78.2600   92.5940   11.7350 O.co2 701  ASP701     -0.2456
    114  N         82.1450   94.5150   13.8030 N.am  702  SER702     -0.1936
    115  CA        82.6990   95.8660   13.9660 C.3   702  SER702      0.2055
    116  C         81.7200   97.0130   13.7480 C.2   702  SER702      0.2643
    117  O         82.0160   98.1190   14.1590 O.2   702  SER702     -0.2714
    118  CB        83.9080   96.0670   13.0550 C.3   702  SER702      0.2130
    119  OG        83.4980   96.1830   11.7080 O.3   702  SER702     -0.2179
    120  N         80.5670   96.7760   13.1300 N.am  703  ASN703     -0.1971
    121  CA        79.4770   97.7900   13.0960 C.3   703  ASN703      0.1688
    122  C         78.3140   97.4830   14.0170 C.2   703  ASN703      0.2292
    123  O         77.2300   98.0790   13.8940 O.2   703  ASN703     -0.2864
    124  CB        78.9460   97.9840   11.6640 C.3   703  ASN703      0.1181
    125  CG        80.0580   98.1620   10.6360 C.2   703  ASN703      0.2629
    126  OD1       80.1710   97.3850    9.6660 O.2   703  ASN703     -0.2716
    127  ND2       80.9170   99.1290   10.8630 N.am  703  ASN703     -0.0877
@<TRIPOS>BOND
     1    24    22    1
     2    22    19    1
     3    22    23    1
     4    19    20    1
     5    19    18    1
     6    14    13    2
     7    20    21    2
     8     1     2    1
     9    13    18   am
    10    13    12    1
    11    57    58   ar
    12    57    55   ar
    13     6     5    1
    14    58    56   ar
    15     5     2    1
    16    16    15    1
    17     2     3    1
    18    55    53   ar
    19    12    15    1
    20    12    11    1
    21     4     3    2
    22    56    54   ar
    23    15    17    1
    24     3     7   am
    25    53    54   ar
    26    53    52    1
    27    25    26    1
    28    29    30    1
    29    29    26    1
    30    72    70   ar
    31    72    71   ar
    32    52    49    1
    33    26    27    1
    34    70    68   ar
    35     7     8    1
    36    71    69   ar
    37    68    67   ar
    38    68    66   ar
    39    10     9    2
    40    69    66   ar
    41   126   125    2
    42     8     9    1
    43    67    65   ar
    44    48    49    1
    45    48    44   am
    46    49    50    1
    47    66    64   ar
    48    27    31   am
    49    27    28    2
    50    40    39    1
    51    38    37    2
    52    65    64   ar
    53    31    32    1
    54    64    63    1
    55   125   127   am
    56   125   124    1
    57    50    59   am
    58    50    51    2
    59    43    44    1
    60    43    46    1
    61    43    42    1
    62    44    45    2
    63    47    46    1
    64    59    60    1
    65    37    42   am
    66    37    36    1
    67    63    60    1
    68    39    36    1
    69    39    41    1
    70    35    36    1
    71    35    33   am
    72   124   121    1
    73   119   118    1
    74   113   111   ar
    75    32    33    1
    76    60    61    1
    77   112   111   ar
    78    33    34    2
    79   111   110    1
    80   118   115    1
    81   121   120    1
    82   121   122    1
    83   120   116   am
    84    61    62    2
    85    85    83   am
    86   116   115    1
    87   116   117    2
    88   114   115    1
    89   114   108   am
    90   123   122    2
    91   110   107    1
    92    82    83    1
    93    82    79    1
    94   107   108    1
    95   107   106    1
    96    83    84    2
    97   108   109    2
    98   101   100    2
    99   106   100   am
   100    80    79    1
   101    80    81    2
   102    79    78    1
   103   100    99    1
   104    78    75   am
   105    95    94    2
   106   105   103   ar
   107    97    96    1
   108    73    74    1
   109   103   102    1
   110   103   104   ar
   111   102    99    1
   112    99    98    1
   113    94    98   am
   114    94    93    1
   115    75    74    1
   116    75    76    2
   117    96    93    1
   118    74    77    1
   119    93    92    1
   120    89    88    2
   121    92    88   am
   122    88    87    1
   123    87    86    1
   124    87    90    1
   125    90    91    1
