@<TRIPOS>MOLECULE
tmp/5fjjD01.pdb
 167 161 0 0 0
SMALL
GASTEIGER

@<TRIPOS>ATOM
      1  N         32.2960   36.9690  -71.6590 N.3    34  THR34      -0.1218
      2  CA        31.1540   36.1980  -72.1860 C.3    34  THR34       0.1862
      3  C         30.3140   35.6860  -71.0190 C.2    34  THR34       0.2287
      4  O         30.7880   35.6950  -69.8890 O.2    34  THR34      -0.2866
      5  CB        31.6390   34.9760  -72.9980 C.3    34  THR34       0.1770
      6  OG1       32.2350   34.0130  -72.1320 O.3    34  THR34      -0.2211
      7  CG2       32.6760   35.3960  -74.0520 C.3    34  THR34       0.0375
      8  N         29.4950   32.6560  -70.0580 N.3    36  THR36      -0.1203
      9  CA        30.1280   31.5290  -69.3870 C.3    36  THR36       0.1994
     10  C         31.4060   31.9040  -68.5930 C.2    36  THR36       0.2617
     11  O         31.7610   31.2110  -67.6430 O.2    36  THR36      -0.2717
     12  CB        30.4700   30.4180  -70.3950 C.3    36  THR36       0.1784
     13  OG1       31.0790   31.0130  -71.5480 O.3    36  THR36      -0.2211
     14  CG2       29.2400   29.6870  -70.7810 C.3    36  THR36       0.0376
     15  N         32.0960   32.9670  -68.9910 N.am   37  GLU37      -0.1979
     16  CA        33.2140   33.4910  -68.2100 C.3    37  GLU37       0.1602
     17  C         32.7250   34.0840  -66.8820 C.2    37  GLU37       0.2287
     18  O         33.2990   33.8250  -65.8200 O.2    37  GLU37      -0.2864
     19  CB        33.9810   34.5240  -69.0220 C.3    37  GLU37       0.0415
     20  CG        34.7920   33.8980  -70.1410 C.3    37  GLU37       0.1163
     21  CD        35.4230   34.9030  -71.0720 C.2    37  GLU37       0.3649
     22  OE1       34.9600   36.0680  -71.1590 O.co2  37  GLU37      -0.2457
     23  OE2       36.4270   34.5310  -71.7140 O.co2  37  GLU37      -0.2457
     24  N         31.5670   31.4000  -64.5460 N.3    40  ASN40      -0.1240
     25  CA        32.7320   30.7330  -63.9870 C.3    40  ASN40       0.1653
     26  C         33.1420   31.3670  -62.6260 C.2    40  ASN40       0.2266
     27  O         33.5200   30.6550  -61.6960 O.2    40  ASN40      -0.2867
     28  CB        33.9040   30.7850  -64.9940 C.3    40  ASN40       0.1155
     29  CG        34.4200   29.4070  -65.4190 C.2    40  ASN40       0.2627
     30  OD1       33.8880   28.3470  -65.0390 O.2    40  ASN40      -0.2716
     31  ND2       35.4960   29.4270  -66.2170 N.am   40  ASN40      -0.0877
     32  N         34.2750   24.9620  -58.5020 N.3    45  THR45      -0.1218
     33  CA        34.5250   23.8890  -59.4280 C.3    45  THR45       0.1862
     34  C         34.3070   22.5130  -58.8450 C.2    45  THR45       0.2287
     35  O         34.6020   21.5110  -59.5310 O.2    45  THR45      -0.2866
     36  CB        35.9080   24.0200  -60.0530 C.3    45  THR45       0.1770
     37  OG1       36.9300   23.9870  -59.0580 O.3    45  THR45      -0.2211
     38  CG2       35.9910   25.3380  -60.8520 C.3    45  THR45       0.0375
     39  N         40.2300   20.9870  -56.9360 N.3    50  GLU50      -0.1245
     40  CA        41.4500   21.7670  -57.1440 C.3    50  GLU50       0.1567
     41  C         42.2940   21.8520  -55.8480 C.2    50  GLU50       0.2260
     42  O         42.3520   20.8810  -55.1200 O.2    50  GLU50      -0.2867
     43  CB        41.0660   23.1130  -57.7720 C.3    50  GLU50       0.0388
     44  CG        40.3210   22.9120  -59.0810 C.3    50  GLU50       0.1160
     45  CD        40.2780   24.1560  -59.9220 C.2    50  GLU50       0.3649
     46  OE1       41.3460   24.5930  -60.4030 O.co2  50  GLU50      -0.2457
     47  OE2       39.1740   24.7030  -60.0760 O.co2  50  GLU50      -0.2457
     48  N         36.9820   29.1360  -57.6610 N.3    56  THR56      -0.1203
     49  CA        36.0330   29.5030  -58.6810 C.3    56  THR56       0.1994
     50  C         36.5610   28.9930  -60.0210 C.2    56  THR56       0.2618
     51  O         37.7070   28.5410  -60.1200 O.2    56  THR56      -0.2717
     52  CB        35.8640   31.0180  -58.7950 C.3    56  THR56       0.1784
     53  OG1       37.1140   31.5940  -59.1870 O.3    56  THR56      -0.2211
     54  CG2       35.4270   31.6350  -57.4630 C.3    56  THR56       0.0376
     55  N         35.7330   29.0960  -61.0540 N.am   57  GLY57      -0.1942
     56  CA        36.2340   28.9470  -62.4150 C.3    57  GLY57       0.2014
     57  C         37.1320   30.1260  -62.7160 C.2    57  GLY57       0.2639
     58  O         37.0950   31.1210  -61.9800 O.2    57  GLY57      -0.2714
     59  N         37.9200   30.0070  -63.7890 N.am   58  SER58      -0.1949
     60  CA        38.8480   31.0350  -64.2430 C.3    58  SER58       0.1924
     61  C         38.2880   31.7810  -65.4620 C.2    58  SER58       0.2314
     62  O         37.2390   31.4260  -65.9890 O.2    58  SER58      -0.2863
     63  CB        40.1940   30.3880  -64.5880 C.3    58  SER58       0.2116
     64  OG        40.0000   29.2330  -65.3990 O.3    58  SER58      -0.2180
     65  N         40.5170   32.5460  -68.4230 N.3    60  PRO60      -0.2102
     66  CA        41.8560   32.5480  -69.0080 C.3    60  PRO60       0.1504
     67  C         42.0040   33.4770  -70.2020 C.2    60  PRO60       0.2575
     68  O         43.0420   34.1150  -70.3230 O.2    60  PRO60      -0.2718
     69  CB        42.1170   31.0620  -69.3550 C.3    60  PRO60       0.0282
     70  CG        40.7640   30.4350  -69.4010 C.3    60  PRO60       0.0208
     71  CD        39.9380   31.1860  -68.4090 C.3    60  PRO60       0.0893
     72  N         40.9550   33.6500  -70.9960 N.am   61  ARG61      -0.1980
     73  CA        40.9850   34.6380  -72.0870 C.3    61  ARG61       0.1597
     74  C         41.3790   36.0630  -71.6240 C.2    61  ARG61       0.2287
     75  O         42.1240   36.7440  -72.3170 O.2    61  ARG61      -0.2864
     76  CB        39.6440   34.6720  -72.8110 C.3    61  ARG61       0.0334
     77  CG        39.6380   35.5010  -74.0950 C.3    61  ARG61       0.0492
     78  CD        38.2950   35.3500  -74.7680 C.3    61  ARG61       0.2205
     79  NE        37.2700   36.0240  -74.0020 N.pl3  61  ARG61      -0.0865
     80  CZ        36.9620   37.3170  -74.0890 C.cat  61  ARG61       0.5346
     81  NH1       37.5860   38.1100  -74.9480 N.pl3  61  ARG61       0.1354
     82  NH2       36.0040   37.8180  -73.3110 N.pl3  61  ARG61       0.1354
     83  N         41.6810   31.5990  -61.3510 N.3    66  SER66      -0.1217
     84  CA        40.7080   31.1090  -60.3730 C.3    66  SER66       0.1889
     85  C         40.9510   31.7650  -58.9850 C.2    66  SER66       0.2288
     86  O         42.0970   31.8990  -58.5510 O.2    66  SER66      -0.2866
     87  CB        40.8320   29.5820  -60.2870 C.3    66  SER66       0.2089
     88  OG        40.1940   29.0560  -59.1600 O.3    66  SER66      -0.2183
     89  N         43.4960   16.9620  -59.8020 N.3   346  HIS346     -0.1241
     90  CA        42.0750   16.8830  -59.3720 C.3   346  HIS346      0.1621
     91  C         41.8540   15.7220  -58.3840 C.2   346  HIS346      0.2264
     92  O         41.7190   14.5640  -58.7630 O.2   346  HIS346     -0.2867
     93  CB        41.1450   16.7840  -60.5710 C.3   346  HIS346      0.0745
     94  CG        41.4190   17.8200  -61.6070 C.ar  346  HIS346      0.0817
     95  ND1       41.1320   19.1550  -61.4150 N.ar  346  HIS346     -0.2268
     96  CD2       42.0120   17.7300  -62.8190 C.ar  346  HIS346      0.1154
     97  CE1       41.5200   19.8410  -62.4710 C.ar  346  HIS346      0.1986
     98  NE2       42.0450   18.9980  -63.3430 N.ar  346  HIS346     -0.2212
     99  N         37.8110   19.7660  -75.1850 N.3   679  LEU679     -0.1231
    100  CA        38.1030   20.0040  -73.7890 C.3   679  LEU679      0.1693
    101  C         37.8470   18.6610  -73.1390 C.2   679  LEU679      0.2591
    102  O         36.7430   18.1270  -73.2430 O.2   679  LEU679     -0.2718
    103  CB        37.1720   21.0460  -73.1930 C.3   679  LEU679      0.0284
    104  CG        37.4160   21.1800  -71.6850 C.3   679  LEU679      0.0019
    105  CD1       38.2150   22.4360  -71.3390 C.3   679  LEU679      0.0001
    106  CD2       36.1290   21.1180  -70.8940 C.3   679  LEU679      0.0001
    107  N         38.8740   18.1020  -72.4990 N.am  680  GLU680     -0.1979
    108  CA        38.7060   16.8890  -71.6880 C.3   680  GLU680      0.1602
    109  C         37.9890   17.2500  -70.3890 C.2   680  GLU680      0.2287
    110  O         38.4980   18.0160  -69.5750 O.2   680  GLU680     -0.2864
    111  CB        40.0250   16.2060  -71.3910 C.3   680  GLU680      0.0415
    112  CG        39.8600   14.8260  -70.8020 C.3   680  GLU680      0.1163
    113  CD        41.2410   14.2780  -70.5420 C.2   680  GLU680      0.3649
    114  OE1       42.0000   13.8600  -71.4630 O.co2 680  GLU680     -0.2457
    115  OE2       41.6050   14.3680  -69.3930 O.co2 680  GLU680     -0.2457
    116  N         36.8530   16.8300  -66.8500 N.3   682  ILE682     -0.1245
    117  CA        37.2260   16.1460  -65.6280 C.3   682  ILE682      0.1561
    118  C         35.9280   15.7390  -64.9120 C.2   682  ILE682      0.2260
    119  O         34.9990   16.5170  -64.8230 O.2   682  ILE682     -0.2867
    120  CB        38.1020   17.0580  -64.7240 C.3   682  ILE682      0.0252
    121  CG1       39.3860   17.4690  -65.4500 C.3   682  ILE682      0.0019
    122  CG2       38.4180   16.4040  -63.3860 C.3   682  ILE682      0.0019
    123  CD1       40.3030   16.3340  -65.8690 C.3   682  ILE682      0.0001
    124  N         33.8670   17.7550  -61.9820 N.3   685  PHE685     -0.1241
    125  CA        34.2440   19.1500  -62.1050 C.3   685  PHE685      0.1605
    126  C         33.0560   19.9500  -62.6270 C.2   685  PHE685      0.2264
    127  O         32.3270   19.5010  -63.5100 O.2   685  PHE685     -0.2867
    128  CB        35.4270   19.2830  -63.0380 C.3   685  PHE685      0.0534
    129  CG        36.2000   20.5800  -62.9070 C.ar  685  PHE685     -0.0203
    130  CD1       35.7720   21.7490  -63.5510 C.ar  685  PHE685     -0.0042
    131  CD2       37.4050   20.6180  -62.1860 C.ar  685  PHE685     -0.0042
    132  CE1       36.5160   22.9300  -63.4530 C.ar  685  PHE685     -0.0003
    133  CE2       38.1410   21.7930  -62.0840 C.ar  685  PHE685     -0.0003
    134  CZ        37.7100   22.9490  -62.7320 C.ar  685  PHE685     -0.0000
    135  N         31.6810   23.0220  -64.5530 N.3   687  TYR687     -0.1228
    136  CA        32.0440   23.9170  -65.6610 C.3   687  TYR687      0.1721
    137  C         30.8340   24.8690  -65.9070 C.2   687  TYR687      0.2437
    138  O         29.7280   24.5890  -65.4570 O.2   687  TYR687     -0.2733
    139  CB        32.3620   23.0900  -66.9340 C.3   687  TYR687      0.0547
    140  CG        33.6190   22.2430  -66.9220 C.ar  687  TYR687     -0.0200
    141  CD1       34.8690   22.8170  -67.1520 C.ar  687  TYR687     -0.0009
    142  CD2       33.5580   20.8730  -66.7090 C.ar  687  TYR687     -0.0009
    143  CE1       36.0180   22.0590  -67.1460 C.ar  687  TYR687      0.0417
    144  CE2       34.7130   20.0890  -66.6990 C.ar  687  TYR687      0.0417
    145  CZ        35.9340   20.6790  -66.9400 C.ar  687  TYR687      0.1957
    146  OH        37.0910   19.9130  -66.9040 O.3   687  TYR687     -0.2866
    147  N         31.0480   25.9820  -66.6160 N.am  688  PRO688     -0.2718
    148  CA        29.9630   26.9230  -66.9090 C.3   688  PRO688      0.1535
    149  C         29.1430   26.5790  -68.1910 C.2   688  PRO688      0.2598
    150  O         28.0340   27.0900  -68.3730 O.2   688  PRO688     -0.2715
    151  CB        30.7190   28.2290  -67.1330 C.3   688  PRO688      0.0310
    152  CG        31.9980   27.8100  -67.7270 C.3   688  PRO688      0.0237
    153  CD        32.3290   26.4650  -67.1480 C.3   688  PRO688      0.0939
    154  N         29.6990   25.6920  -69.0140 N.am  689  TRP689     -0.1974
    155  CA        29.1780   25.3240  -70.3360 C.3   689  TRP689      0.1640
    156  C         27.9440   24.4100  -70.2850 C.2   689  TRP689      0.2290
    157  O         27.7000   23.6890  -69.3020 O.2   689  TRP689     -0.2864
    158  CB        30.2840   24.6290  -71.1400 C.3   689  TRP689      0.0576
    159  CG        31.4120   25.5220  -71.4960 C.ar  689  TRP689      0.0006
    160  CD1       31.3640   26.6510  -72.2780 C.ar  689  TRP689      0.0946
    161  CD2       32.7880   25.3280  -71.1630 C.ar  689  TRP689      0.0152
    162  NE1       32.6350   27.1550  -72.4540 N.ar  689  TRP689     -0.2442
    163  CE2       33.5240   26.3630  -71.7740 C.ar  689  TRP689      0.0810
    164  CE3       33.4840   24.3660  -70.4130 C.ar  689  TRP689      0.0012
    165  CZ2       34.9130   26.4890  -71.6110 C.ar  689  TRP689      0.0191
    166  CZ3       34.8830   24.4930  -70.2810 C.ar  689  TRP689      0.0001
    167  CH2       35.5590   25.5340  -70.8650 C.ar  689  TRP689      0.0015
@<TRIPOS>BOND
     1    99   100    1
     2    81    80    1
     3    78    77    1
     4    78    79    1
     5    77    76    1
     6    80    79    2
     7    80    82    1
     8     7     5    1
     9   100   103    1
    10   100   101    1
    11   102   101    2
    12   103   104    1
    13   101   107   am
    14     5     2    1
    15     5     6    1
    16    76    73    1
    17   107   108    1
    18   162   160   ar
    19   162   163   ar
    20    75    74    2
    21   160   159   ar
    22     2     1    1
    23     2     3    1
    24    73    74    1
    25    73    72    1
    26   163   165   ar
    27   163   161   ar
    28    23    21   ar
    29   108   111    1
    30   108   109    1
    31   104   105    1
    32   104   106    1
    33   165   167   ar
    34    13    12    1
    35   159   161   ar
    36   159   158    1
    37   114   113   ar
    38   111   112    1
    39   161   164   ar
    40    22    21   ar
    41   158   155    1
    42    21    20    1
    43     3     4    2
    44    72    67   am
    45   167   166   ar
    46   112   113    1
    47    14    12    1
    48   113   115   ar
    49   164   166   ar
    50    12     9    1
    51   109   110    2
    52   155   156    1
    53   155   154    1
    54    68    67    2
    55   156   157    2
    56    67    66    1
    57    20    19    1
    58     8     9    1
    59    70    69    1
    60    70    71    1
    61     9    10    1
    62    69    66    1
    63    19    16    1
    64   154   149   am
    65    66    65    1
    66    15    10   am
    67    15    16    1
    68    10    11    2
    69    65    71    1
    70   150   149    2
    71    16    17    1
    72   149   148    1
    73   152   153    1
    74   152   151    1
    75   141   143   ar
    76   141   140   ar
    77   153   147    1
    78   143   145   ar
    79   151   148    1
    80   145   146    1
    81   145   144   ar
    82   139   140    1
    83   139   136    1
    84   140   142   ar
    85   148   147    1
    86    17    18    2
    87   116   117    1
    88   142   144   ar
    89   147   137   am
    90    31    29   am
    91    62    61    2
    92   137   136    1
    93   137   138    2
    94   123   121    1
    95   136   135    1
    96   117   118    1
    97   117   120    1
    98    61    60    1
    99   121   120    1
   100    29    30    2
   101    29    28    1
   102    64    63    1
   103    28    25    1
   104   118   119    2
   105   120   122    1
   106    63    60    1
   107    24    25    1
   108    60    59    1
   109    25    26    1
   110    59    57   am
   111   130   132   ar
   112   130   129   ar
   113   127   126    2
   114   132   134   ar
   115    98    96   ar
   116    98    97   ar
   117   128   129    1
   118   128   125    1
   119   129   131   ar
   120    96    94   ar
   121   134   133   ar
   122    57    56    1
   123    57    58    2
   124   126   125    1
   125    26    27    2
   126    97    95   ar
   127    56    55    1
   128   131   133   ar
   129   125   124    1
   130    94    95   ar
   131    94    93    1
   132    83    84    1
   133    55    50   am
   134    38    36    1
   135    93    90    1
   136    46    45   ar
   137    84    87    1
   138    84    85    1
   139    87    88    1
   140    51    50    2
   141    47    45   ar
   142    36    33    1
   143    36    37    1
   144    50    49    1
   145    45    44    1
   146    89    90    1
   147    35    34    2
   148    33    34    1
   149    33    32    1
   150    90    91    1
   151    53    52    1
   152    44    43    1
   153    85    86    2
   154    52    49    1
   155    52    54    1
   156    92    91    2
   157    49    48    1
   158    43    40    1
   159    40    39    1
   160    40    41    1
   161    41    42    2
