@<TRIPOS>MOLECULE
tmp/5fjjA05.pdb
 145 142 0 0 0
SMALL
GASTEIGER

@<TRIPOS>ATOM
      1  N        102.2240   51.8370  -29.9500 N.3   420  ASP420     -0.1239
      2  CA       101.8010   51.1010  -28.7370 C.3   420  ASP420      0.1674
      3  C        100.7160   51.8780  -28.0550 C.2   420  ASP420      0.2266
      4  O        100.8730   52.3250  -26.9290 O.2   420  ASP420     -0.2867
      5  CB       102.9970   50.8590  -27.8230 C.3   420  ASP420      0.1410
      6  CG       102.6330   50.0100  -26.6180 C.2   420  ASP420      0.3668
      7  OD1      101.7920   49.0980  -26.8020 O.co2 420  ASP420     -0.2456
      8  OD2      103.1070   50.3170  -25.4900 O.co2 420  ASP420     -0.2456
      9  N         94.8590   56.3870  -18.8650 N.3   461  ASP461     -0.1239
     10  CA        96.0320   57.2050  -18.9770 C.3   461  ASP461      0.1674
     11  C         97.1380   56.7190  -18.0080 C.2   461  ASP461      0.2266
     12  O         97.0980   56.9810  -16.8200 O.2   461  ASP461     -0.2867
     13  CB        95.6270   58.6650  -18.6820 C.3   461  ASP461      0.1410
     14  CG        96.7370   59.6670  -18.9860 C.2   461  ASP461      0.3668
     15  OD1       97.9140   59.2550  -19.2030 O.co2 461  ASP461     -0.2456
     16  OD2       96.4110   60.8650  -18.9740 O.co2 461  ASP461     -0.2456
     17  N        100.0130   57.8600  -17.5370 N.3   463  TRP463     -0.1227
     18  CA       100.7380   58.9960  -16.9670 C.3   463  TRP463      0.1737
     19  C         99.9420   59.7750  -15.9520 C.2   463  TRP463      0.2595
     20  O        100.4910   60.6540  -15.3270 O.2   463  TRP463     -0.2718
     21  CB       101.1980   59.9350  -18.0940 C.3   463  TRP463      0.0564
     22  CG       101.9890   59.2200  -19.1020 C.ar  463  TRP463      0.0003
     23  CD1      101.5390   58.7050  -20.3060 C.ar  463  TRP463      0.0946
     24  CD2      103.3490   58.8150  -18.9800 C.ar  463  TRP463      0.0152
     25  NE1      102.5530   58.0300  -20.9310 N.ar  463  TRP463     -0.2442
     26  CE2      103.6690   58.0660  -20.1410 C.ar  463  TRP463      0.0810
     27  CE3      104.3330   59.0110  -18.0100 C.ar  463  TRP463      0.0012
     28  CZ2      104.9460   57.5450  -20.3630 C.ar  463  TRP463      0.0191
     29  CZ3      105.5970   58.4830  -18.2240 C.ar  463  TRP463      0.0001
     30  CH2      105.8970   57.7630  -19.3960 C.ar  463  TRP463      0.0015
     31  N         98.6760   59.4260  -15.7250 N.am  464  ALA464     -0.1966
     32  CA        97.8800   60.0740  -14.7100 C.3   464  ALA464      0.1728
     33  C         97.8860   59.2400  -13.4080 C.2   464  ALA464      0.2616
     34  O         96.8360   58.6600  -12.9850 O.2   464  ALA464     -0.2715
     35  CB        96.4520   60.2490  -15.2140 C.3   464  ALA464      0.0334
     36  N         99.0490   59.1800  -12.7740 N.am  465  LEU465     -0.1963
     37  CA        99.2170   58.3390  -11.5730 C.3   465  LEU465      0.1728
     38  C         98.3360   58.7490  -10.4090 C.2   465  LEU465      0.2616
     39  O         97.8190   57.8930   -9.6650 O.2   465  LEU465     -0.2715
     40  CB       100.6610   58.2800  -11.1430 C.3   465  LEU465      0.0311
     41  CG       101.6200   57.6960  -12.1460 C.3   465  LEU465      0.0022
     42  CD1      103.0170   57.6190  -11.5290 C.3   465  LEU465      0.0001
     43  CD2      101.2060   56.2950  -12.5980 C.3   465  LEU465      0.0001
     44  N         98.0300   60.0410  -10.2890 N.am  466  ASP466     -0.1957
     45  CA        97.0460   60.4830   -9.3230 C.3   466  ASP466      0.1840
     46  C         95.6560   59.8140   -9.5360 C.2   466  ASP466      0.2621
     47  O         94.9770   59.4070   -8.5670 O.2   466  ASP466     -0.2715
     48  CB        96.9340   62.0170   -9.2820 C.3   466  ASP466      0.1450
     49  CG        96.6650   62.6640  -10.6870 C.2   466  ASP466      0.3671
     50  OD1       96.6950   61.9640  -11.7240 O.co2 466  ASP466     -0.2456
     51  OD2       96.4420   63.8790  -10.7350 O.co2 466  ASP466     -0.2456
     52  N         95.2310   59.7200  -10.7950 N.am  467  LYS467     -0.1977
     53  CA        93.8980   59.1510  -11.1340 C.3   467  LYS467      0.1596
     54  C         93.9240   57.6280  -10.9610 C.2   467  LYS467      0.2287
     55  O         92.9900   57.0490  -10.4220 O.2   467  LYS467     -0.2864
     56  CB        93.4900   59.5120  -12.5600 C.3   467  LYS467      0.0298
     57  CG        93.5560   60.9920  -12.8840 C.3   467  LYS467      0.0038
     58  CD        92.7830   61.8410  -11.9050 C.3   467  LYS467      0.0206
     59  CE        92.9300   63.3060  -12.2570 C.3   467  LYS467      0.1093
     60  NZ        92.0180   64.0770  -11.3750 N.3   467  LYS467     -0.1314
     61  N        109.4990   52.8120  -33.5610 N.3   493  VAL493     -0.1231
     62  CA       108.4890   53.3850  -32.6920 C.3   493  VAL493      0.1692
     63  C        109.2240   53.8530  -31.4520 C.2   493  VAL493      0.2592
     64  O        109.8730   53.0480  -30.7810 O.2   493  VAL493     -0.2718
     65  CB       107.3780   52.3660  -32.2880 C.3   493  VAL493      0.0266
     66  CG1      106.3320   53.0320  -31.3880 C.3   493  VAL493      0.0020
     67  CG2      106.7010   51.7860  -33.5150 C.3   493  VAL493      0.0020
     68  N        109.1130   55.1510  -31.1750 N.am  494  ASP494     -0.1974
     69  CA       109.7880   55.8150  -30.0530 C.3   494  ASP494      0.1709
     70  C        111.2500   55.4540  -29.9770 C.2   494  ASP494      0.2293
     71  O        111.7630   55.1300  -28.9160 O.2   494  ASP494     -0.2864
     72  CB       109.0760   55.4680  -28.7290 C.3   494  ASP494      0.1436
     73  CG       109.6460   56.2240  -27.5340 C.2   494  ASP494      0.3671
     74  OD1      109.8360   57.4360  -27.6730 O.co2 494  ASP494     -0.2456
     75  OD2      109.9330   55.6060  -26.4760 O.co2 494  ASP494     -0.2456
     76  N        112.6750   52.7780  -31.0150 N.3   496  ASN496     -0.1240
     77  CA       112.9500   51.3470  -31.0510 C.3   496  ASN496      0.1653
     78  C        112.9100   50.9010  -32.4980 C.2   496  ASN496      0.2266
     79  O        111.8470   50.8550  -33.1120 O.2   496  ASN496     -0.2867
     80  CB       111.9270   50.5650  -30.2420 C.3   496  ASN496      0.1155
     81  CG       111.9850   50.8800  -28.7790 C.2   496  ASN496      0.2627
     82  OD1      112.6510   50.2000  -28.0200 O.2   496  ASN496     -0.2716
     83  ND2      111.2570   51.8800  -28.3680 N.am  496  ASN496     -0.0877
     84  N        114.6630   48.5150  -27.2840 N.3   501  ASN501     -0.1225
     85  CA       115.8530   49.1090  -26.6350 C.3   501  ASN501      0.1785
     86  C        116.0310   48.6950  -25.2050 C.2   501  ASN501      0.2597
     87  O        117.1670   48.6620  -24.7270 O.2   501  ASN501     -0.2718
     88  CB       115.8120   50.6150  -26.6980 C.3   501  ASN501      0.1169
     89  CG       116.0390   51.1250  -28.0880 C.2   501  ASN501      0.2627
     90  OD1      116.8030   50.5450  -28.8380 O.2   501  ASN501     -0.2716
     91  ND2      115.3480   52.1830  -28.4560 N.am  501  ASN501     -0.0877
     92  N        114.9240   48.3140  -24.5570 N.am  502  ASN502     -0.1974
     93  CA       114.9770   47.6350  -23.2720 C.3   502  ASN502      0.1688
     94  C        113.8950   46.5520  -23.1640 C.2   502  ASN502      0.2292
     95  O        113.0760   46.4210  -24.0910 O.2   502  ASN502     -0.2864
     96  CB       114.8520   48.6780  -22.1440 C.3   502  ASN502      0.1181
     97  CG       113.5260   49.4330  -22.1630 C.2   502  ASN502      0.2629
     98  OD1      112.4700   48.8000  -22.0700 O.2   502  ASN502     -0.2716
     99  ND2      113.5700   50.7840  -22.3060 N.am  502  ASN502     -0.0877
    100  N        111.8380   46.4720  -20.4240 N.3   504  THR504     -0.1203
    101  CA       111.0210   47.0620  -19.3800 C.3   504  THR504      0.1994
    102  C        109.6340   47.3980  -19.9380 C.2   504  THR504      0.2618
    103  O        109.4810   47.6240  -21.1260 O.2   504  THR504     -0.2717
    104  CB       111.7720   48.3160  -18.8470 C.3   504  THR504      0.1784
    105  OG1      112.9090   47.8560  -18.1200 O.3   504  THR504     -0.2211
    106  CG2      110.9340   49.2720  -17.9910 C.3   504  THR504      0.0376
    107  N        108.6240   47.4930  -19.0760 N.am  505  LEU505     -0.1965
    108  CA       107.2840   47.8070  -19.5430 C.3   505  LEU505      0.1728
    109  C        107.2530   49.1670  -20.1800 C.2   505  LEU505      0.2616
    110  O        107.8520   50.0780  -19.6520 O.2   505  LEU505     -0.2715
    111  CB       106.2900   47.7860  -18.3940 C.3   505  LEU505      0.0311
    112  CG       106.0330   46.3890  -17.8080 C.3   505  LEU505      0.0022
    113  CD1      105.2390   46.5550  -16.5200 C.3   505  LEU505      0.0001
    114  CD2      105.2560   45.5340  -18.8010 C.3   505  LEU505      0.0001
    115  N        106.5110   49.3180  -21.2720 N.am  506  TRP506     -0.1960
    116  CA       106.3670   50.6010  -21.9440 C.3   506  TRP506      0.1771
    117  C        105.3240   51.4290  -21.2510 C.2   506  TRP506      0.2620
    118  O        104.6240   50.9770  -20.3600 O.2   506  TRP506     -0.2715
    119  CB       105.9420   50.3810  -23.4100 C.3   506  TRP506      0.0590
    120  CG       107.0260   49.8890  -24.3090 C.ar  506  TRP506      0.0006
    121  CD1      108.0690   49.1050  -23.9910 C.ar  506  TRP506      0.0946
    122  CD2      107.1130   50.1320  -25.6990 C.ar  506  TRP506      0.0152
    123  NE1      108.8280   48.8430  -25.0880 N.ar  506  TRP506     -0.2442
    124  CE2      108.2750   49.5040  -26.1540 C.ar  506  TRP506      0.0810
    125  CE3      106.3330   50.8590  -26.6060 C.ar  506  TRP506      0.0012
    126  CZ2      108.6960   49.5850  -27.4900 C.ar  506  TRP506      0.0191
    127  CZ3      106.7480   50.9500  -27.9290 C.ar  506  TRP506      0.0001
    128  CH2      107.8990   50.3030  -28.3650 C.ar  506  TRP506      0.0015
    129  N        105.2240   52.6800  -21.6470 N.am  507  LYS507     -0.1963
    130  CA       104.1320   53.5960  -21.2160 C.3   507  LYS507      0.1728
    131  C        103.9720   53.6340  -19.6940 C.2   507  LYS507      0.2616
    132  O        102.8980   53.3940  -19.1570 O.2   507  LYS507     -0.2715
    133  CB       102.7850   53.2090  -21.8610 C.3   507  LYS507      0.0311
    134  CG       102.7250   53.2890  -23.3890 C.3   507  LYS507      0.0038
    135  CD       102.6120   54.7350  -23.8510 C.3   507  LYS507      0.0206
    136  CE       102.4990   54.8630  -25.3660 C.3   507  LYS507      0.1093
    137  NZ       101.0960   54.8950  -25.8410 N.3   507  LYS507     -0.1314
    138  N        105.0820   53.8820  -19.0030 N.am  508  ASN508     -0.1972
    139  CA       105.0700   54.0900  -17.5680 C.3   508  ASN508      0.1688
    140  C        104.5140   52.8720  -16.7950 C.2   508  ASN508      0.2292
    141  O        103.9820   53.0310  -15.7020 O.2   508  ASN508     -0.2864
    142  CB       104.2230   55.3200  -17.2600 C.3   508  ASN508      0.1181
    143  CG       104.7040   56.0760  -16.0320 C.2   508  ASN508      0.2629
    144  OD1      105.9200   56.1480  -15.7630 O.2   508  ASN508     -0.2716
    145  ND2      103.7790   56.7040  -15.3270 N.am  508  ASN508     -0.0877
@<TRIPOS>BOND
     1    61    62    1
     2    67    65    1
     3    79    78    2
     4    62    65    1
     5    62    63    1
     6    78    77    1
     7    65    66    1
     8    63    68   am
     9    63    64    2
    10    68    69    1
    11    77    76    1
    12    77    80    1
    13    80    81    1
    14    69    70    1
    15    69    72    1
    16    70    71    2
    17     1     2    1
    18    90    89    2
    19    81    83   am
    20    81    82    2
    21     2     3    1
    22     2     5    1
    23    72    73    1
    24    91    89   am
    25   128   127   ar
    26   128   126   ar
    27    89    88    1
    28     3     4    2
    29   127   125   ar
    30     5     6    1
    31    74    73   ar
    32    73    75   ar
    33   126   124   ar
    34    84    85    1
    35     7     6   ar
    36    88    85    1
    37    85    86    1
    38     6     8   ar
    39   125   122   ar
    40   124   122   ar
    41   124   123   ar
    42   137   136    1
    43   122   120   ar
    44   136   135    1
    45    86    87    2
    46    86    92   am
    47   123   121   ar
    48    92    93    1
    49   120   121   ar
    50   120   119    1
    51    95    94    2
    52   135   134    1
    53   119   116    1
    54   134   133    1
    55    93    94    1
    56    93    96    1
    57    99    97   am
    58    97    96    1
    59    97    98    2
    60   116   115    1
    61   116   117    1
    62   133   130    1
    63   129   117   am
    64   129   130    1
    65   115   109   am
    66   117   118    2
    67   130   131    1
    68   103   102    2
    69    25    23   ar
    70    25    26   ar
    71   100   101    1
    72    28    26   ar
    73    28    30   ar
    74    23    22   ar
    75   109   110    2
    76   109   108    1
    77    26    24   ar
    78   102   101    1
    79   102   107   am
    80   131   132    2
    81   131   138   am
    82   108   107    1
    83   108   111    1
    84    30    29   ar
    85   101   104    1
    86    15    14   ar
    87    22    24   ar
    88    22    21    1
    89   138   139    1
    90    14    16   ar
    91    14    13    1
    92    24    27   ar
    93    10     9    1
    94    10    13    1
    95    10    11    1
    96   104   105    1
    97   104   106    1
    98   114   112    1
    99   111   112    1
   100    29    27   ar
   101    21    18    1
   102    11    12    2
   103   112   113    1
   104   139   142    1
   105   139   140    1
   106    17    18    1
   107   142   143    1
   108    18    19    1
   109   140   141    2
   110   143   144    2
   111   143   145   am
   112    19    31   am
   113    19    20    2
   114    31    32    1
   115    35    32    1
   116    32    33    1
   117    33    34    2
   118    33    36   am
   119    57    56    1
   120    57    58    1
   121    36    37    1
   122    43    41    1
   123    56    53    1
   124    59    58    1
   125    59    60    1
   126    41    42    1
   127    41    40    1
   128    50    49   ar
   129    37    40    1
   130    37    38    1
   131    53    54    1
   132    53    52    1
   133    54    55    2
   134    52    46   am
   135    51    49   ar
   136    49    48    1
   137    38    44   am
   138    38    39    2
   139    44    45    1
   140    46    45    1
   141    46    47    2
   142    45    48    1
