@<TRIPOS>MOLECULE
tmp/5fjjA01.pdb
 174 169 0 0 0
SMALL
GASTEIGER

@<TRIPOS>ATOM
      1  N        108.0670   27.0200  -72.1210 N.3    34  THR34      -0.1218
      2  CA       109.1780   27.7200  -72.7770 C.3    34  THR34       0.1862
      3  C        110.0690   28.3270  -71.6770 C.2    34  THR34       0.2287
      4  O        109.6280   28.4450  -70.5420 O.2    34  THR34      -0.2866
      5  CB       108.6640   28.8670  -73.6780 C.3    34  THR34       0.1770
      6  OG1      108.1050   29.9130  -72.8800 O.3    34  THR34      -0.2211
      7  CG2      107.5990   28.3610  -74.6440 C.3    34  THR34       0.0375
      8  N        110.9180   31.4190  -71.0400 N.3    36  THR36      -0.1203
      9  CA       110.3120   32.6140  -70.4440 C.3    36  THR36       0.1994
     10  C        109.0820   32.3390  -69.5800 C.2    36  THR36       0.2617
     11  O        108.7510   33.1240  -68.6940 O.2    36  THR36      -0.2717
     12  CB       109.9330   33.6320  -71.5290 C.3    36  THR36       0.1784
     13  OG1      109.2960   32.9480  -72.6170 O.3    36  THR36      -0.2211
     14  CG2      111.1740   34.3210  -72.0340 C.3    36  THR36       0.0376
     15  N        108.3890   31.2430  -69.8530 N.am   37  GLU37      -0.1979
     16  CA       107.2830   30.8060  -68.9940 C.3    37  GLU37       0.1602
     17  C        107.8140   30.3290  -67.6210 C.2    37  GLU37       0.2287
     18  O        107.2630   30.6900  -66.5820 O.2    37  GLU37      -0.2864
     19  CB       106.4750   29.7090  -69.6870 C.3    37  GLU37       0.0415
     20  CG       105.6150   30.2410  -70.8270 C.3    37  GLU37       0.1163
     21  CD       104.9310   29.1550  -71.6300 C.2    37  GLU37       0.3649
     22  OE1      105.4010   27.9870  -71.6280 O.co2  37  GLU37      -0.2457
     23  OE2      103.9110   29.4660  -72.2590 O.co2  37  GLU37      -0.2457
     24  N        109.0400   33.2430  -65.6260 N.3    40  ASN40      -0.1240
     25  CA       107.8970   33.9570  -65.0810 C.3    40  ASN40       0.1653
     26  C        107.5050   33.4530  -63.6730 C.2    40  ASN40       0.2266
     27  O        107.1800   34.2400  -62.7770 O.2    40  ASN40      -0.2867
     28  CB       106.7000   33.8240  -66.0290 C.3    40  ASN40       0.1155
     29  CG       106.1990   35.1540  -66.5720 C.2    40  ASN40       0.2627
     30  OD1      106.7210   36.2260  -66.2980 O.2    40  ASN40      -0.2716
     31  ND2      105.1170   35.0650  -67.3600 N.am   40  ASN40      -0.0877
     32  N        106.5590   40.2320  -60.0910 N.3    45  THR45      -0.1218
     33  CA       106.2930   41.2030  -61.1210 C.3    45  THR45       0.1862
     34  C        106.5200   42.6240  -60.6960 C.2    45  THR45       0.2287
     35  O        106.1850   43.5620  -61.4440 O.2    45  THR45      -0.2866
     36  CB       104.8610   41.0150  -61.6780 C.3    45  THR45       0.1770
     37  OG1      103.8710   41.1600  -60.6490 O.3    45  THR45      -0.2211
     38  CG2      104.7330   39.6300  -62.3360 C.3    45  THR45       0.0375
     39  N        100.6150   44.4190  -58.7190 N.3    50  GLU50      -0.1245
     40  CA        99.3900   43.5880  -58.8040 C.3    50  GLU50       0.1567
     41  C         98.6510   43.6420  -57.4630 C.2    50  GLU50       0.2260
     42  O         98.5920   44.6880  -56.8610 O.2    50  GLU50      -0.2867
     43  CB        99.7440   42.1930  -59.3000 C.3    50  GLU50       0.0388
     44  CG       100.4460   42.2550  -60.6610 C.3    50  GLU50       0.1160
     45  CD       100.4780   40.9200  -61.3740 C.2    50  GLU50       0.3649
     46  OE1       99.4160   40.4580  -61.7840 O.co2  50  GLU50      -0.2457
     47  OE2      101.5790   40.3650  -61.5300 O.co2  50  GLU50      -0.2457
     48  N        103.8620   36.1520  -58.8090 N.3    56  THR56      -0.1203
     49  CA       104.7810   35.6840  -59.8120 C.3    56  THR56       0.1994
     50  C        104.1920   36.0560  -61.1770 C.2    56  THR56       0.2618
     51  O        103.0590   36.5260  -61.2750 O.2    56  THR56      -0.2717
     52  CB       104.9420   34.1600  -59.7720 C.3    56  THR56       0.1784
     53  OG1      103.6790   33.5670  -60.0640 O.3    56  THR56      -0.2211
     54  CG2      105.4240   33.6650  -58.4100 C.3    56  THR56       0.0376
     55  N        104.9910   35.8530  -62.2270 N.am   57  GLY57      -0.1942
     56  CA       104.4610   35.8970  -63.5730 C.3    57  GLY57       0.2014
     57  C        103.5680   34.6770  -63.7340 C.2    57  GLY57       0.2640
     58  O        103.6020   33.7730  -62.8880 O.2    57  GLY57      -0.2714
     59  N        102.7170   34.7040  -64.7650 N.am   58  SER58      -0.1935
     60  CA       101.7490   33.6470  -65.0730 C.3    58  SER58       0.2055
     61  C        102.2520   32.8030  -66.2290 C.2    58  SER58       0.2643
     62  O        103.3140   33.0880  -66.8340 O.2    58  SER58      -0.2714
     63  CB       100.4220   34.2670  -65.4200 C.3    58  SER58       0.2130
     64  OG       100.5960   35.3440  -66.3410 O.3    58  SER58      -0.2179
     65  N        101.5560   31.6980  -66.4900 N.am   59  VAL59      -0.1963
     66  CA       101.8140   30.8870  -67.6770 C.3    59  VAL59       0.1712
     67  C        100.4530   30.6870  -68.3320 C.2    59  VAL59       0.2458
     68  O         99.8870   29.5990  -68.2780 O.2    59  VAL59      -0.2730
     69  CB       102.5220   29.5680  -67.3410 C.3    59  VAL59       0.0289
     70  CG1      102.8700   28.7990  -68.6130 C.3    59  VAL59       0.0023
     71  CG2      103.7980   29.8260  -66.5490 C.3    59  VAL59       0.0023
     72  N         99.9030   31.7640  -68.9370 N.am   60  PRO60      -0.2716
     73  CA        98.5460   31.6960  -69.4840 C.3    60  PRO60       0.1536
     74  C         98.3740   30.6150  -70.5820 C.2    60  PRO60       0.2598
     75  O         97.3370   29.9900  -70.6220 O.2    60  PRO60      -0.2715
     76  CB        98.2620   33.1340  -69.9750 C.3    60  PRO60       0.0310
     77  CG        99.5990   33.7480  -70.1500 C.3    60  PRO60       0.0237
     78  CD       100.5040   33.0960  -69.1390 C.3    60  PRO60       0.0939
     79  N         99.3930   30.3690  -71.4110 N.am   61  ARG61      -0.1978
     80  CA        99.3140   29.3040  -72.4130 C.3    61  ARG61       0.1597
     81  C         98.9530   27.9330  -71.8030 C.2    61  ARG61       0.2287
     82  O         98.1910   27.1900  -72.4100 O.2    61  ARG61      -0.2864
     83  CB       100.6200   29.2050  -73.1920 C.3    61  ARG61       0.0334
     84  CG       100.5730   28.2790  -74.3910 C.3    61  ARG61       0.0492
     85  CD       101.8780   28.3700  -75.1260 C.3    61  ARG61       0.2205
     86  NE       102.9240   27.7510  -74.3330 N.pl3  61  ARG61      -0.0865
     87  CZ       103.2370   26.4650  -74.3270 C.cat  61  ARG61       0.5346
     88  NH1      102.5790   25.5980  -75.0850 N.pl3  61  ARG61       0.1354
     89  NH2      104.2510   26.0320  -73.5580 N.pl3  61  ARG61       0.1354
     90  N         99.0550   33.4300  -62.0520 N.3    66  SER66      -0.1217
     91  CA       100.0420   34.0080  -61.1550 C.3    66  SER66       0.1889
     92  C         99.8420   33.4830  -59.7010 C.2    66  SER66       0.2288
     93  O         98.7090   33.4020  -59.2180 O.2    66  SER66      -0.2866
     94  CB        99.9260   35.5140  -61.2160 C.3    66  SER66       0.2089
     95  OG       100.6040   36.1390  -60.1610 O.3    66  SER66      -0.2183
     96  N         97.2770   48.1560  -61.8580 N.3   346  HIS346     -0.1241
     97  CA        98.6920   48.2500  -61.4840 C.3   346  HIS346      0.1621
     98  C         98.9080   49.4880  -60.6370 C.2   346  HIS346      0.2264
     99  O         99.0940   50.6150  -61.1300 O.2   346  HIS346     -0.2867
    100  CB        99.5910   48.2170  -62.7200 C.3   346  HIS346      0.0745
    101  CG        99.2760   47.0800  -63.6350 C.ar  346  HIS346      0.0817
    102  ND1       99.5750   45.7710  -63.3260 N.ar  346  HIS346     -0.2268
    103  CD2       98.6350   47.0450  -64.8240 C.ar  346  HIS346      0.1154
    104  CE1       99.1510   44.9800  -64.2950 C.ar  346  HIS346      0.1986
    105  NE2       98.5870   45.7280  -65.2180 N.ar  346  HIS346     -0.2212
    106  N        102.4830   43.7640  -77.1360 N.3   679  LEU679     -0.1231
    107  CA       102.2660   43.7470  -75.6900 C.3   679  LEU679      0.1693
    108  C        102.5450   45.1750  -75.1730 C.2   679  LEU679      0.2591
    109  O        103.6600   45.6660  -75.3510 O.2   679  LEU679     -0.2718
    110  CB       103.2090   42.7580  -75.0040 C.3   679  LEU679      0.0284
    111  CG       103.0170   42.7670  -73.4780 C.3   679  LEU679      0.0019
    112  CD1      102.2330   41.5610  -73.0000 C.3   679  LEU679      0.0001
    113  CD2      104.3210   42.8980  -72.7340 C.3   679  LEU679      0.0001
    114  N        101.5430   45.7970  -74.5330 N.am  680  GLU680     -0.1979
    115  CA       101.7190   47.0840  -73.8540 C.3   680  GLU680      0.1602
    116  C        102.4970   46.7860  -72.5630 C.2   680  GLU680      0.2287
    117  O        102.0030   46.1110  -71.6530 O.2   680  GLU680     -0.2864
    118  CB       100.3560   47.7730  -73.5420 C.3   680  GLU680      0.0415
    119  CG       100.3900   49.1650  -72.8540 C.3   680  GLU680      0.1163
    120  CD        99.3600   49.4450  -71.7450 C.2   680  GLU680      0.3649
    121  OE1       98.3090   48.7730  -71.5850 O.co2 680  GLU680     -0.2457
    122  OE2       99.6340   50.4080  -70.9900 O.co2 680  GLU680     -0.2457
    123  N        103.7350   47.5380  -69.0980 N.3   682  ILE682     -0.1245
    124  CA       103.3780   48.3510  -67.9410 C.3   682  ILE682      0.1561
    125  C        104.7040   48.8230  -67.3140 C.2   682  ILE682      0.2260
    126  O        105.6240   48.0320  -67.1650 O.2   682  ILE682     -0.2867
    127  CB       102.5360   47.5230  -66.9320 C.3   682  ILE682      0.0252
    128  CG1      101.2160   47.0430  -67.5760 C.3   682  ILE682      0.0019
    129  CG2      102.2550   48.3040  -65.6540 C.3   682  ILE682      0.0019
    130  CD1      100.2850   48.1400  -68.0680 C.3   682  ILE682      0.0001
    131  N        106.8630   47.0380  -64.2660 N.3   685  PHE685     -0.1241
    132  CA       106.4710   45.6300  -64.2370 C.3   685  PHE685      0.1605
    133  C        107.6400   44.7890  -64.7020 C.2   685  PHE685      0.2264
    134  O        108.3410   45.1500  -65.6590 O.2   685  PHE685     -0.2867
    135  CB       105.2570   45.4280  -65.1220 C.3   685  PHE685      0.0534
    136  CG       104.4850   44.1540  -64.8400 C.ar  685  PHE685     -0.0203
    137  CD1      104.8960   42.9410  -65.3570 C.ar  685  PHE685     -0.0042
    138  CD2      103.3110   44.1960  -64.0620 C.ar  685  PHE685     -0.0042
    139  CE1      104.1510   41.7890  -65.1310 C.ar  685  PHE685     -0.0003
    140  CE2      102.5890   43.0500  -63.8040 C.ar  685  PHE685     -0.0003
    141  CZ       102.9890   41.8550  -64.3520 C.ar  685  PHE685     -0.0000
    142  N        108.9540   41.4980  -66.3860 N.3   687  TYR687     -0.1228
    143  CA       108.5640   40.5380  -67.3960 C.3   687  TYR687      0.1721
    144  C        109.7530   39.5950  -67.5910 C.2   687  TYR687      0.2437
    145  O        110.8650   39.9070  -67.1940 O.2   687  TYR687     -0.2733
    146  CB       108.1980   41.2700  -68.7210 C.3   687  TYR687      0.0547
    147  CG       106.9410   42.1240  -68.7010 C.ar  687  TYR687     -0.0200
    148  CD1      105.6840   41.5510  -68.8080 C.ar  687  TYR687     -0.0009
    149  CD2      107.0110   43.5240  -68.6320 C.ar  687  TYR687     -0.0009
    150  CE1      104.5310   42.3260  -68.8580 C.ar  687  TYR687      0.0417
    151  CE2      105.8590   44.2950  -68.6540 C.ar  687  TYR687      0.0417
    152  CZ       104.6290   43.6980  -68.7770 C.ar  687  TYR687      0.1957
    153  OH       103.4800   44.4730  -68.8340 O.3   687  TYR687     -0.2866
    154  N        109.5120   38.4010  -68.1520 N.am  688  PRO688     -0.2718
    155  CA       110.5720   37.4620  -68.4030 C.3   688  PRO688      0.1535
    156  C        111.3520   37.6890  -69.7260 C.2   688  PRO688      0.2598
    157  O        112.4670   37.1240  -69.9190 O.2   688  PRO688     -0.2715
    158  CB       109.8180   36.1330  -68.4850 C.3   688  PRO688      0.0310
    159  CG       108.5130   36.4970  -69.0880 C.3   688  PRO688      0.0237
    160  CD       108.2010   37.9010  -68.6060 C.3   688  PRO688      0.0939
    161  N        110.7800   38.5020  -70.5960 N.am  689  TRP689     -0.1974
    162  CA       111.2700   38.7360  -71.9760 C.3   689  TRP689      0.1640
    163  C        112.5340   39.6280  -72.0560 C.2   689  TRP689      0.2290
    164  O        112.8000   40.4300  -71.1600 O.2   689  TRP689     -0.2864
    165  CB       110.1530   39.3790  -72.8190 C.3   689  TRP689      0.0576
    166  CG       108.9800   38.4680  -73.0940 C.ar  689  TRP689      0.0006
    167  CD1      109.0070   37.2640  -73.7400 C.ar  689  TRP689      0.0946
    168  CD2      107.6200   38.6990  -72.7110 C.ar  689  TRP689      0.0152
    169  NE1      107.7200   36.7330  -73.7880 N.ar  689  TRP689     -0.2442
    170  CE2      106.8630   37.6090  -73.1670 C.ar  689  TRP689      0.0810
    171  CE3      106.9650   39.7280  -72.0370 C.ar  689  TRP689      0.0012
    172  CZ2      105.4770   37.5230  -72.9640 C.ar  689  TRP689      0.0191
    173  CZ3      105.5700   39.6290  -71.8410 C.ar  689  TRP689      0.0001
    174  CH2      104.8600   38.5400  -72.3080 C.ar  689  TRP689      0.0015
@<TRIPOS>BOND
     1   106   107    1
     2   107   108    1
     3   107   110    1
     4   109   108    2
     5   108   114   am
     6    85    84    1
     7    85    86    1
     8    88    87    1
     9   110   111    1
    10     7     5    1
    11   114   115    1
    12    84    83    1
    13    86    87    2
    14    87    89    1
    15   115   118    1
    16   115   116    1
    17   169   167   ar
    18   169   170   ar
    19   167   166   ar
    20     5     6    1
    21     5     2    1
    22   118   119    1
    23   111   112    1
    24   111   113    1
    25    83    80    1
    26   170   172   ar
    27   170   168   ar
    28   166   165    1
    29   166   168   ar
    30   172   174   ar
    31   119   120    1
    32   165   162    1
    33     2     1    1
    34     2     3    1
    35   168   171   ar
    36    13    12    1
    37   116   117    2
    38    80    81    1
    39    80    79    1
    40    82    81    2
    41   174   173   ar
    42    23    21   ar
    43   163   162    1
    44   163   164    2
    45   171   173   ar
    46    14    12    1
    47   162   161    1
    48   120   121   ar
    49   120   122   ar
    50     3     4    2
    51    21    22   ar
    52    21    20    1
    53    12     9    1
    54    79    74   am
    55     8     9    1
    56    20    19    1
    57    75    74    2
    58   161   156   am
    59    74    73    1
    60     9    10    1
    61    77    76    1
    62    77    78    1
    63    76    73    1
    64   157   156    2
    65    15    10   am
    66    15    16    1
    67   156   155    1
    68    19    16    1
    69    10    11    2
    70    73    72    1
    71    78    72    1
    72   123   124    1
    73   159   160    1
    74   159   158    1
    75    16    17    1
    76    72    67   am
    77   150   148   ar
    78   150   152   ar
    79   153   152    1
    80   148   147   ar
    81   152   151   ar
    82   146   147    1
    83   146   143    1
    84   147   149   ar
    85   151   149   ar
    86    70    69    1
    87   160   154    1
    88   158   155    1
    89   155   154    1
    90    67    68    2
    91    67    66    1
    92   154   144   am
    93   130   128    1
    94   124   125    1
    95   124   127    1
    96    66    69    1
    97    66    65    1
    98    17    18    2
    99   144   143    1
   100   144   145    2
   101   128   127    1
   102   143   142    1
   103    31    29   am
   104    69    71    1
   105   125   126    2
   106   127   129    1
   107    62    61    2
   108    29    30    2
   109    29    28    1
   110    65    61   am
   111    64    63    1
   112    61    60    1
   113    28    25    1
   114   134   133    2
   115    24    25    1
   116    63    60    1
   117   137   139   ar
   118   137   136   ar
   119   105   103   ar
   120   105   104   ar
   121   139   141   ar
   122   135   136    1
   123   135   132    1
   124    25    26    1
   125    60    59    1
   126   136   138   ar
   127   103   101   ar
   128    59    57   am
   129   133   132    1
   130   141   140   ar
   131   104   102   ar
   132   131   132    1
   133   138   140   ar
   134    57    56    1
   135    57    58    2
   136    26    27    2
   137   101   102   ar
   138   101   100    1
   139    56    55    1
   140   100    97    1
   141    38    36    1
   142    55    50   am
   143    90    91    1
   144    96    97    1
   145    46    45   ar
   146    36    33    1
   147    36    37    1
   148    47    45   ar
   149    97    98    1
   150    35    34    2
   151    45    44    1
   152    51    50    2
   153    94    91    1
   154    94    95    1
   155    50    49    1
   156    91    92    1
   157    99    98    2
   158    33    34    1
   159    33    32    1
   160    44    43    1
   161    53    52    1
   162    49    52    1
   163    49    48    1
   164    52    54    1
   165    92    93    2
   166    43    40    1
   167    40    39    1
   168    40    41    1
   169    41    42    2
