@<TRIPOS>MOLECULE
tmp/5fjjC02.pdb
 107 103 0 0 0
SMALL
GASTEIGER

@<TRIPOS>ATOM
      1  N         69.8220  -18.0160   12.8660 N.3   266  GLY266     -0.1225
      2  CA        70.6520  -17.2430   13.7870 C.3   266  GLY266      0.1811
      3  C         72.0310  -17.8050   13.9510 C.2   266  GLY266      0.2280
      4  O         73.0240  -17.1850   13.5270 O.2   266  GLY266     -0.2866
      5  N         62.5170  -11.5200   11.3210 N.3   282  VAL282     -0.1231
      6  CA        62.4690  -12.8090   10.6080 C.3   282  VAL282      0.1692
      7  C         61.7730  -12.6420    9.2520 C.2   282  VAL282      0.2592
      8  O         62.2780  -13.1240    8.2400 O.2   282  VAL282     -0.2718
      9  CB        61.7480  -13.9080   11.4340 C.3   282  VAL282      0.0266
     10  CG1       61.3150  -15.0960   10.5790 C.3   282  VAL282      0.0020
     11  CG2       62.6660  -14.3720   12.5480 C.3   282  VAL282      0.0020
     12  N         60.6340  -11.9720    9.2690 N.am  283  THR283     -0.1953
     13  CA        59.9630  -11.4660    8.0760 C.3   283  THR283      0.1897
     14  C         59.5050  -10.0650    8.4470 C.2   283  THR283      0.2313
     15  O         59.4670   -9.7130    9.6100 O.2   283  THR283     -0.2863
     16  CB        58.7210  -12.3250    7.6810 C.3   283  THR283      0.1794
     17  OG1       57.7920  -12.3670    8.7760 O.3   283  THR283     -0.2208
     18  CG2       59.1330  -13.7050    7.3080 C.3   283  THR283      0.0378
     19  N         57.4470   -8.9890   11.6100 N.3   286  SER286     -0.1202
     20  CA        57.1570  -10.1380   12.4780 C.3   286  SER286      0.2020
     21  C         57.3250   -9.8610   13.9760 C.2   286  SER286      0.2619
     22  O         56.7880  -10.6030   14.7890 O.2   286  SER286     -0.2717
     23  CB        57.9790  -11.3420   12.0550 C.3   286  SER286      0.2103
     24  OG        59.3380  -11.1820   12.3890 O.3   286  SER286     -0.2182
     25  N         58.0390   -8.7960   14.3660 N.am  287  GLY287     -0.1942
     26  CA        58.3910   -8.5740   15.7600 C.3   287  GLY287      0.2014
     27  C         59.3050   -9.6470   16.3640 C.2   287  GLY287      0.2640
     28  O         59.4720   -9.6990   17.5730 O.2   287  GLY287     -0.2714
     29  N         59.9230  -10.4820   15.5400 N.am  288  THR288     -0.1936
     30  CA        60.8660  -11.4950   15.9620 C.3   288  THR288      0.2028
     31  C         62.0930  -11.3390   15.0950 C.2   288  THR288      0.2643
     32  O         62.0050  -10.6780   14.0410 O.2   288  THR288     -0.2714
     33  CB        60.3170  -12.8890   15.6450 C.3   288  THR288      0.1808
     34  OG1       60.0120  -12.9680   14.2510 O.3   288  THR288     -0.2208
     35  CG2       59.0320  -13.1660   16.4590 C.3   288  THR288      0.0379
     36  N         63.2060  -11.9620   15.4820 N.am  289  SER289     -0.1935
     37  CA        64.4590  -11.8570   14.7250 C.3   289  SER289      0.2055
     38  C         65.2210  -13.1530   14.8440 C.2   289  SER289      0.2643
     39  O         65.1810  -13.7870   15.9010 O.2   289  SER289     -0.2714
     40  CB        65.3410  -10.7390   15.3020 C.3   289  SER289      0.2130
     41  OG        66.6440  -10.7230   14.6870 O.3   289  SER289     -0.2179
     42  N         65.9460  -13.5160   13.8110 N.am  290  PHE290     -0.1973
     43  CA        66.8820  -14.6020   13.9230 C.3   290  PHE290      0.1639
     44  C         68.0630  -14.2480   14.7980 C.2   290  PHE290      0.2290
     45  O         68.7250  -15.1430   15.3290 O.2   290  PHE290     -0.2864
     46  CB        67.3740  -15.0980   12.5700 C.3   290  PHE290      0.0560
     47  CG        66.2990  -15.7940   11.7510 C.ar  290  PHE290     -0.0200
     48  CD1       65.7710  -17.0300   12.1720 C.ar  290  PHE290     -0.0042
     49  CD2       65.8180  -15.2440   10.5630 C.ar  290  PHE290     -0.0042
     50  CE1       64.7890  -17.6940   11.4120 C.ar  290  PHE290     -0.0003
     51  CE2       64.8540  -15.9000    9.7890 C.ar  290  PHE290     -0.0003
     52  CZ        64.3260  -17.1290   10.2330 C.ar  290  PHE290     -0.0000
     53  N         67.5110  -10.6980   20.2990 N.3   293  ALA293     -0.1231
     54  CA        67.4940  -11.5990   21.4830 C.3   293  ALA293      0.1694
     55  C         68.0220  -12.9920   21.2210 C.2   293  ALA293      0.2592
     56  O         68.7970  -13.5280   22.0250 O.2   293  ALA293     -0.2718
     57  CB        66.0980  -11.7030   22.0630 C.3   293  ALA293      0.0304
     58  N         67.6900  -13.5560   20.0750 N.am  294  ASN294     -0.1974
     59  CA        68.2960  -14.8290   19.7040 C.3   294  ASN294      0.1688
     60  C         69.8220  -14.8510   19.5940 C.2   294  ASN294      0.2292
     61  O         70.4570  -15.9040   19.7680 O.2   294  ASN294     -0.2864
     62  CB        67.7440  -15.3300   18.4060 C.3   294  ASN294      0.1181
     63  CG        66.5240  -16.2000   18.5720 C.2   294  ASN294      0.2629
     64  OD1       66.5040  -17.1300   19.3950 O.2   294  ASN294     -0.2716
     65  ND2       65.4860  -15.9150   17.7520 N.am  294  ASN294     -0.0877
     66  N         63.3930  -17.1780   26.3350 N.3   698  SER698     -0.1202
     67  CA        63.6960  -15.8750   25.7410 C.3   698  SER698      0.2020
     68  C         63.8970  -15.9650   24.2230 C.2   698  SER698      0.2619
     69  O         63.5670  -15.0190   23.5120 O.2   698  SER698     -0.2717
     70  CB        64.8920  -15.2320   26.4420 C.3   698  SER698      0.2103
     71  OG        64.4970  -14.7260   27.6930 O.3   698  SER698     -0.2182
     72  N         64.3980  -17.1130   23.7420 N.am  699  SER699     -0.1937
     73  CA        64.5410  -17.4110   22.3230 C.3   699  SER699      0.2055
     74  C         63.2340  -17.7670   21.6490 C.2   699  SER699      0.2643
     75  O         62.9000  -17.2280   20.5900 O.2   699  SER699     -0.2714
     76  CB        65.5310  -18.5560   22.1000 C.3   699  SER699      0.2130
     77  OG        65.2530  -19.2370   20.8960 O.3   699  SER699     -0.2179
     78  N         62.5250  -18.7340   22.2430 N.am  700  ASP700     -0.1957
     79  CA        61.2010  -19.1590   21.7550 C.3   700  ASP700      0.1840
     80  C         61.3160  -20.0100   20.4980 C.2   700  ASP700      0.2622
     81  O         60.3120  -20.2970   19.8720 O.2   700  ASP700     -0.2715
     82  CB        60.2930  -17.9590   21.5220 C.3   700  ASP700      0.1450
     83  CG        58.7780  -18.3170   21.4590 C.2   700  ASP700      0.3671
     84  OD1       58.3260  -19.3000   22.0990 O.co2 700  ASP700     -0.2456
     85  OD2       58.0340  -17.6020   20.7440 O.co2 700  ASP700     -0.2456
     86  N         62.5340  -20.4420   20.1420 N.am  701  ASP701     -0.1957
     87  CA        62.7220  -21.2740   18.9600 C.3   701  ASP701      0.1840
     88  C         62.2610  -22.6800   19.3680 C.2   701  ASP701      0.2623
     89  O         62.8390  -23.2730   20.2620 O.2   701  ASP701     -0.2715
     90  CB        64.2020  -21.2920   18.5760 C.3   701  ASP701      0.1450
     91  CG        64.4900  -22.0490   17.2770 C.2   701  ASP701      0.3671
     92  OD1       64.1020  -23.2140   17.1530 O.co2 701  ASP701     -0.2456
     93  OD2       65.1490  -21.4770   16.3860 O.co2 701  ASP701     -0.2456
     94  N         61.2300  -23.1920   18.7260 N.am  702  SER702     -0.1936
     95  CA        60.7030  -24.5160   19.0390 C.3   702  SER702      0.2055
     96  C         61.7020  -25.6810   18.8890 C.2   702  SER702      0.2643
     97  O         61.4270  -26.7580   19.3740 O.2   702  SER702     -0.2714
     98  CB        59.4680  -24.8100   18.1870 C.3   702  SER702      0.2130
     99  OG        59.8380  -25.0340   16.8580 O.3   702  SER702     -0.2179
    100  N         62.8260  -25.4800   18.2030 N.am  703  ASN703     -0.1971
    101  CA        63.8960  -26.4710   18.1590 C.3   703  ASN703      0.1688
    102  C         65.0940  -26.1020   19.0470 C.2   703  ASN703      0.2292
    103  O         66.1740  -26.7000   18.9010 O.2   703  ASN703     -0.2864
    104  CB        64.3620  -26.7420   16.7310 C.3   703  ASN703      0.1181
    105  CG        63.2040  -27.0020   15.7550 C.2   703  ASN703      0.2629
    106  OD1       63.0680  -26.3270   14.7230 O.2   703  ASN703     -0.2716
    107  ND2       62.3710  -27.9620   16.0790 N.am  703  ASN703     -0.0877
@<TRIPOS>BOND
     1    18    16    1
     2    16    13    1
     3    16    17    1
     4    13    14    1
     5    13    12    1
     6     8     7    2
     7    14    15    2
     8     7    12   am
     9     7     6    1
    10    51    52   ar
    11    51    49   ar
    12    52    50   ar
    13    49    47   ar
    14    10     9    1
    15     6     5    1
    16     6     9    1
    17    50    48   ar
    18     9    11    1
    19    19    20    1
    20    47    48   ar
    21    47    46    1
    22    23    24    1
    23    23    20    1
    24    20    21    1
    25    46    43    1
    26     1     2    1
    27     4     3    2
    28     2     3    1
    29    42    43    1
    30    42    38   am
    31    43    44    1
    32    21    25   am
    33    21    22    2
    34    32    31    2
    35    34    33    1
    36    25    26    1
    37    41    40    1
    38   106   105    2
    39    37    38    1
    40    37    40    1
    41    37    36    1
    42    44    45    2
    43    38    39    2
    44    31    36   am
    45    31    30    1
    46    29    30    1
    47    29    27   am
    48    33    30    1
    49    33    35    1
    50   105   107   am
    51   105   104    1
    52    26    27    1
    53    27    28    2
    54    93    91   ar
    55   104   101    1
    56    99    98    1
    57    92    91   ar
    58    91    90    1
    59    65    63   am
    60   101   100    1
    61   101   102    1
    62    98    95    1
    63   100    96   am
    64    62    63    1
    65    62    59    1
    66    63    64    2
    67    90    87    1
    68    94    95    1
    69    94    88   am
    70    96    95    1
    71    96    97    2
    72   103   102    2
    73    87    88    1
    74    87    86    1
    75    88    89    2
    76    60    59    1
    77    60    61    2
    78    59    58    1
    79    81    80    2
    80    58    55   am
    81    86    80   am
    82    53    54    1
    83    80    79    1
    84    75    74    2
    85    85    83   ar
    86    77    76    1
    87    55    54    1
    88    55    56    2
    89    83    82    1
    90    83    84   ar
    91    54    57    1
    92    82    79    1
    93    74    78   am
    94    74    73    1
    95    79    78    1
    96    76    73    1
    97    73    72    1
    98    69    68    2
    99    72    68   am
   100    68    67    1
   101    67    66    1
   102    67    70    1
   103    70    71    1
