@<TRIPOS>MOLECULE
tmp/5fjnA01.pdb
 93 88 0 0 0
SMALL
GASTEIGER

@<TRIPOS>ATOM
      1  N          6.2140   26.3490  -21.2690 N.3    71  TYR71      -0.1241
      2  CA         5.9780   26.0200  -19.8710 C.3    71  TYR71       0.1605
      3  C          7.3020   25.5910  -19.2610 C.2    71  TYR71       0.2264
      4  O          7.6310   25.9570  -18.1430 O.2    71  TYR71      -0.2867
      5  CB         4.9620   24.8880  -19.7730 C.3    71  TYR71       0.0534
      6  CG         4.6510   24.4280  -18.3690 C.ar   71  TYR71      -0.0201
      7  CD1        4.4140   25.3410  -17.3440 C.ar   71  TYR71      -0.0009
      8  CD2        4.5640   23.0720  -18.0730 C.ar   71  TYR71      -0.0009
      9  CE1        4.1110   24.9130  -16.0640 C.ar   71  TYR71       0.0417
     10  CE2        4.2660   22.6370  -16.7970 C.ar   71  TYR71       0.0417
     11  CZ         4.0410   23.5580  -15.7990 C.ar   71  TYR71       0.1957
     12  OH         3.7420   23.1180  -14.5360 O.3    71  TYR71      -0.2866
     13  N          9.0320   22.5770  -18.4900 N.3    73  GLN73      -0.1245
     14  CA         9.4030   21.4870  -17.5970 C.3    73  GLN73       0.1566
     15  C         10.3170   20.5160  -18.3440 C.2    73  GLN73       0.2260
     16  O         10.0500   20.1230  -19.4860 O.2    73  GLN73      -0.2867
     17  CB         8.1730   20.7770  -17.0060 C.3    73  GLN73       0.0367
     18  CG         7.2640   20.0650  -17.9950 C.3    73  GLN73       0.0905
     19  CD         6.0300   19.4760  -17.3350 C.2    73  GLN73       0.2608
     20  OE1        6.0290   19.1740  -16.1380 O.2    73  GLN73      -0.2717
     21  NE2        4.9640   19.3120  -18.1160 N.am   73  GLN73      -0.0878
     22  N         -1.6050   27.5740  -27.7080 N.3   252  LEU252     -0.1245
     23  CA        -1.5010   27.3750  -26.2710 C.3   252  LEU252      0.1561
     24  C         -1.4860   28.7220  -25.5540 C.2   252  LEU252      0.2260
     25  O         -1.1680   29.7460  -26.1570 O.2   252  LEU252     -0.2867
     26  CB        -0.2050   26.6360  -25.9580 C.3   252  LEU252      0.0270
     27  CG        -0.1390   25.2080  -26.5020 C.3   252  LEU252      0.0019
     28  CD1        1.2910   24.7540  -26.7190 C.3   252  LEU252      0.0001
     29  CD2       -0.8720   24.2720  -25.5610 C.3   252  LEU252      0.0001
     30  N         -0.1840   30.5380  -21.6600 N.3   254  GLN254     -0.1245
     31  CA         0.6740   30.3650  -20.4890 C.3   254  GLN254      0.1566
     32  C          0.6130   31.5930  -19.5970 C.2   254  GLN254      0.2260
     33  O          0.2400   32.6820  -20.0440 O.2   254  GLN254     -0.2867
     34  CB         2.1260   30.1480  -20.9240 C.3   254  GLN254      0.0367
     35  CG         2.3920   28.8300  -21.6300 C.3   254  GLN254      0.0905
     36  CD         2.2780   27.6280  -20.7130 C.2   254  GLN254      0.2608
     37  OE1        2.6040   27.6990  -19.5280 O.2   254  GLN254     -0.2717
     38  NE2        1.8240   26.5090  -21.2600 N.am  254  GLN254     -0.0878
     39  N          0.2500   26.3700  -16.2550 N.3   287  ALA287     -0.1245
     40  CA        -0.1570   25.9270  -17.5830 C.3   287  ALA287      0.1562
     41  C         -1.5740   25.3640  -17.5390 C.2   287  ALA287      0.2260
     42  O         -1.8530   24.4790  -16.7380 O.2   287  ALA287     -0.2867
     43  CB         0.8030   24.8630  -18.0940 C.3   287  ALA287      0.0290
     44  N         -2.6550   23.6360  -20.0090 N.3   289  ARG289     -0.1245
     45  CA        -2.4730   22.3900  -20.7590 C.3   289  ARG289      0.1563
     46  C         -3.7450   22.0260  -21.5390 C.2   289  ARG289      0.2260
     47  O         -4.1910   20.8780  -21.5320 O.2   289  ARG289     -0.2867
     48  CB        -2.0210   21.2470  -19.8370 C.3   289  ARG289      0.0307
     49  CG        -0.7630   21.5680  -19.0380 C.3   289  ARG289      0.0489
     50  CD        -0.1730   20.3440  -18.3460 C.3   289  ARG289      0.2205
     51  NE         0.9550   19.7520  -19.0750 N.pl3 289  ARG289     -0.0865
     52  CZ         1.0220   18.4940  -19.5230 C.cat 289  ARG289      0.5346
     53  NH1        0.0210   17.6370  -19.3400 N.pl3 289  ARG289      0.1354
     54  NH2        2.1110   18.0820  -20.1630 N.pl3 289  ARG289      0.1354
     55  N         -5.3300   22.4830  -25.5000 N.3   291  PHE291     -0.1241
     56  CA        -4.8870   22.7100  -26.8680 C.3   291  PHE291      0.1605
     57  C         -6.0210   23.3050  -27.6930 C.2   291  PHE291      0.2264
     58  O         -7.1640   22.8590  -27.5980 O.2   291  PHE291     -0.2867
     59  CB        -4.4250   21.3880  -27.4980 C.3   291  PHE291      0.0534
     60  CG        -3.3200   20.6880  -26.7380 C.ar  291  PHE291     -0.0203
     61  CD1       -2.4780   21.3870  -25.8810 C.ar  291  PHE291     -0.0042
     62  CD2       -3.1050   19.3250  -26.9050 C.ar  291  PHE291     -0.0042
     63  CE1       -1.4620   20.7440  -25.1910 C.ar  291  PHE291     -0.0003
     64  CE2       -2.0860   18.6770  -26.2210 C.ar  291  PHE291     -0.0003
     65  CZ        -1.2630   19.3880  -25.3620 C.ar  291  PHE291     -0.0000
     66  N          2.6540   25.8330  -31.1570 N.3   385  VAL385     -0.1245
     67  CA         3.5380   24.6840  -31.4140 C.3   385  VAL385      0.1561
     68  C          3.0970   24.0020  -32.6950 C.2   385  VAL385      0.2260
     69  O          1.9940   24.2550  -33.1930 O.2   385  VAL385     -0.2867
     70  CB         3.5590   23.6410  -30.2720 C.3   385  VAL385      0.0252
     71  CG1        4.3500   24.1590  -29.0960 C.3   385  VAL385      0.0019
     72  CG2        2.1600   23.2410  -29.8270 C.3   385  VAL385      0.0019
     73  N          7.3500   19.0650  -29.5300 N.3   411  VAL411     -0.1231
     74  CA         6.6830   19.7820  -28.4500 C.3   411  VAL411      0.1692
     75  C          7.4040   19.5700  -27.1150 C.2   411  VAL411      0.2592
     76  O          6.8820   19.9220  -26.0600 O.2   411  VAL411     -0.2718
     77  CB         5.1830   19.4200  -28.3600 C.3   411  VAL411      0.0266
     78  CG1        4.4830   19.8380  -29.6430 C.3   411  VAL411      0.0020
     79  CG2        4.9680   17.9340  -28.0690 C.3   411  VAL411      0.0020
     80  N          8.6150   19.0110  -27.1780 N.am  412  TRP412     -0.1976
     81  CA         9.4520   18.7910  -25.9980 C.3   412  TRP412      0.1640
     82  C         10.8770   19.3090  -26.2370 C.2   412  TRP412      0.2290
     83  O         11.8580   18.7580  -25.7100 O.2   412  TRP412     -0.2864
     84  CB         9.4740   17.3010  -25.6270 C.3   412  TRP412      0.0576
     85  CG         8.1950   16.8190  -25.0010 C.ar  412  TRP412      0.0006
     86  CD1        7.2500   16.0260  -25.5860 C.ar  412  TRP412      0.0946
     87  CD2        7.7210   17.0970  -23.6800 C.ar  412  TRP412      0.0152
     88  NE1        6.2190   15.7910  -24.7130 N.ar  412  TRP412     -0.2442
     89  CE2        6.4790   16.4380  -23.5350 C.ar  412  TRP412      0.0810
     90  CE3        8.2210   17.8370  -22.6050 C.ar  412  TRP412      0.0012
     91  CZ2        5.7370   16.4960  -22.3600 C.ar  412  TRP412      0.0191
     92  CZ3        7.4810   17.8960  -21.4350 C.ar  412  TRP412      0.0001
     93  CH2        6.2500   17.2300  -21.3220 C.ar  412  TRP412      0.0015
@<TRIPOS>BOND
     1    69    68    2
     2    68    67    1
     3    67    66    1
     4    67    70    1
     5    70    72    1
     6    70    71    1
     7    78    77    1
     8    73    74    1
     9    74    77    1
    10    74    75    1
    11    77    79    1
    12    22    23    1
    13    57    58    2
    14    57    56    1
    15    59    56    1
    16    59    60    1
    17    80    75   am
    18    80    81    1
    19    75    76    2
    20    62    60   ar
    21    62    64   ar
    22    56    55    1
    23    60    61   ar
    24    28    27    1
    25    27    26    1
    26    27    29    1
    27    23    26    1
    28    23    24    1
    29    82    81    1
    30    82    83    2
    31    64    65   ar
    32    25    24    2
    33    81    84    1
    34    61    63   ar
    35    84    85    1
    36    86    85   ar
    37    86    88   ar
    38    65    63   ar
    39    85    87   ar
    40    88    89   ar
    41    87    89   ar
    42    87    90   ar
    43    89    91   ar
    44    90    92   ar
    45    91    93   ar
    46    30    31    1
    47    35    34    1
    48    35    36    1
    49    46    47    2
    50    46    45    1
    51    92    93   ar
    52     1     2    1
    53    38    36   am
    54    34    31    1
    55    45    44    1
    56    45    48    1
    57    36    37    2
    58    31    32    1
    59    54    52    1
    60    33    32    2
    61     2     5    1
    62     2     3    1
    63    48    49    1
    64     5     6    1
    65    52    53    1
    66    52    51    2
    67    16    15    2
    68     3     4    2
    69    51    50    1
    70    49    50    1
    71    13    14    1
    72     6     8   ar
    73     6     7   ar
    74    15    14    1
    75    21    19   am
    76    43    40    1
    77     8    10   ar
    78    18    19    1
    79    18    17    1
    80    14    17    1
    81    40    41    1
    82    40    39    1
    83    41    42    2
    84     7     9   ar
    85    19    20    2
    86    10    11   ar
    87     9    11   ar
    88    11    12    1
