@<TRIPOS>MOLECULE
tmp/5fjoB00.pdb
 194 179 0 0 0
SMALL
GASTEIGER

@<TRIPOS>ATOM
      1  N         41.8190  -20.1730   18.2640 N.3    15  LEU15      -0.1245
      2  CA        40.5310  -20.2550   17.6130 C.3    15  LEU15       0.1561
      3  C         40.7120  -20.4310   16.0910 C.2    15  LEU15       0.2260
      4  O         41.6290  -19.9090   15.5390 O.2    15  LEU15      -0.2867
      5  CB        39.7790  -18.9870   17.8280 C.3    15  LEU15       0.0270
      6  CG        39.4950  -18.7360   19.3390 C.3    15  LEU15       0.0019
      7  CD1       38.7120  -17.4520   19.4710 C.3    15  LEU15       0.0001
      8  CD2       38.6870  -19.8580   19.9140 C.3    15  LEU15       0.0001
      9  N         37.2650  -13.8770   17.0200 N.3    19  PHE19      -0.1241
     10  CA        35.8610  -13.6930   17.4230 C.3    19  PHE19       0.1605
     11  C         35.7130  -12.3130   18.0400 C.2    19  PHE19       0.2264
     12  O         36.3180  -12.0290   19.0930 O.2    19  PHE19      -0.2867
     13  CB        35.4750  -14.8100   18.4250 C.3    19  PHE19       0.0534
     14  CG        34.0070  -14.8260   18.8190 C.ar   19  PHE19      -0.0203
     15  CD1       33.0120  -14.7050   17.8910 C.ar   19  PHE19      -0.0042
     16  CD2       33.6290  -14.9760   20.1160 C.ar   19  PHE19      -0.0042
     17  CE1       31.6660  -14.7120   18.2430 C.ar   19  PHE19      -0.0003
     18  CE2       32.2800  -14.9840   20.4790 C.ar   19  PHE19      -0.0003
     19  CZ        31.2900  -14.8700   19.5300 C.ar   19  PHE19      -0.0000
     20  N         33.4510   -9.2790   19.7240 N.3    21  THR21      -0.1218
     21  CA        32.2480   -8.8400   20.4140 C.3    21  THR21       0.1862
     22  C         32.3370   -7.3200   20.6210 C.2    21  THR21       0.2287
     23  O         33.3510   -6.6900   20.2820 O.2    21  THR21      -0.2866
     24  CB        32.1560   -9.4890   21.8110 C.3    21  THR21       0.1770
     25  OG1       33.2040   -8.9980   22.6440 O.3    21  THR21      -0.2211
     26  CG2       32.2460  -10.9650   21.7630 C.3    21  THR21       0.0375
     27  N         33.1150   -5.9850   23.2980 N.3    23  PHE23      -0.1241
     28  CA        34.2550   -5.6970   24.1830 C.3    23  PHE23       0.1605
     29  C         35.6160   -6.0310   23.5900 C.2    23  PHE23       0.2264
     30  O         36.6080   -5.9060   24.2930 O.2    23  PHE23      -0.2867
     31  CB        34.1240   -6.3350   25.5940 C.3    23  PHE23       0.0534
     32  CG        33.8420   -7.8000   25.5850 C.ar   23  PHE23      -0.0203
     33  CD1       34.8820   -8.7400   25.3860 C.ar   23  PHE23      -0.0042
     34  CD2       32.5590   -8.2830   25.8030 C.ar   23  PHE23      -0.0042
     35  CE1       34.6290  -10.0870   25.4130 C.ar   23  PHE23      -0.0003
     36  CE2       32.3020   -9.6550   25.8340 C.ar   23  PHE23      -0.0003
     37  CZ        33.3200  -10.5490   25.6170 C.ar   23  PHE23      -0.0000
     38  N         39.1620  -11.5030   20.0740 N.3    26  GLN26      -0.1245
     39  CA        39.9930  -12.5330   20.6680 C.3    26  GLN26       0.1566
     40  C         40.3450  -13.5510   19.5290 C.2    26  GLN26       0.2260
     41  O         39.4530  -13.9970   18.7970 O.2    26  GLN26      -0.2867
     42  CB        39.1780  -13.2520   21.7950 C.3    26  GLN26       0.0367
     43  CG        38.7730  -12.3990   23.0840 C.3    26  GLN26       0.0905
     44  CD        37.7100  -11.2070   22.9120 C.2    26  GLN26       0.2608
     45  OE1       36.6050  -11.3170   22.2110 O.2    26  GLN26      -0.2717
     46  NE2       38.0320  -10.0510   23.5720 N.am   26  GLN26      -0.0878
     47  N         42.7720  -16.2110   20.3720 N.3    28  VAL28      -0.1231
     48  CA        43.2020  -17.3710   21.1040 C.3    28  VAL28       0.1692
     49  C         42.3690  -17.4520   22.4060 C.2    28  VAL28       0.2591
     50  O         42.1190  -16.4520   22.9940 O.2    28  VAL28      -0.2718
     51  CB        44.6620  -17.2090   21.4550 C.3    28  VAL28       0.0266
     52  CG1       45.1150  -18.3020   22.3810 C.3    28  VAL28       0.0020
     53  CG2       45.5180  -17.2910   20.1850 C.3    28  VAL28       0.0020
     54  N         41.9330  -18.6320   22.8360 N.am   29  ARG29      -0.1980
     55  CA        41.2290  -18.7780   24.1050 C.3    29  ARG29       0.1597
     56  C         42.2200  -19.2870   25.1660 C.2    29  ARG29       0.2287
     57  O         42.8200  -20.3840   25.0320 O.2    29  ARG29      -0.2864
     58  CB        40.1200  -19.7810   23.9720 C.3    29  ARG29       0.0334
     59  CG        39.2840  -20.0090   25.2570 C.3    29  ARG29       0.0492
     60  CD        38.3160  -18.8950   25.4340 C.3    29  ARG29       0.2205
     61  NE        37.3220  -19.1020   26.5160 N.pl3  29  ARG29      -0.0865
     62  CZ        37.4030  -18.6730   27.7930 C.cat  29  ARG29       0.5346
     63  NH1       38.5040  -18.0540   28.2800 N.pl3  29  ARG29       0.1354
     64  NH2       36.3230  -18.8430   28.6040 N.pl3  29  ARG29       0.1354
     65  N         38.0280  -15.1160   31.0760 N.3    50  MET50      -0.1245
     66  CA        38.9990  -14.7500   29.9970 C.3    50  MET50       0.1570
     67  C         40.2680  -14.1210   30.5760 C.2    50  MET50       0.2261
     68  O         40.4040  -13.9290   31.7790 O.2    50  MET50      -0.2867
     69  CB        38.3560  -13.6680   29.0870 C.3    50  MET50       0.0387
     70  CG        36.9230  -13.9400   28.6910 C.3    50  MET50       0.0595
     71  SD        36.1150  -12.6790   27.6530 S.3    50  MET50      -0.1393
     72  CE        37.2640  -11.2860   27.7460 C.3    50  MET50       0.0692
     73  N         34.4150   -8.8630   30.1410 N.3    55  TYR55      -0.1241
     74  CA        33.0560   -9.3830   30.1400 C.3    55  TYR55       0.1605
     75  C         32.4480   -9.2470   31.5190 C.2    55  TYR55       0.2264
     76  O         31.3240   -8.8190   31.6130 O.2    55  TYR55      -0.2867
     77  CB        32.9900  -10.8650   29.6410 C.3    55  TYR55       0.0534
     78  CG        31.7050  -11.5660   29.9480 C.ar   55  TYR55      -0.0201
     79  CD1       31.5420  -12.2050   31.1670 C.ar   55  TYR55      -0.0009
     80  CD2       30.6500  -11.6030   29.0760 C.ar   55  TYR55      -0.0009
     81  CE1       30.3770  -12.8950   31.5200 C.ar   55  TYR55       0.0417
     82  CE2       29.4570  -12.3130   29.4120 C.ar   55  TYR55       0.0417
     83  CZ        29.3380  -12.9420   30.6420 C.ar   55  TYR55       0.1957
     84  OH        28.2080  -13.6130   31.0130 O.3    55  TYR55      -0.2866
     85  N         26.7670  -18.4870   17.5810 N.3   135  SER135     -0.1217
     86  CA        26.9730  -17.0630   17.8500 C.3   135  SER135      0.1889
     87  C         28.0090  -16.5550   16.8410 C.2   135  SER135      0.2288
     88  O         29.0860  -17.1610   16.7380 O.2   135  SER135     -0.2866
     89  CB        27.5770  -16.9030   19.2400 C.3   135  SER135      0.2089
     90  OG        27.8470  -15.5290   19.5610 O.3   135  SER135     -0.2183
     91  N         22.6920  -16.1720   16.0490 N.3   161  LYS161     -0.1245
     92  CA        22.8810  -15.0130   16.9610 C.3   161  LYS161      0.1561
     93  C         23.9690  -14.0560   16.4760 C.2   161  LYS161      0.2260
     94  O         25.0970  -14.4930   16.2150 O.2   161  LYS161     -0.2867
     95  CB        23.2430  -15.5450   18.3580 C.3   161  LYS161      0.0271
     96  CG        23.9330  -14.5800   19.3340 C.3   161  LYS161      0.0035
     97  CD        24.1310  -15.2930   20.6510 C.3   161  LYS161      0.0206
     98  CE        25.2420  -14.6490   21.4610 C.3   161  LYS161      0.1093
     99  NZ        25.1230  -15.1100   22.8910 N.3   161  LYS161     -0.1314
    100  N         26.4390  -10.7970   17.1660 N.3   163  LYS163     -0.1245
    101  CA        26.9900   -9.7530   18.0780 C.3   163  LYS163      0.1561
    102  C         26.7060   -8.4060   17.4880 C.2   163  LYS163      0.2260
    103  O         26.8860   -8.2440   16.2720 O.2   163  LYS163     -0.2867
    104  CB        28.4600   -9.9560   18.3310 C.3   163  LYS163      0.0271
    105  CG        28.7970  -11.2440   19.0310 C.3   163  LYS163      0.0035
    106  CD        28.2610  -11.1530   20.4900 C.3   163  LYS163      0.0206
    107  CE        28.5630  -12.4490   21.1380 C.3   163  LYS163      0.1093
    108  NZ        28.1150  -12.4490   22.5600 N.3   163  LYS163     -0.1314
    109  N         22.9700   -9.7930   20.3020 N.3   189  ASP189     -0.1239
    110  CA        23.6030   -9.7540   21.6420 C.3   189  ASP189      0.1674
    111  C         24.5720   -8.5950   21.7070 C.2   189  ASP189      0.2266
    112  O         25.5900   -8.5780   20.9700 O.2   189  ASP189     -0.2867
    113  CB        24.3350  -11.0590   21.9170 C.3   189  ASP189      0.1410
    114  CG        25.0230  -11.0840   23.3190 C.2   189  ASP189      0.3668
    115  OD1       24.8980  -10.0760   24.0870 O.co2 189  ASP189     -0.2456
    116  OD2       25.6670  -12.1260   23.6510 O.co2 189  ASP189     -0.2456
    117  N         26.2570   -7.4950   24.5490 N.3   191  ASN191     -0.1240
    118  CA        27.2060   -7.5200   25.6860 C.3   191  ASN191      0.1653
    119  C         27.3840   -6.1690   26.3930 C.2   191  ASN191      0.2266
    120  O         28.5300   -5.7210   26.6410 O.2   191  ASN191     -0.2867
    121  CB        28.6120   -8.0580   25.2530 C.3   191  ASN191      0.1155
    122  CG        28.6340   -9.5390   24.9660 C.2   191  ASN191      0.2627
    123  OD1       28.8360   -9.9730   23.8100 O.2   191  ASN191     -0.2716
    124  ND2       28.4640  -10.3370   25.9920 N.am  191  ASN191     -0.0877
    125  N         19.8130   -9.6540   23.5840 N.3   214  GLU214     -0.1245
    126  CA        20.4690  -10.1050   24.7500 C.3   214  GLU214      0.1567
    127  C         21.3710   -9.0090   25.3480 C.2   214  GLU214      0.2260
    128  O         22.2670   -8.4220   24.6800 O.2   214  GLU214     -0.2867
    129  CB        21.2950  -11.3600   24.4110 C.3   214  GLU214      0.0388
    130  CG        22.0010  -12.0890   25.5050 C.3   214  GLU214      0.1160
    131  CD        22.8470  -13.2860   24.9750 C.2   214  GLU214      0.3649
    132  OE1       22.7730  -13.6230   23.7140 O.co2 214  GLU214     -0.2457
    133  OE2       23.6100  -13.8930   25.7910 O.co2 214  GLU214     -0.2457
    134  N         21.8960  -11.9040   30.2480 N.3   239  ASP239     -0.1239
    135  CA        23.0860  -12.8090   30.3830 C.3   239  ASP239      0.1674
    136  C         23.8900  -12.3090   31.6190 C.2   239  ASP239      0.2266
    137  O         23.6840  -12.8300   32.7250 O.2   239  ASP239     -0.2867
    138  CB        23.9160  -12.8170   29.0400 C.3   239  ASP239      0.1410
    139  CG        25.2510  -13.5370   29.1410 C.2   239  ASP239      0.3668
    140  OD1       25.6230  -14.0600   30.2250 O.co2 239  ASP239     -0.2456
    141  OD2       26.0210  -13.5530   28.1250 O.co2 239  ASP239     -0.2456
    142  N         24.3680  -19.4890   31.8920 N.3   263  LYS263     -0.1245
    143  CA        25.7690  -19.8870   31.8430 C.3   263  LYS263      0.1561
    144  C         26.1860  -20.3320   33.2300 C.2   263  LYS263      0.2260
    145  O         26.1660  -19.5080   34.1760 O.2   263  LYS263     -0.2867
    146  CB        26.6700  -18.6880   31.4880 C.3   263  LYS263      0.0271
    147  CG        26.6720  -18.3120   30.0460 C.3   263  LYS263      0.0035
    148  CD        27.5040  -17.0570   29.7460 C.3   263  LYS263      0.0206
    149  CE        27.2070  -16.6690   28.3270 C.3   263  LYS263      0.1093
    150  NZ        27.9930  -15.5060   28.0900 N.3   263  LYS263     -0.1314
    151  N         27.2920  -20.0310   26.1910 N.3   291  ASP291     -0.1225
    152  CA        28.5770  -20.6940   25.8380 C.3   291  ASP291      0.1805
    153  C         29.6780  -19.6630   26.0240 C.2   291  ASP291      0.2598
    154  O         29.4720  -18.4760   25.7450 O.2   291  ASP291     -0.2718
    155  CB        28.5050  -21.1840   24.3570 C.3   291  ASP291      0.1424
    156  CG        29.8690  -21.7040   23.8300 C.2   291  ASP291      0.3668
    157  OD1       30.6820  -20.8720   23.3850 O.co2 291  ASP291     -0.2456
    158  OD2       30.1220  -22.8770   23.8680 O.co2 291  ASP291     -0.2456
    159  N         30.7650  -20.0780   26.6350 N.am  292  MET292     -0.1965
    160  CA        31.9260  -19.2590   26.8970 C.3   292  MET292      0.1736
    161  C         33.1680  -19.8430   26.1620 C.2   292  MET292      0.2616
    162  O         34.3430  -19.7390   26.6200 O.2   292  MET292     -0.2715
    163  CB        32.1790  -19.1810   28.3870 C.3   292  MET292      0.0427
    164  CG        31.0720  -18.4130   29.1640 C.3   292  MET292      0.0599
    165  SD        31.0780  -16.6610   28.7320 S.3   292  MET292     -0.1393
    166  CE        32.3330  -15.9830   29.8500 C.3   292  MET292      0.0692
    167  N         32.9310  -20.4580   25.0410 N.am  293  ILE293     -0.1977
    168  CA        34.0150  -21.0010   24.2160 C.3   293  ILE293      0.1596
    169  C         34.7870  -22.0900   24.9590 C.2   293  ILE293      0.2287
    170  O         36.0060  -22.1380   24.9470 O.2   293  ILE293     -0.2864
    171  CB        34.9110  -19.8420   23.7410 C.3   293  ILE293      0.0276
    172  CG1       33.9780  -18.6670   23.2900 C.3   293  ILE293      0.0022
    173  CG2       35.8570  -20.2680   22.5540 C.3   293  ILE293      0.0022
    174  CD1       34.6280  -17.6220   22.4240 C.3   293  ILE293      0.0001
    175  N         23.7020  -21.7580   22.5810 N.3   316  ASP316     -0.1239
    176  CA        24.9450  -21.4260   21.9310 C.3   316  ASP316      0.1674
    177  C         25.9840  -22.5980   22.0100 C.2   316  ASP316      0.2266
    178  O         27.1370  -22.3700   21.6940 O.2   316  ASP316     -0.2867
    179  CB        25.6140  -20.1850   22.5380 C.3   316  ASP316      0.1410
    180  CG        25.0330  -18.8600   22.0830 C.2   316  ASP316      0.3668
    181  OD1       24.1930  -18.7810   21.1680 O.co2 316  ASP316     -0.2456
    182  OD2       25.4270  -17.8060   22.7130 O.co2 316  ASP316     -0.2456
    183  N         34.8830  -23.5550   17.0150 N.3   323  TYR323     -0.1241
    184  CA        35.9550  -22.7830   17.6550 C.3   323  TYR323      0.1605
    185  C         37.3670  -23.3770   17.4260 C.2   323  TYR323      0.2264
    186  O         38.3270  -22.6050   17.3070 O.2   323  TYR323     -0.2867
    187  CB        35.7110  -22.7230   19.1890 C.3   323  TYR323      0.0534
    188  CG        34.4280  -21.9990   19.6020 C.ar  323  TYR323     -0.0201
    189  CD1       34.1940  -20.6800   19.2410 C.ar  323  TYR323     -0.0009
    190  CD2       33.4150  -22.6680   20.2730 C.ar  323  TYR323     -0.0009
    191  CE1       33.0130  -19.9800   19.6580 C.ar  323  TYR323      0.0417
    192  CE2       32.2090  -22.0080   20.6430 C.ar  323  TYR323      0.0417
    193  CZ        32.0230  -20.6630   20.3580 C.ar  323  TYR323      0.1957
    194  OH        30.8200  -20.0280   20.6970 O.3   323  TYR323     -0.2866
@<TRIPOS>BOND
     1     4     3    2
     2    91    92    1
     3     3     2    1
     4    94    93    2
     5   103   102    2
     6    93    92    1
     7    88    87    2
     8    87    86    1
     9    92    95    1
    10   183   184    1
    11     9    10    1
    12   100   101    1
    13   186   185    2
    14    10    11    1
    15    10    13    1
    16   185   184    1
    17   102   101    1
    18    85    86    1
    19     2     5    1
    20     2     1    1
    21   184   187    1
    22     5     6    1
    23    86    89    1
    24    15    17   ar
    25    15    14   ar
    26    11    12    2
    27   101   104    1
    28    17    19   ar
    29   104   105    1
    30    95    96    1
    31    13    14    1
    32    41    40    2
    33    14    16   ar
    34   105   106    1
    35   187   188    1
    36    89    90    1
    37   189   188   ar
    38   189   191   ar
    39    96    97    1
    40     6     7    1
    41     6     8    1
    42    40    39    1
    43    19    18   ar
    44   188   190   ar
    45   191   193   ar
    46    20    21    1
    47    38    39    1
    48    16    18   ar
    49    53    51    1
    50   190   192   ar
    51    23    22    2
    52   109   110    1
    53   193   192   ar
    54   193   194    1
    55    47    48    1
    56    21    22    1
    57    21    24    1
    58   106   107    1
    59    97    98    1
    60    39    42    1
    61   112   111    2
    62    48    51    1
    63    48    49    1
    64   107   108    1
    65   181   180   ar
    66    51    52    1
    67    98    99    1
    68   110   111    1
    69   110   113    1
    70   178   177    2
    71    26    24    1
    72    42    43    1
    73    24    25    1
    74   113   114    1
    75   176   177    1
    76   176   179    1
    77   176   175    1
    78   180   179    1
    79   180   182   ar
    80    45    44    2
    81    49    54   am
    82    49    50    2
    83   174   172    1
    84   173   171    1
    85    54    55    1
    86    44    43    1
    87    44    46   am
    88   172   171    1
    89    27    28    1
    90   114   116   ar
    91   114   115   ar
    92   157   156   ar
    93   125   126    1
    94    29    28    1
    95    29    30    2
    96   132   131   ar
    97   171   168    1
    98   123   122    2
    99   156   158   ar
   100   156   155    1
   101    58    55    1
   102    58    59    1
   103    55    56    1
   104    28    31    1
   105   168   169    1
   106   168   167    1
   107   155   152    1
   108   129   126    1
   109   129   130    1
   110   117   118    1
   111   128   127    2
   112   126   127    1
   113   170   169    2
   114   122   121    1
   115   122   124   am
   116   131   130    1
   117   131   133   ar
   118    57    56    2
   119   167   161   am
   120   121   118    1
   121    59    60    1
   122    33    35   ar
   123    33    32   ar
   124    35    37   ar
   125    60    61    1
   126    32    31    1
   127    32    34   ar
   128    37    36   ar
   129   118   119    1
   130   154   153    2
   131    34    36   ar
   132   152   153    1
   133   152   151    1
   134   153   159   am
   135   161   162    2
   136   161   160    1
   137   119   120    2
   138    61    62    2
   139   159   160    1
   140   160   163    1
   141    71    72    1
   142    71    70    1
   143    62    63    1
   144    62    64    1
   145   150   149    1
   146   141   139   ar
   147   149   148    1
   148   163   164    1
   149    70    69    1
   150   165   164    1
   151   165   166    1
   152   138   139    1
   153   138   135    1
   154    80    82   ar
   155    80    78   ar
   156    69    66    1
   157   139   140   ar
   158    82    83   ar
   159    77    78    1
   160    77    74    1
   161   148   147    1
   162    78    79   ar
   163    66    67    1
   164    66    65    1
   165   147   146    1
   166    74    73    1
   167    74    75    1
   168   134   135    1
   169   135   136    1
   170    67    68    2
   171    83    84    1
   172    83    81   ar
   173    79    81   ar
   174   146   143    1
   175    75    76    2
   176   136   137    2
   177   143   142    1
   178   143   144    1
   179   144   145    2
