@<TRIPOS>MOLECULE
tmp/5fjtB00.pdb
 187 172 0 0 0
SMALL
GASTEIGER

@<TRIPOS>ATOM
      1  N         12.2270   43.3160   18.1010 N.3    19  PHE19      -0.1241
      2  CA        13.1410   43.3130   19.2750 C.3    19  PHE19       0.1605
      3  C         14.5820   43.3360   18.7150 C.2    19  PHE19       0.2264
      4  O         15.0390   42.4100   18.0560 O.2    19  PHE19      -0.2867
      5  CB        12.9460   42.0720   20.1060 C.3    19  PHE19       0.0534
      6  CG        13.8560   42.0000   21.3280 C.ar   19  PHE19      -0.0203
      7  CD1       13.7690   42.9390   22.2870 C.ar   19  PHE19      -0.0042
      8  CD2       14.8490   41.0150   21.4410 C.ar   19  PHE19      -0.0042
      9  CE1       14.5540   42.8900   23.4500 C.ar   19  PHE19      -0.0003
     10  CE2       15.6710   40.9890   22.5600 C.ar   19  PHE19      -0.0003
     11  CZ        15.5070   41.9180   23.5620 C.ar   19  PHE19      -0.0000
     12  N         18.6660   43.9250   19.0200 N.3    21  THR21      -0.1161
     13  CA        19.8250   43.5810   19.8480 C.3    21  THR21       0.2171
     14  C         21.0240   44.0020   19.0020 C.2    21  THR21       0.2340
     15  O         20.8580   44.2890   17.8210 O.2    21  THR21      -0.2862
     16  CB        19.6230   42.0660   19.9630 C.2    21  THR21       0.1981
     17  OG1       19.2290   41.6250   21.2580 O.2    21  THR21      -0.2893
     18  CG2       20.4620   41.3220   19.2150 C.2    21  THR21       0.0424
     19  N         23.0860   42.0360   17.6560 N.3    23  PHE23      -0.1241
     20  CA        23.2510   41.0570   16.5640 C.3    23  PHE23       0.1605
     21  C         22.0420   41.0800   15.5460 C.2    23  PHE23       0.2264
     22  O         22.0480   40.3010   14.6100 O.2    23  PHE23      -0.2867
     23  CB        23.5340   39.6300   17.0410 C.3    23  PHE23       0.0534
     24  CG        22.4870   39.0360   17.9770 C.ar   23  PHE23      -0.0203
     25  CD1       21.2830   38.5040   17.4780 C.ar   23  PHE23      -0.0042
     26  CD2       22.6790   39.0190   19.3620 C.ar   23  PHE23      -0.0042
     27  CE1       20.3020   37.9980   18.3320 C.ar   23  PHE23      -0.0003
     28  CE2       21.7240   38.4830   20.2290 C.ar   23  PHE23      -0.0003
     29  CZ        20.5200   37.9750   19.7130 C.ar   23  PHE23      -0.0000
     30  N         14.6660   41.0170   15.5930 N.3    26  GLN26      -0.1245
     31  CA        13.7550   39.9170   15.4730 C.3    26  GLN26       0.1566
     32  C         12.3030   40.4050   15.4860 C.2    26  GLN26       0.2260
     33  O         11.9450   41.2200   16.3460 O.2    26  GLN26      -0.2867
     34  CB        13.9890   39.0470   16.6680 C.3    26  GLN26       0.0367
     35  CG        13.7110   37.6010   16.3890 C.3    26  GLN26       0.0905
     36  CD        14.6190   36.7290   17.1710 C.2    26  GLN26       0.2608
     37  OE1       15.6020   37.1980   17.7330 O.2    26  GLN26      -0.2717
     38  NE2       14.3140   35.4490   17.1980 N.am   26  GLN26      -0.0878
     39  N          9.4630   34.9830   16.3080 N.3    29  ARG29      -0.1241
     40  CA        10.2920   34.0170   17.0370 C.3    29  ARG29       0.1606
     41  C         10.0730   32.6710   16.4360 C.2    29  ARG29       0.2264
     42  O          8.9390   32.1710   16.4330 O.2    29  ARG29      -0.2867
     43  CB         9.8270   33.9580   18.5020 C.3    29  ARG29       0.0562
     44  CG        10.8870   33.9380   19.5690 C.2    29  ARG29       0.0159
     45  CD        12.0200   33.1180   19.2810 C.2    29  ARG29       0.1886
     46  NE        12.9120   32.8240   20.4060 N.pl3  29  ARG29      -0.0578
     47  CZ        13.9280   31.9810   20.2220 C.cat  29  ARG29       0.5393
     48  NH1       14.1720   31.5390   18.9940 N.pl3  29  ARG29       0.1358
     49  NH2       14.7390   31.6100   21.2230 N.pl3  29  ARG29       0.1358
     50  N         17.7610   30.1160   17.7920 N.3    50  MET50      -0.1245
     51  CA        17.1250   30.9850   16.8030 C.3    50  MET50       0.1570
     52  C         17.3750   30.4170   15.4290 C.2    50  MET50       0.2261
     53  O         18.0420   29.4160   15.2850 O.2    50  MET50      -0.2867
     54  CB        17.7260   32.3870   16.9040 C.3    50  MET50       0.0387
     55  CG        17.3110   33.1430   18.1400 C.3    50  MET50       0.0595
     56  SD        18.4570   34.5620   18.3230 S.3    50  MET50      -0.1393
     57  CE        19.2130   34.8770   16.7270 C.3    50  MET50       0.0692
     58  N         23.6540   34.5120   17.9570 N.3    55  TYR55      -0.1241
     59  CA        23.8560   34.6440   19.3880 C.3    55  TYR55       0.1605
     60  C         24.8970   33.6180   19.8410 C.2    55  TYR55       0.2264
     61  O         25.7500   33.9150   20.6510 O.2    55  TYR55      -0.2867
     62  CB        22.5380   34.5390   20.1930 C.3    55  TYR55       0.0534
     63  CG        22.6860   34.2410   21.6890 C.ar   55  TYR55      -0.0201
     64  CD1       22.7860   32.9240   22.1460 C.ar   55  TYR55      -0.0009
     65  CD2       22.7470   35.2680   22.6470 C.ar   55  TYR55      -0.0009
     66  CE1       22.9350   32.6370   23.4950 C.ar   55  TYR55       0.0417
     67  CE2       22.8990   34.9900   23.9980 C.ar   55  TYR55       0.0417
     68  CZ        22.9850   33.6530   24.4130 C.ar   55  TYR55       0.1957
     69  OH        23.1410   33.2810   25.7540 O.3    55  TYR55      -0.2866
     70  N         13.5470   43.3880   29.3490 N.3   135  SER135     -0.1217
     71  CA        14.6740   43.7190   28.4690 C.3   135  SER135      0.1889
     72  C         14.1260   44.5800   27.3360 C.2   135  SER135      0.2288
     73  O         13.1610   44.1880   26.6790 O.2   135  SER135     -0.2866
     74  CB        15.2290   42.4450   27.9110 C.3   135  SER135      0.2089
     75  OG        16.2180   42.6840   26.9620 O.3   135  SER135     -0.2183
     76  N         16.3940   46.6340   31.7420 N.3   161  LYS161     -0.1245
     77  CA        17.6060   46.2900   31.0170 C.3   161  LYS161      0.1561
     78  C         17.5290   46.9070   29.5960 C.2   161  LYS161      0.2260
     79  O         16.5440   46.6850   28.8880 O.2   161  LYS161     -0.2867
     80  CB        17.6990   44.7920   30.9240 C.3   161  LYS161      0.0271
     81  CG        18.6350   44.1910   29.8850 C.3   161  LYS161      0.0035
     82  CD        18.6350   42.6810   30.0600 C.3   161  LYS161      0.0206
     83  CE        19.0200   41.9800   28.8190 C.3   161  LYS161      0.1093
     84  NZ        19.4030   40.5700   29.0580 N.3   161  LYS161     -0.1314
     85  N         19.3410   46.9650   25.8180 N.3   163  LYS163     -0.1245
     86  CA        20.2810   46.4630   24.8390 C.3   163  LYS163      0.1561
     87  C         21.1020   47.6480   24.3670 C.2   163  LYS163      0.2260
     88  O         20.5440   48.7410   24.1180 O.2   163  LYS163     -0.2867
     89  CB        19.5500   45.8380   23.6680 C.3   163  LYS163      0.0271
     90  CG        18.7510   44.5870   24.0420 C.3   163  LYS163      0.0035
     91  CD        19.7610   43.5380   24.5260 C.3   163  LYS163      0.0206
     92  CE        19.1020   42.2720   24.6840 C.3   163  LYS163      0.1093
     93  NZ        20.0550   41.2510   25.1050 N.3   163  LYS163     -0.1314
     94  N         23.0230   45.4930   28.3560 N.3   189  ASP189     -0.1239
     95  CA        23.4790   44.2550   27.7320 C.3   189  ASP189      0.1674
     96  C         23.9590   44.4620   26.3280 C.2   189  ASP189      0.2266
     97  O         23.1870   44.8670   25.4260 O.2   189  ASP189     -0.2867
     98  CB        22.3180   43.2670   27.7400 C.3   189  ASP189      0.1410
     99  CG        22.6530   41.9220   27.1400 C.2   189  ASP189      0.3668
    100  OD1       23.8320   41.6740   26.7310 O.co2 189  ASP189     -0.2456
    101  OD2       21.7310   41.0650   27.1030 O.co2 189  ASP189     -0.2456
    102  N         25.5030   41.9860   24.3340 N.3   191  ASN191     -0.1240
    103  CA        25.6110   40.7560   23.5110 C.3   191  ASN191      0.1653
    104  C         26.8910   40.6940   22.6750 C.2   191  ASN191      0.2266
    105  O         26.8450   40.4000   21.4690 O.2   191  ASN191     -0.2867
    106  CB        24.3890   40.5970   22.5420 C.3   191  ASN191      0.1155
    107  CG        23.1030   40.1950   23.2450 C.2   191  ASN191      0.2627
    108  OD1       22.1400   40.9510   23.2670 O.2   191  ASN191     -0.2716
    109  ND2       23.1020   38.9890   23.8380 N.am  191  ASN191     -0.0877
    110  N         26.2290   43.5310   30.9690 N.3   214  GLU214     -0.1245
    111  CA        26.1440   42.1110   30.6390 C.3   214  GLU214      0.1567
    112  C         26.8380   41.8680   29.3070 C.2   214  GLU214      0.2260
    113  O         26.6280   42.5920   28.3160 O.2   214  GLU214     -0.2867
    114  CB        24.6600   41.7520   30.5340 C.3   214  GLU214      0.0388
    115  CG        24.3370   40.3170   30.2400 C.3   214  GLU214      0.1160
    116  CD        22.8200   40.0830   30.1030 C.2   214  GLU214      0.3649
    117  OE1       21.9890   41.0240   30.3670 O.co2 214  GLU214     -0.2457
    118  OE2       22.4700   38.9410   29.7710 O.co2 214  GLU214     -0.2457
    119  N         26.8740   36.2520   30.3200 N.3   239  ASP239     -0.1239
    120  CA        25.7430   35.4720   29.7320 C.3   239  ASP239      0.1674
    121  C         26.3610   34.4540   28.8230 C.2   239  ASP239      0.2266
    122  O         26.5970   33.3070   29.2540 O.2   239  ASP239     -0.2867
    123  CB        24.7970   36.4400   29.0020 C.3   239  ASP239      0.1410
    124  CG        23.6740   35.7180   28.1770 C.2   239  ASP239      0.3668
    125  OD1       23.6180   34.4870   28.0770 O.co2 239  ASP239     -0.2456
    126  OD2       22.8350   36.4580   27.6030 O.co2 239  ASP239     -0.2456
    127  N         24.1910   35.7390   34.6850 N.3   261  ASN261     -0.1240
    128  CA        22.8930   35.5040   34.0370 C.3   261  ASN261      0.1653
    129  C         22.8290   34.0120   33.7550 C.2   261  ASN261      0.2266
    130  O         23.6960   33.4730   33.1030 O.2   261  ASN261     -0.2867
    131  CB        22.8290   36.3120   32.7160 C.3   261  ASN261      0.1155
    132  CG        21.6260   35.9260   31.8240 C.2   261  ASN261      0.2627
    133  OD1       21.2090   34.8000   31.7920 O.2   261  ASN261     -0.2716
    134  ND2       21.1630   36.8370   31.0570 N.am  261  ASN261     -0.0877
    135  N         20.9060   31.0710   31.8910 N.3   263  LYS263     -0.1245
    136  CA        19.9270   30.6300   30.8770 C.3   263  LYS263      0.1561
    137  C         20.0900   29.1020   30.7760 C.2   263  LYS263      0.2260
    138  O         21.1620   28.6220   30.3740 O.2   263  LYS263     -0.2867
    139  CB        20.1990   31.2320   29.5330 C.3   263  LYS263      0.0271
    140  CG        19.8370   32.6970   29.4370 C.3   263  LYS263      0.0035
    141  CD        20.2690   33.2440   28.0980 C.3   263  LYS263      0.0206
    142  CE        19.9430   34.7140   27.9950 C.3   263  LYS263      0.1093
    143  NZ        20.5480   35.2300   26.7540 N.3   263  LYS263     -0.1314
    144  N         16.3020   35.2340   29.6770 N.3   291  ASP291     -0.1225
    145  CA        15.0960   34.9360   28.8640 C.3   291  ASP291      0.1805
    146  C         15.6000   34.8610   27.4110 C.2   291  ASP291      0.2598
    147  O         16.4950   35.6000   26.9840 O.2   291  ASP291     -0.2718
    148  CB        14.1140   36.0420   29.0920 C.3   291  ASP291      0.1424
    149  CG        12.8770   35.9100   28.1880 C.2   291  ASP291      0.3668
    150  OD1       12.9420   36.3730   27.0540 O.co2 291  ASP291     -0.2456
    151  OD2       11.9230   35.3160   28.6270 O.co2 291  ASP291     -0.2456
    152  N         15.1010   33.8740   26.6890 N.am  292  MET292     -0.1965
    153  CA        15.3630   33.7070   25.2610 C.3   292  MET292      0.1736
    154  C         14.0300   33.8370   24.4250 C.2   292  MET292      0.2616
    155  O         13.8730   33.1830   23.3770 O.2   292  MET292     -0.2715
    156  CB        16.0090   32.3600   25.0550 C.3   292  MET292      0.0427
    157  CG        17.4730   32.2090   25.6460 C.3   292  MET292      0.0599
    158  SD        18.5660   33.3320   24.7700 S.3   292  MET292     -0.1393
    159  CE        19.1690   32.2930   23.4910 C.3   292  MET292      0.0692
    160  N         13.1130   34.6640   24.9090 N.am  293  ILE293     -0.1977
    161  CA        11.7720   34.8370   24.3020 C.3   293  ILE293      0.1596
    162  C         11.0730   33.5260   24.1240 C.2   293  ILE293      0.2287
    163  O         10.5950   33.1810   23.0420 O.2   293  ILE293     -0.2864
    164  CB        11.9090   35.5720   22.9250 C.3   293  ILE293      0.0276
    165  CG1       12.8700   36.7520   23.1010 C.3   293  ILE293      0.0022
    166  CG2       10.5560   36.0940   22.5030 C.3   293  ILE293      0.0022
    167  CD1       13.1020   37.5410   21.8360 C.3   293  ILE293      0.0001
    168  N         14.8310   38.4380   33.5980 N.3   316  ASP316     -0.1239
    169  CA        14.2410   38.8730   32.3520 C.3   316  ASP316      0.1674
    170  C         12.9900   38.0480   32.0280 C.2   316  ASP316      0.2266
    171  O         12.5240   38.1330   30.9060 O.2   316  ASP316     -0.2867
    172  CB        15.2210   38.6780   31.1850 C.3   316  ASP316      0.1410
    173  CG        16.2630   39.7480   31.0550 C.2   316  ASP316      0.3668
    174  OD1       16.2110   40.7760   31.7260 O.co2 316  ASP316     -0.2456
    175  OD2       17.2090   39.5320   30.2060 O.co2 316  ASP316     -0.2456
    176  N          5.9760   39.8110   24.8810 N.3   323  TYR323     -0.1241
    177  CA         6.4090   39.2930   23.6090 C.3   323  TYR323      0.1605
    178  C          5.2660   38.8960   22.6560 C.2   323  TYR323      0.2264
    179  O          5.4070   39.0490   21.4670 O.2   323  TYR323     -0.2867
    180  CB         7.2580   38.0330   23.8470 C.3   323  TYR323      0.0534
    181  CG         8.5700   38.3200   24.6290 C.ar  323  TYR323     -0.0201
    182  CD1        9.5770   39.1330   24.0730 C.ar  323  TYR323     -0.0009
    183  CD2        8.8040   37.7600   25.8800 C.ar  323  TYR323     -0.0009
    184  CE1       10.7660   39.3850   24.7420 C.ar  323  TYR323      0.0417
    185  CE2        9.9850   38.0220   26.5710 C.ar  323  TYR323      0.0417
    186  CZ        10.9560   38.8320   26.0000 C.ar  323  TYR323      0.1957
    187  OH        12.1480   39.0620   26.6680 O.3   323  TYR323     -0.2866
@<TRIPOS>BOND
     1    22    21    2
     2    53    52    2
     3    52    51    1
     4    31    32    1
     5    31    30    1
     6    31    34    1
     7    32    33    2
     8    21    20    1
     9    39    40    1
    10    35    34    1
    11    35    36    1
    12    42    41    2
    13    41    40    1
    14    20    23    1
    15    20    19    1
    16    57    56    1
    17    51    54    1
    18    51    50    1
    19    54    55    1
    20    40    43    1
    21    23    24    1
    22    36    38   am
    23    36    37    2
    24    25    24   ar
    25    25    27   ar
    26    15    14    2
    27    58    59    1
    28    24    26   ar
    29     4     3    2
    30     1     2    1
    31    55    56    1
    32    27    29   ar
    33    43    44    1
    34     3     2    1
    35    48    47    1
    36    14    13    1
    37    12    13    1
    38    18    16    2
    39     2     5    1
    40    45    44    2
    41    45    46    1
    42    26    28   ar
    43    59    60    1
    44    59    62    1
    45    29    28   ar
    46    60    61    2
    47    13    16    1
    48    16    17    1
    49     5     6    1
    50    62    63    1
    51    47    46    2
    52    47    49    1
    53     6     8   ar
    54     6     7   ar
    55     8    10   ar
    56   179   178    2
    57   105   104    2
    58    63    64   ar
    59    63    65   ar
    60   167   165    1
    61    64    66   ar
    62     7     9   ar
    63   166   164    1
    64   106   107    1
    65   106   103    1
    66    10    11   ar
    67    65    67   ar
    68   178   177    1
    69   104   103    1
    70   164   165    1
    71   164   161    1
    72   163   162    2
    73   107   108    2
    74   107   109   am
    75   155   154    2
    76     9    11   ar
    77   159   158    1
    78    66    68   ar
    79   103   102    1
    80   177   180    1
    81   177   176    1
    82    89    90    1
    83    89    86    1
    84   180   181    1
    85    67    68   ar
    86    90    91    1
    87   182   181   ar
    88   182   184   ar
    89    88    87    2
    90   162   161    1
    91   161   160    1
    92    87    86    1
    93    68    69    1
    94   154   160   am
    95   154   153    1
    96    91    92    1
    97   181   183   ar
    98    92    93    1
    99   184   186   ar
   100   158   157    1
   101    86    85    1
   102   156   153    1
   103   156   157    1
   104   153   152    1
   105    97    96    2
   106   183   185   ar
   107   186   185   ar
   108   186   187    1
   109    96    95    1
   110    73    72    2
   111   152   146   am
   112   100    99   ar
   113   143   142    1
   114    75    74    1
   115   147   146    2
   116   150   149   ar
   117   101    99   ar
   118    99    98    1
   119    72    71    1
   120   146   145    1
   121   126   124   ar
   122    95    98    1
   123    95    94    1
   124    74    71    1
   125   142   141    1
   126   125   124   ar
   127   141   140    1
   128   124   123    1
   129   149   151   ar
   130   149   148    1
   131   113   112    2
   132    71    70    1
   133    83    84    1
   134    83    82    1
   135   121   122    2
   136   121   120    1
   137   145   148    1
   138   145   144    1
   139    79    78    2
   140   123   120    1
   141   112   111    1
   142   140   139    1
   143   139   136    1
   144    78    77    1
   145   120   119    1
   146   118   116   ar
   147    81    82    1
   148    81    80    1
   149   116   115    1
   150   116   117   ar
   151   175   173   ar
   152   115   114    1
   153   138   137    2
   154   114   111    1
   155   111   110    1
   156   137   136    1
   157   136   135    1
   158   171   170    2
   159    80    77    1
   160    77    76    1
   161   173   172    1
   162   173   174   ar
   163   134   132   am
   164   172   169    1
   165   133   132    2
   166   132   131    1
   167   170   169    1
   168   169   168    1
   169   131   128    1
   170   130   129    2
   171   129   128    1
   172   128   127    1
