@<TRIPOS>MOLECULE
tmp/5fjuA01.pdb
 105 100 0 0 0
SMALL
GASTEIGER

@<TRIPOS>ATOM
      1  N         35.7210    0.1370   68.2170 N.3    19  PHE19      -0.1241
      2  CA        36.1930    1.0360   67.1790 C.3    19  PHE19       0.1605
      3  C         36.9720    2.1980   67.8180 C.2    19  PHE19       0.2264
      4  O         36.4200    3.0170   68.5370 O.2    19  PHE19      -0.2867
      5  CB        35.0260    1.5510   66.3300 C.3    19  PHE19       0.0534
      6  CG        35.4730    2.3520   65.1360 C.ar   19  PHE19      -0.0203
      7  CD1       36.0560    1.7170   64.0420 C.ar   19  PHE19      -0.0042
      8  CD2       35.3160    3.7160   65.0870 C.ar   19  PHE19      -0.0042
      9  CE1       36.4730    2.4350   62.9310 C.ar   19  PHE19      -0.0003
     10  CE2       35.7440    4.4510   63.9770 C.ar   19  PHE19      -0.0003
     11  CZ        36.3110    3.8050   62.9010 C.ar   19  PHE19      -0.0000
     12  N         39.6550    5.4670   67.5490 N.3    21  THR21      -0.1218
     13  CA        39.9120    6.6350   66.7170 C.3    21  THR21       0.1862
     14  C         40.8890    7.5010   67.5310 C.2    21  THR21       0.2287
     15  O         41.0870    7.2460   68.7400 O.2    21  THR21      -0.2866
     16  CB        38.5220    7.2170   66.5970 C.3    21  THR21       0.1770
     17  OG1       38.0530    7.2180   65.2410 O.3    21  THR21      -0.2211
     18  CG2       38.4000    8.4670   67.2490 C.3    21  THR21       0.0375
     19  N         40.3520   10.1730   68.9740 N.3    23  PHE23      -0.1227
     20  CA        39.5340   10.8090   70.0390 C.3    23  PHE23       0.1736
     21  C         38.8570    9.8980   71.0340 C.2    23  PHE23       0.2596
     22  O         38.3030   10.3820   72.0190 O.2    23  PHE23      -0.2718
     23  CB        38.4900   11.8510   69.4700 C.3    23  PHE23       0.0547
     24  CG        37.4380   11.2810   68.5290 C.ar   23  PHE23      -0.0202
     25  CD1       36.3720   10.5680   69.0130 C.ar   23  PHE23      -0.0042
     26  CD2       37.5470   11.4630   67.1410 C.ar   23  PHE23      -0.0042
     27  CE1       35.4330   10.0170   68.1530 C.ar   23  PHE23      -0.0003
     28  CE2       36.6110   10.9310   66.2720 C.ar   23  PHE23      -0.0003
     29  CZ        35.5320   10.2190   66.7800 C.ar   23  PHE23      -0.0000
     30  N         38.9370    8.5940   70.8310 N.am   24  GLY24      -0.1942
     31  CA        38.3770    7.6540   71.8220 C.3    24  GLY24       0.2014
     32  C         38.0170    6.3090   71.2400 C.2    24  GLY24       0.2640
     33  O         38.3230    6.0300   70.0650 O.2    24  GLY24      -0.2714
     34  N         37.3360    5.4980   72.0460 N.am   25  THR25      -0.1936
     35  CA        36.9910    4.1200   71.6730 C.3    25  THR25       0.2028
     36  C         35.5470    3.9570   71.9540 C.2    25  THR25       0.2642
     37  O         35.0620    4.4250   72.9800 O.2    25  THR25      -0.2714
     38  CB        37.7270    3.0540   72.5290 C.3    25  THR25       0.1808
     39  OG1       39.1150    3.3050   72.4760 O.3    25  THR25      -0.2208
     40  CG2       37.5070    1.6580   72.0080 C.3    25  THR25       0.0379
     41  N         34.8700    3.2010   71.1010 N.am   26  ALA26      -0.1977
     42  CA        33.4500    2.8840   71.3220 C.3    26  ALA26       0.1597
     43  C         33.1800    1.3980   71.0880 C.2    26  ALA26       0.2287
     44  O         33.7230    0.8210   70.1420 O.2    26  ALA26      -0.2864
     45  CB        32.5810    3.7600   70.4140 C.3    26  ALA26       0.0319
     46  N         29.7690    0.6100   71.3170 N.3    28  VAL28      -0.1231
     47  CA        28.3470    0.7900   71.1610 C.3    28  VAL28       0.1692
     48  C         28.1810    2.0540   70.2900 C.2    28  VAL28       0.2592
     49  O         29.0410    2.9120   70.2930 O.2    28  VAL28      -0.2718
     50  CB        27.7670    0.8750   72.5990 C.3    28  VAL28       0.0266
     51  CG1       26.9310    2.1070   72.8440 C.3    28  VAL28       0.0020
     52  CG2       27.0620   -0.4070   72.9650 C.3    28  VAL28       0.0020
     53  N         27.0680    2.1470   69.5620 N.am   29  ARG29      -0.1966
     54  CA        26.6620    3.3480   68.8650 C.3    29  ARG29       0.1729
     55  C         25.4220    3.8670   69.5320 C.2    29  ARG29       0.2616
     56  O         24.4090    3.1740   69.5440 O.2    29  ARG29      -0.2715
     57  CB        26.3140    3.0160   67.4160 C.3    29  ARG29       0.0348
     58  CG        26.8910    3.8900   66.3230 C.3    29  ARG29       0.0492
     59  CD        27.0780    5.3060   66.6870 C.3    29  ARG29       0.2205
     60  NE        27.1900    6.1900   65.5410 N.pl3  29  ARG29      -0.0865
     61  CZ        26.9510    7.4970   65.6510 C.cat  29  ARG29       0.5346
     62  NH1       26.6190    8.0270   66.8260 N.pl3  29  ARG29       0.1354
     63  NH2       27.0430    8.2940   64.6030 N.pl3  29  ARG29       0.1354
     64  N         25.4850    5.0720   70.1100 N.am   30  GLU30      -0.1977
     65  CA        24.2950    5.7650   70.6630 C.3    30  GLU30       0.1602
     66  C         23.8800    6.8350   69.6800 C.2    30  GLU30       0.2287
     67  O         24.7080    7.6910   69.3350 O.2    30  GLU30      -0.2864
     68  CB        24.5770    6.4020   72.0370 C.3    30  GLU30       0.0415
     69  CG        24.7440    5.3630   73.1500 C.3    30  GLU30       0.1163
     70  CD        25.3440    5.8860   74.4780 C.2    30  GLU30       0.3649
     71  OE1       25.2350    7.0850   74.7840 O.co2  30  GLU30      -0.2457
     72  OE2       25.9510    5.0630   75.2100 O.co2  30  GLU30      -0.2457
     73  N         27.4970   11.7660   68.2530 N.3    50  ILE50      -0.1231
     74  CA        27.9090   10.7620   69.2320 C.3    50  ILE50       0.1692
     75  C         27.6200   11.3150   70.6550 C.2    50  ILE50       0.2592
     76  O         27.0520   12.3970   70.7970 O.2    50  ILE50      -0.2718
     77  CB        29.4060   10.3950   69.0450 C.3    50  ILE50       0.0266
     78  CG1       30.3090   11.6490   69.1240 C.3    50  ILE50       0.0019
     79  CG2       29.6020    9.6910   67.6890 C.3    50  ILE50       0.0020
     80  CD1       31.7540   11.3440   69.3340 C.3    50  ILE50       0.0001
     81  N         28.0180   10.5810   71.6820 N.am   51  ALA51      -0.1966
     82  CA        27.5950   10.8350   73.0570 C.3    51  ALA51       0.1728
     83  C         28.1490   12.0980   73.6600 C.2    51  ALA51       0.2616
     84  O         27.4150   12.8060   74.3570 O.2    51  ALA51      -0.2715
     85  CB        27.9770    9.6560   73.9780 C.3    51  ALA51       0.0334
     86  N         29.4110   12.4090   73.3590 N.am   52  GLY52      -0.1955
     87  CA        30.0500   13.6710   73.8290 C.3    52  GLY52       0.1869
     88  C         30.7450   14.4430   72.7060 C.2    52  GLY52       0.2309
     89  O         30.8980   13.9430   71.5850 O.2    52  GLY52      -0.2863
     90  N         33.4590   15.1290   71.1330 N.3    54  LEU54      -0.1245
     91  CA        34.8310   14.7320   70.9160 C.3    54  LEU54       0.1561
     92  C         35.2850   14.7970   69.4450 C.2    54  LEU54       0.2260
     93  O         36.5000   14.8030   69.1770 O.2    54  LEU54      -0.2867
     94  CB        35.0010   13.3320   71.4790 C.3    54  LEU54       0.0270
     95  CG        34.6950   13.0910   72.9730 C.3    54  LEU54       0.0019
     96  CD1       34.9690   11.6380   73.3610 C.3    54  LEU54       0.0001
     97  CD2       35.5170   13.9840   73.8760 C.3    54  LEU54       0.0001
     98  N         29.1530    5.5010   61.0940 N.3   293  ILE293     -0.1245
     99  CA        28.6070    4.2900   61.7050 C.3   293  ILE293      0.1561
    100  C         27.0830    4.3940   61.8450 C.2   293  ILE293      0.2260
    101  O         26.4790    4.1630   62.8930 O.2   293  ILE293     -0.2867
    102  CB        29.2830    4.0060   63.0750 C.3   293  ILE293      0.0252
    103  CG1       30.7990    4.1620   62.9460 C.3   293  ILE293      0.0019
    104  CG2       28.9540    2.5920   63.5710 C.3   293  ILE293      0.0019
    105  CD1       31.6080    3.7940   64.1660 C.3   293  ILE293      0.0001
@<TRIPOS>BOND
     1    98    99    1
     2    99   100    1
     3    99   102    1
     4   100   101    2
     5    11     9   ar
     6    11    10   ar
     7     9     7   ar
     8   103   102    1
     9   103   105    1
    10   102   104    1
    11    10     8   ar
    12     7     6   ar
    13    63    61    1
    14     8     6   ar
    15     6     5    1
    16    17    16    1
    17    60    61    2
    18    60    59    1
    19    61    62    1
    20    28    29   ar
    21    28    26   ar
    22    58    59    1
    23    58    57    1
    24     5     2    1
    25    16    13    1
    26    16    18    1
    27    13    14    1
    28    13    12    1
    29    29    27   ar
    30    26    24   ar
    31     2     3    1
    32     2     1    1
    33    57    54    1
    34    14    15    2
    35    79    77    1
    36     3     4    2
    37    27    25   ar
    38    73    74    1
    39    24    25   ar
    40    24    23    1
    41    54    55    1
    42    54    53    1
    43    19    20    1
    44    77    78    1
    45    77    74    1
    46    78    80    1
    47    93    92    2
    48    74    75    1
    49    67    66    2
    50    92    91    1
    51    23    20    1
    52    55    56    2
    53    55    64   am
    54    53    48   am
    55    66    65    1
    56    20    21    1
    57    33    32    2
    58    64    65    1
    59    44    43    2
    60    48    49    2
    61    48    47    1
    62    45    42    1
    63    75    76    2
    64    75    81   am
    65    65    68    1
    66    30    21   am
    67    30    31    1
    68    91    90    1
    69    91    94    1
    70    21    22    2
    71    43    42    1
    72    41    42    1
    73    41    36   am
    74    47    46    1
    75    47    50    1
    76    32    31    1
    77    32    34   am
    78    94    95    1
    79    89    88    2
    80    35    36    1
    81    35    34    1
    82    35    38    1
    83    81    82    1
    84    36    37    2
    85    40    38    1
    86    68    69    1
    87    39    38    1
    88    50    51    1
    89    50    52    1
    90    88    87    1
    91    95    96    1
    92    95    97    1
    93    82    83    1
    94    82    85    1
    95    69    70    1
    96    86    83   am
    97    86    87    1
    98    83    84    2
    99    70    71   ar
   100    70    72   ar
