@<TRIPOS>MOLECULE
tmp/5fjwB00.pdb
 207 205 0 0 0
SMALL
GASTEIGER

@<TRIPOS>ATOM
      1  N         30.3180   57.0570   83.9660 N.3    34  VAL34      -0.1245
      2  CA        30.0340   57.0440   82.5240 C.3    34  VAL34       0.1561
      3  C         28.5360   57.1900   82.2870 C.2    34  VAL34       0.2260
      4  O         27.7520   56.7540   83.1130 O.2    34  VAL34      -0.2867
      5  CB        30.5000   55.7110   81.8490 C.3    34  VAL34       0.0252
      6  CG1       29.6030   54.5560   82.2530 C.3    34  VAL34       0.0019
      7  CG2       30.5230   55.8300   80.3230 C.3    34  VAL34       0.0019
      8  N         25.7700   56.1260   79.5200 N.3    36  GLU36      -0.1245
      9  CA        25.4630   55.2570   78.3930 C.3    36  GLU36       0.1567
     10  C         24.0430   55.4580   77.8620 C.2    36  GLU36       0.2260
     11  O         23.1370   55.9160   78.5630 O.2    36  GLU36      -0.2867
     12  CB        25.6210   53.8120   78.7920 C.3    36  GLU36       0.0388
     13  CG        27.0540   53.4150   79.0220 C.3    36  GLU36       0.1160
     14  CD        27.1930   51.9760   79.4970 C.2    36  GLU36       0.3649
     15  OE1       26.1430   51.3380   79.7730 O.co2  36  GLU36      -0.2457
     16  OE2       28.3560   51.4960   79.6060 O.co2  36  GLU36      -0.2457
     17  N         14.2220   53.0070   65.6980 N.3    42  HIS42      -0.1241
     18  CA        14.7890   53.9390   64.7270 C.3    42  HIS42       0.1621
     19  C         14.1550   55.3250   64.8020 C.2    42  HIS42       0.2264
     20  O         14.8250   56.3200   64.5200 O.2    42  HIS42      -0.2867
     21  CB        14.7590   53.4040   63.2820 C.3    42  HIS42       0.0745
     22  CG        15.8280   54.0000   62.4090 C.ar   42  HIS42       0.0817
     23  ND1       17.0720   53.4200   62.2490 N.ar   42  HIS42      -0.2268
     24  CD2       15.8560   55.1480   61.6890 C.ar   42  HIS42       0.1154
     25  CE1       17.8110   54.1740   61.4530 C.ar   42  HIS42       0.1986
     26  NE2       17.0990   55.2310   61.1030 N.ar   42  HIS42      -0.2212
     27  N         17.2390   60.0580   66.4020 N.3    46  HIS46      -0.1241
     28  CA        17.4890   61.4860   66.2090 C.3    46  HIS46       0.1621
     29  C         17.2060   62.2290   67.5090 C.2    46  HIS46       0.2264
     30  O         16.5500   63.2970   67.5180 O.2    46  HIS46      -0.2867
     31  CB        16.6670   62.0290   65.0160 C.3    46  HIS46       0.0745
     32  CG        16.9780   61.3450   63.7150 C.ar   46  HIS46       0.0817
     33  ND1       17.9070   61.8320   62.8200 N.ar   46  HIS46      -0.2268
     34  CD2       16.5090   60.1910   63.1780 C.ar   46  HIS46       0.1154
     35  CE1       17.9880   61.0150   61.7830 C.ar   46  HIS46       0.1986
     36  NE2       17.1480   60.0130   61.9740 N.ar   46  HIS46      -0.2212
     37  N         34.7580   64.0650   79.8620 N.3    65  LYS65      -0.1231
     38  CA        35.3240   63.7320   78.5640 C.3    65  LYS65       0.1693
     39  C         34.1700   63.1540   77.7110 C.2    65  LYS65       0.2593
     40  O         33.6800   62.0570   77.9760 O.2    65  LYS65      -0.2718
     41  CB        36.5080   62.7670   78.7450 C.3    65  LYS65       0.0285
     42  CG        37.0530   62.1410   77.4550 C.3    65  LYS65       0.0035
     43  CD        38.4710   61.5410   77.5720 C.3    65  LYS65       0.0206
     44  CE        38.6150   60.3870   78.5860 C.3    65  LYS65       0.1093
     45  NZ        38.1600   59.0320   78.1260 N.3    65  LYS65      -0.1314
     46  N         33.6990   63.9270   76.7270 N.am   66  THR66      -0.1939
     47  CA        32.6490   63.4760   75.8240 C.3    66  THR66       0.2028
     48  C         33.2790   62.5680   74.8290 C.2    66  THR66       0.2642
     49  O         34.4620   62.6600   74.5790 O.2    66  THR66      -0.2714
     50  CB        31.9990   64.6230   75.0480 C.3    66  THR66       0.1808
     51  OG1       33.0000   65.3660   74.3590 O.3    66  THR66      -0.2208
     52  CG2       31.2850   65.5630   75.9830 C.3    66  THR66       0.0379
     53  N         32.4670   61.7000   74.2530 N.am   67  HIS67      -0.1959
     54  CA        32.8970   60.7900   73.2160 C.3    67  HIS67       0.1772
     55  C         33.2110   61.5680   71.9220 C.2    67  HIS67       0.2462
     56  O         32.6580   62.6250   71.7000 O.2    67  HIS67      -0.2730
     57  CB        31.7860   59.7790   72.9850 C.3    67  HIS67       0.0785
     58  CG        32.1540   58.7080   72.0310 C.ar   67  HIS67       0.0821
     59  ND1       32.2280   58.9320   70.6870 N.ar   67  HIS67      -0.2267
     60  CD2       32.5050   57.4230   72.2160 C.ar   67  HIS67       0.1154
     61  CE1       32.6010   57.8270   70.0750 C.ar   67  HIS67       0.1986
     62  NE2       32.7610   56.8900   70.9810 N.ar   67  HIS67      -0.2212
     63  N         34.1040   61.0520   71.0680 N.am   68  PRO68      -0.2716
     64  CA        34.4290   61.8060   69.8580 C.3    68  PRO68       0.1536
     65  C         33.2660   62.2140   68.9360 C.2    68  PRO68       0.2599
     66  O         33.2360   63.3370   68.4340 O.2    68  PRO68      -0.2715
     67  CB        35.3960   60.8670   69.1450 C.3    68  PRO68       0.0310
     68  CG        36.1670   60.2720   70.2740 C.3    68  PRO68       0.0237
     69  CD        35.1170   60.0050   71.3220 C.3    68  PRO68       0.0939
     70  N         32.3560   61.2920   68.6680 N.am   69  ASN69      -0.1959
     71  CA        31.0480   61.6060   68.0770 C.3    69  ASN69       0.1819
     72  C         30.2310   62.7620   68.6590 C.2    69  ASN69       0.2621
     73  O         29.4410   63.3270   67.9550 O.2    69  ASN69      -0.2715
     74  CB        30.1710   60.3550   68.0820 C.3    69  ASN69       0.1195
     75  CG        30.7230   59.2490   67.2000 C.2    69  ASN69       0.2630
     76  OD1       31.3990   59.4820   66.1930 O.2    69  ASN69      -0.2716
     77  ND2       30.4170   58.0320   67.5640 N.am   69  ASN69      -0.0877
     78  N         30.3870   63.0920   69.9310 N.am   70  ILE70      -0.1977
     79  CA        29.5410   64.0880   70.5980 C.3    70  ILE70       0.1596
     80  C         30.0850   65.5040   70.3920 C.2    70  ILE70       0.2287
     81  O         31.2800   65.7200   70.3590 O.2    70  ILE70      -0.2864
     82  CB        29.3930   63.7570   72.1140 C.3    70  ILE70       0.0276
     83  CG1       28.8560   62.3340   72.2800 C.3    70  ILE70       0.0022
     84  CG2       28.4960   64.7590   72.8510 C.3    70  ILE70       0.0022
     85  CD1       27.5100   62.1000   71.6520 C.3    70  ILE70       0.0001
     86  N         24.9660   64.8920   68.6200 N.3    83  LEU83      -0.1231
     87  CA        26.0310   64.4410   67.7550 C.3    83  LEU83       0.1693
     88  C         26.6900   65.6330   67.1110 C.2    83  LEU83       0.2592
     89  O         26.1220   66.7230   67.0520 O.2    83  LEU83      -0.2718
     90  CB        25.5270   63.4600   66.7070 C.3    83  LEU83       0.0284
     91  CG        24.8800   62.2600   67.3790 C.3    83  LEU83       0.0019
     92  CD1       23.8750   61.6460   66.4530 C.3    83  LEU83       0.0001
     93  CD2       25.9360   61.2620   67.7600 C.3    83  LEU83       0.0001
     94  N         27.9030   65.3740   66.6450 N.am   84  ARG84      -0.1966
     95  CA        28.8230   66.3630   66.1140 C.3    84  ARG84       0.1729
     96  C         28.3660   66.7760   64.6930 C.2    84  ARG84       0.2616
     97  O         28.4720   67.9620   64.3150 O.2    84  ARG84      -0.2715
     98  CB        30.2370   65.7550   66.1770 C.3    84  ARG84       0.0348
     99  CG        31.2270   66.1190   65.0930 C.3    84  ARG84       0.0492
    100  CD        32.4470   65.2100   65.1370 C.3    84  ARG84       0.2205
    101  NE        33.1160   65.2590   66.4280 N.pl3  84  ARG84      -0.0865
    102  CZ        33.9180   66.2400   66.8530 C.cat  84  ARG84       0.5346
    103  NH1       34.1890   67.3150   66.1000 N.pl3  84  ARG84       0.1354
    104  NH2       34.4650   66.1410   68.0670 N.pl3  84  ARG84       0.1354
    105  N         27.8580   65.7910   63.9300 N.am   85  ASP85      -0.1971
    106  CA        27.2200   66.0030   62.6160 C.3    85  ASP85       0.1709
    107  C         25.7120   65.9880   62.8020 C.2    85  ASP85       0.2293
    108  O         25.1270   64.9230   63.0110 O.2    85  ASP85      -0.2864
    109  CB        27.6360   64.8860   61.6290 C.3    85  ASP85       0.1436
    110  CG        27.0710   65.0790   60.1840 C.2    85  ASP85       0.3671
    111  OD1       26.2300   65.9690   59.9190 O.co2  85  ASP85      -0.2456
    112  OD2       27.4860   64.3130   59.2910 O.co2  85  ASP85      -0.2456
    113  N         23.0900   66.1830   60.8590 N.3    87  SER87      -0.1202
    114  CA        22.2860   65.3330   59.9530 C.3    87  SER87       0.2020
    115  C         22.1490   63.8570   60.3850 C.2    87  SER87       0.2619
    116  O         21.1740   63.1940   60.0150 O.2    87  SER87      -0.2717
    117  CB        22.8720   65.3540   58.5370 C.3    87  SER87       0.2103
    118  OG        24.0050   64.5040   58.4630 O.3    87  SER87      -0.2182
    119  N         23.1270   63.3520   61.1420 N.am   88  LYS88      -0.1965
    120  CA        23.2210   61.9240   61.4660 C.3    88  LYS88       0.1728
    121  C         22.5010   61.5300   62.7670 C.2    88  LYS88       0.2616
    122  O         21.9190   62.3910   63.4660 O.2    88  LYS88      -0.2715
    123  CB        24.6870   61.5260   61.5020 C.3    88  LYS88       0.0311
    124  CG        25.3560   61.6730   60.1470 C.3    88  LYS88       0.0038
    125  CD        26.6150   60.8170   60.0440 C.3    88  LYS88       0.0206
    126  CE        27.3750   61.0280   58.7360 C.3    88  LYS88       0.1093
    127  NZ        26.5320   60.9090   57.5100 N.3    88  LYS88      -0.1314
    128  N         22.5210   60.2200   63.0600 N.am   89  ALA89      -0.1963
    129  CA        21.8190   59.6380   64.2240 C.3    89  ALA89       0.1728
    130  C         22.5950   58.5280   64.9920 C.2    89  ALA89       0.2616
    131  O         23.5960   57.9880   64.5040 O.2    89  ALA89      -0.2715
    132  CB        20.4690   59.1230   63.7710 C.3    89  ALA89       0.0334
    133  N         22.1270   58.2200   66.2060 N.am   90  PHE90      -0.1960
    134  CA        22.7630   57.2060   67.0560 C.3    90  PHE90       0.1756
    135  C         22.4110   55.8160   66.5070 C.2    90  PHE90       0.2461
    136  O         21.2890   55.6180   66.0740 O.2    90  PHE90      -0.2730
    137  CB        22.2390   57.2860   68.5130 C.3    90  PHE90       0.0574
    138  CG        22.7050   58.4920   69.3060 C.ar   90  PHE90      -0.0200
    139  CD1       23.9200   58.4750   69.9750 C.ar   90  PHE90      -0.0042
    140  CD2       21.8950   59.6180   69.4350 C.ar   90  PHE90      -0.0042
    141  CE1       24.3300   59.5640   70.7200 C.ar   90  PHE90      -0.0003
    142  CE2       22.3020   60.7150   70.1820 C.ar   90  PHE90      -0.0003
    143  CZ        23.5180   60.6880   70.8270 C.ar   90  PHE90      -0.0000
    144  N         23.3390   54.8420   66.5520 N.am   91  PRO91      -0.2716
    145  CA        22.9500   53.4730   66.2270 C.3    91  PRO91       0.1536
    146  C         21.7690   52.9990   67.0530 C.2    91  PRO91       0.2598
    147  O         21.8020   53.1160   68.2770 O.2    91  PRO91      -0.2715
    148  CB        24.1870   52.6520   66.5950 C.3    91  PRO91       0.0310
    149  CG        25.3190   53.5840   66.4230 C.3    91  PRO91       0.0237
    150  CD        24.7860   54.9490   66.7960 C.3    91  PRO91       0.0939
    151  N         20.7330   52.4840   66.3850 N.am   92  ALA92      -0.1964
    152  CA        19.5250   51.9980   67.0580 C.3    92  ALA92       0.1728
    153  C         19.5570   50.4810   67.1450 C.2    92  ALA92       0.2616
    154  O         18.5960   49.8390   66.8060 O.2    92  ALA92      -0.2715
    155  CB        18.2770   52.4800   66.3220 C.3    92  ALA92       0.0334
    156  N         20.6480   49.9180   67.6520 N.am   93  ASN93      -0.1972
    157  CA        20.8310   48.4560   67.7140 C.3    93  ASN93       0.1688
    158  C         20.8920   47.9050   69.1570 C.2    93  ASN93       0.2292
    159  O         21.4810   46.8500   69.4170 O.2    93  ASN93      -0.2864
    160  CB        22.0760   48.0600   66.9090 C.3    93  ASN93       0.1181
    161  CG        23.3170   48.8780   67.2760 C.2    93  ASN93       0.2629
    162  OD1       23.3060   49.6970   68.2120 O.2    93  ASN93      -0.2716
    163  ND2       24.4000   48.6540   66.5340 N.am   93  ASN93      -0.0877
    164  N         25.2210   49.4890   73.8940 N.3    96  SER96      -0.1202
    165  CA        25.5290   50.5000   74.8920 C.3    96  SER96       0.2020
    166  C         26.5070   51.4610   74.2620 C.2    96  SER96       0.2619
    167  O         27.5880   51.0580   73.8640 O.2    96  SER96      -0.2717
    168  CB        26.0880   49.8910   76.1790 C.3    96  SER96       0.2103
    169  OG        25.0350   49.5500   77.0670 O.3    96  SER96      -0.2182
    170  N         26.0930   52.7170   74.1500 N.am   97  LEU97      -0.1965
    171  CA        26.8920   53.7620   73.5470 C.3    97  LEU97       0.1728
    172  C         27.3270   54.7570   74.6130 C.2    97  LEU97       0.2617
    173  O         26.5060   55.4830   75.1750 O.2    97  LEU97      -0.2715
    174  CB        26.0720   54.5010   72.4900 C.3    97  LEU97       0.0311
    175  CG        25.2280   53.7080   71.4980 C.3    97  LEU97       0.0022
    176  CD1       24.2830   54.6780   70.7910 C.3    97  LEU97       0.0001
    177  CD2       26.1270   52.9590   70.5280 C.3    97  LEU97       0.0001
    178  N         28.6220   54.8070   74.8780 N.am   98  GLY98      -0.1940
    179  CA        29.1600   55.7590   75.8350 C.3    98  GLY98       0.2014
    180  C         29.1480   57.1330   75.2100 C.2    98  GLY98       0.2639
    181  O         29.5160   57.2850   74.0550 O.2    98  GLY98      -0.2714
    182  N         28.6790   58.1250   75.9500 N.am   99  VAL99      -0.1963
    183  CA        28.6690   59.4730   75.4170 C.3    99  VAL99       0.1727
    184  C         29.3800   60.4790   76.3000 C.2    99  VAL99       0.2616
    185  O         29.6710   61.5810   75.8380 O.2    99  VAL99      -0.2715
    186  CB        27.2300   59.9240   75.0970 C.3    99  VAL99       0.0290
    187  CG1       26.5300   58.8510   74.2870 C.3    99  VAL99       0.0023
    188  CG2       26.4330   60.2070   76.3520 C.3    99  VAL99       0.0023
    189  N         29.6610   60.1290   77.5550 N.am  100  LEU100     -0.1963
    190  CA        30.2770   61.0660   78.4680 C.3   100  LEU100      0.1728
    191  C         30.9130   60.3020   79.6080 C.2   100  LEU100      0.2616
    192  O         30.2830   59.4290   80.1920 O.2   100  LEU100     -0.2715
    193  CB        29.2290   62.0270   79.0120 C.3   100  LEU100      0.0311
    194  CG        29.7830   63.0800   79.9770 C.3   100  LEU100      0.0022
    195  CD1       30.7120   64.0270   79.2410 C.3   100  LEU100      0.0001
    196  CD2       28.6660   63.8710   80.6370 C.3   100  LEU100      0.0001
    197  N         32.1610   60.6220   79.9120 N.am  101  ARG101     -0.1977
    198  CA        32.8480   60.0550   81.0550 C.3   101  ARG101      0.1597
    199  C         33.2390   61.1220   82.0120 C.2   101  ARG101      0.2287
    200  O         33.4030   62.2800   81.6340 O.2   101  ARG101     -0.2864
    201  CB        34.1100   59.3840   80.6340 C.3   101  ARG101      0.0334
    202  CG        33.8470   58.0800   79.9500 C.3   101  ARG101      0.0492
    203  CD        35.1480   57.4880   79.4450 C.3   101  ARG101      0.2205
    204  NE        34.9310   56.0920   79.1110 N.pl3 101  ARG101     -0.0865
    205  CZ        35.5510   55.4120   78.1500 C.cat 101  ARG101      0.5346
    206  NH1       36.5060   55.9800   77.3930 N.pl3 101  ARG101      0.1354
    207  NH2       35.1960   54.1360   77.9480 N.pl3 101  ARG101      0.1354
@<TRIPOS>BOND
     1   127   126    1
     2   118   117    1
     3   117   114    1
     4   126   125    1
     5   112   110   ar
     6   111   110   ar
     7   114   115    1
     8   114   113    1
     9   116   115    2
    10   125   124    1
    11   124   123    1
    12   110   109    1
    13   115   119   am
    14    26    25   ar
    15    26    24   ar
    16   119   120    1
    17    25    23   ar
    18   120   123    1
    19   120   121    1
    20   109   106    1
    21    24    22   ar
    22    35    36   ar
    23    35    33   ar
    24    36    34   ar
    25    23    22   ar
    26    22    21    1
    27   106   107    1
    28   106   105    1
    29   121   128   am
    30   121   122    2
    31   107   108    2
    32    33    32   ar
    33   128   129    1
    34    34    32   ar
    35    21    18    1
    36    32    31    1
    37   132   129    1
    38   105    96   am
    39   129   130    1
    40    97    96    2
    41   131   130    2
    42    20    19    2
    43    96    95    1
    44    18    19    1
    45    18    17    1
    46   130   133   am
    47    31    28    1
    48    99   100    1
    49    99    98    1
    50   100   101    1
    51   136   135    2
    52   103   102    1
    53    95    98    1
    54    95    94    1
    55    76    75    2
    56   133   134    1
    57    28    27    1
    58    28    29    1
    59   145   144    1
    60   145   148    1
    61   145   146    1
    62   155   152    1
    63   151   146   am
    64   151   152    1
    65   149   148    1
    66   149   150    1
    67   101   102    2
    68    92    91    1
    69   135   144   am
    70   135   134    1
    71   163   161   am
    72   144   150    1
    73    94    88   am
    74    90    91    1
    75    90    87    1
    76   154   153    2
    77   102   104    1
    78   160   161    1
    79   160   157    1
    80    89    88    2
    81   146   147    2
    82   134   137    1
    83   152   153    1
    84    88    87    1
    85   153   156   am
    86    75    77   am
    87    75    74    1
    88   161   162    2
    89    91    93    1
    90    29    30    2
    91   156   157    1
    92   157   158    1
    93    87    86    1
    94    73    72    2
    95    71    74    1
    96    71    72    1
    97    71    70    1
    98    66    65    2
    99   137   138    1
   100    72    78   am
   101    70    65   am
   102    65    64    1
   103    67    64    1
   104    67    68    1
   105   158   159    2
   106   138   140   ar
   107   138   139   ar
   108   140   142   ar
   109    64    63    1
   110    78    79    1
   111   139   141   ar
   112    61    59   ar
   113    61    62   ar
   114   142   143   ar
   115    68    69    1
   116    81    80    2
   117    80    79    1
   118   177   175    1
   119    79    82    1
   120    59    58   ar
   121   141   143   ar
   122   176   175    1
   123    62    60   ar
   124    63    69    1
   125    63    55   am
   126   175   174    1
   127    85    83    1
   128    56    55    2
   129    55    54    1
   130    58    60   ar
   131    58    57    1
   132    82    83    1
   133    82    84    1
   134   174   171    1
   135    57    54    1
   136    54    53    1
   137   171   170    1
   138   171   172    1
   139   167   166    2
   140   164   165    1
   141   181   180    2
   142   170   166   am
   143    53    48   am
   144   166   165    1
   145   187   186    1
   146    51    50    1
   147    49    48    2
   148   172   178   am
   149   172   173    2
   150    48    47    1
   151   178   179    1
   152   165   168    1
   153    50    47    1
   154    50    52    1
   155   186   183    1
   156   186   188    1
   157   180   179    1
   158   180   182   am
   159   183   182    1
   160   183   184    1
   161    47    46    1
   162   185   184    2
   163   168   169    1
   164   184   189   am
   165    46    39   am
   166   206   205    1
   167    42    43    1
   168    42    41    1
   169   189   190    1
   170    43    44    1
   171    39    40    2
   172    39    38    1
   173    10     9    1
   174    10    11    2
   175   207   205    1
   176    45    44    1
   177   205   204    2
   178     9    12    1
   179     9     8    1
   180   190   193    1
   181   190   191    1
   182    38    41    1
   183    38    37    1
   184    12    13    1
   185   193   194    1
   186    13    14    1
   187   204   203    1
   188   195   194    1
   189   203   202    1
   190    14    16   ar
   191    14    15   ar
   192   191   197   am
   193   191   192    2
   194   197   198    1
   195   202   201    1
   196   194   196    1
   197     7     5    1
   198   201   198    1
   199   198   199    1
   200   200   199    2
   201     5     6    1
   202     5     2    1
   203     3     2    1
   204     3     4    2
   205     2     1    1
