@<TRIPOS>MOLECULE
tmp/5fjzD00.pdb
 157 154 0 0 0
SMALL
GASTEIGER

@<TRIPOS>ATOM
      1  N         46.6160   16.9810  -14.2780 N.3    33  VAL33      -0.1245
      2  CA        47.1730   15.8930  -15.0280 C.3    33  VAL33       0.1561
      3  C         48.6970   15.9970  -14.9460 C.2    33  VAL33       0.2260
      4  O         49.2790   17.0700  -14.9050 O.2    33  VAL33      -0.2867
      5  CB        46.7250   15.8100  -16.5470 C.3    33  VAL33       0.0252
      6  CG1       47.3160   16.9430  -17.3920 C.3    33  VAL33       0.0019
      7  CG2       47.2590   14.5740  -17.2100 C.3    33  VAL33       0.0019
      8  N         51.7860   14.7110  -16.9490 N.3    35  GLU35      -0.1245
      9  CA        52.2080   14.2010  -18.2780 C.3    35  GLU35       0.1567
     10  C         53.7400   13.9010  -18.2450 C.2    35  GLU35       0.2260
     11  O         54.5050   14.6130  -17.5910 O.2    35  GLU35      -0.2867
     12  CB        51.9590   15.2360  -19.3350 C.3    35  GLU35       0.0388
     13  CG        50.4810   15.3870  -19.6180 C.3    35  GLU35       0.1160
     14  CD        50.2070   16.4150  -20.6770 C.2    35  GLU35       0.3649
     15  OE1       51.1430   17.1100  -21.1500 O.co2  35  GLU35      -0.2457
     16  OE2       49.0260   16.6050  -20.9820 O.co2  35  GLU35      -0.2457
     17  N         43.4500    9.2780  -10.3150 N.3    64  LYS64      -0.1231
     18  CA        43.2110    8.1780  -11.2400 C.3    64  LYS64       0.1693
     19  C         44.4430    7.9820  -12.0640 C.2    64  LYS64       0.2593
     20  O         44.9570    8.9250  -12.6240 O.2    64  LYS64      -0.2718
     21  CB        42.0080    8.5560  -12.0930 C.3    64  LYS64       0.0285
     22  CG        41.4640    7.4520  -12.9590 C.3    64  LYS64       0.0035
     23  CD        40.7290    8.0030  -14.1920 C.3    64  LYS64       0.0206
     24  CE        39.3960    8.6460  -13.7940 C.3    64  LYS64       0.1093
     25  NZ        39.5320   10.0690  -13.3000 N.3    64  LYS64      -0.1314
     26  N         44.9970    6.7810  -12.0120 N.am   65  THR65      -0.1939
     27  CA        46.1230    6.4040  -12.8780 C.3    65  THR65       0.2028
     28  C         45.6560    5.9250  -14.2610 C.2    65  THR65       0.2642
     29  O         44.5370    5.3710  -14.4950 O.2    65  THR65      -0.2714
     30  CB        46.9650    5.2820  -12.2460 C.3    65  THR65       0.1808
     31  OG1       46.0920    4.2000  -11.8740 O.3    65  THR65      -0.2208
     32  CG2       47.7700    5.7430  -11.0480 C.3    65  THR65       0.0379
     33  N         46.5080    6.1330  -15.2310 N.am   66  HIS66      -0.1959
     34  CA        46.2910    5.5980  -16.5310 C.3    66  HIS66       0.1772
     35  C         46.1310    4.0740  -16.4970 C.2    66  HIS66       0.2462
     36  O         46.7860    3.4520  -15.6680 O.2    66  HIS66      -0.2730
     37  CB        47.4770    6.0330  -17.4040 C.3    66  HIS66       0.0785
     38  CG        47.3390    5.6350  -18.8340 C.ar   66  HIS66       0.0821
     39  ND1       47.6250    4.3760  -19.2720 N.ar   66  HIS66      -0.2267
     40  CD2       46.9570    6.3400  -19.9230 C.ar   66  HIS66       0.1154
     41  CE1       47.3990    4.2980  -20.5710 C.ar   66  HIS66       0.1986
     42  NE2       46.9790    5.4730  -20.9920 N.ar   66  HIS66      -0.2212
     43  N         45.2940    3.4610  -17.3730 N.am   67  PRO67      -0.2716
     44  CA        45.1650    1.9850  -17.4060 C.3    67  PRO67       0.1536
     45  C         46.4770    1.1650  -17.4110 C.2    67  PRO67       0.2599
     46  O         46.5540    0.1910  -16.7180 O.2    67  PRO67      -0.2715
     47  CB        44.3830    1.7140  -18.6630 C.3    67  PRO67       0.0310
     48  CG        43.5430    2.9530  -18.8510 C.3    67  PRO67       0.0237
     49  CD        44.3380    4.1000  -18.2720 C.3    67  PRO67       0.0939
     50  N         47.5310    1.6670  -18.0510 N.am   68  ASN68      -0.1959
     51  CA        48.8320    1.0350  -18.0490 C.3    68  ASN68       0.1819
     52  C         49.7490    1.2790  -16.8540 C.2    68  ASN68       0.2621
     53  O         50.8210    0.7190  -16.8080 O.2    68  ASN68      -0.2715
     54  CB        49.6050    1.3900  -19.3120 C.3    68  ASN68       0.1195
     55  CG        48.8530    1.0250  -20.5930 C.2    68  ASN68       0.2630
     56  OD1       48.9350    1.6920  -21.6210 O.2    68  ASN68      -0.2716
     57  ND2       48.1490   -0.0370  -20.5280 N.am   68  ASN68      -0.0877
     58  N         49.3180    2.1000  -15.9100 N.am   69  ILE69      -0.1977
     59  CA        50.1200    2.5170  -14.7920 C.3    69  ILE69       0.1596
     60  C         49.5650    1.6910  -13.6330 C.2    69  ILE69       0.2287
     61  O         48.3380    1.4220  -13.5540 O.2    69  ILE69      -0.2864
     62  CB        49.9550    4.0060  -14.4770 C.3    69  ILE69       0.0276
     63  CG1       50.5660    4.8860  -15.5950 C.3    69  ILE69       0.0022
     64  CG2       50.5440    4.3890  -13.1230 C.3    69  ILE69       0.0022
     65  CD1       52.0530    4.6910  -15.8300 C.3    69  ILE69       0.0001
     66  N         54.8650    1.2720  -14.5980 N.3    82  LEU82      -0.1245
     67  CA        53.9920    0.4790  -15.4340 C.3    82  LEU82       0.1561
     68  C         53.3900   -0.7410  -14.7310 C.2    82  LEU82       0.2260
     69  O         54.0250   -1.3720  -13.9030 O.2    82  LEU82      -0.2867
     70  CB        54.7270    0.0380  -16.7030 C.3    82  LEU82       0.0270
     71  CG        55.0500    1.2690  -17.6220 C.3    82  LEU82       0.0019
     72  CD1       56.0420    0.8690  -18.6880 C.3    82  LEU82       0.0001
     73  CD2       53.8040    1.8290  -18.2620 C.3    82  LEU82       0.0001
     74  N         52.6250   -3.5630  -16.2830 N.3    84  ASP84      -0.1239
     75  CA        53.4670   -4.6630  -16.7970 C.3    84  ASP84       0.1674
     76  C         54.9360   -4.3050  -16.6120 C.2    84  ASP84       0.2266
     77  O         55.4910   -3.4680  -17.3400 O.2    84  ASP84      -0.2867
     78  CB        53.1960   -4.8420  -18.2650 C.3    84  ASP84       0.1410
     79  CG        53.9780   -6.0430  -18.8700 C.2    84  ASP84       0.3668
     80  OD1       55.0500   -6.4350  -18.4470 O.co2  84  ASP84      -0.2456
     81  OD2       53.4850   -6.5620  -19.8150 O.co2  84  ASP84      -0.2456
     82  N         57.6180   -3.8950  -19.5250 N.3    87  LYS87      -0.1231
     83  CA        57.4910   -2.9020  -20.5780 C.3    87  LYS87       0.1693
     84  C         58.1770   -1.5970  -20.1640 C.2    87  LYS87       0.2592
     85  O         58.6490   -1.4600  -19.0530 O.2    87  LYS87      -0.2718
     86  CB        56.0340   -2.7000  -20.9340 C.3    87  LYS87       0.0285
     87  CG        55.3900   -3.8000  -21.8190 C.3    87  LYS87       0.0035
     88  CD        55.2160   -3.3940  -23.2890 C.3    87  LYS87       0.0206
     89  CE        54.3590   -4.3790  -24.0990 C.3    87  LYS87       0.1093
     90  NZ        52.9270   -4.3750  -23.6860 N.3    87  LYS87      -0.1314
     91  N         58.3010   -0.6780  -21.1050 N.am   88  ALA88      -0.1966
     92  CA        58.9800    0.6210  -20.8290 C.3    88  ALA88       0.1728
     93  C         58.0680    1.7040  -21.3810 C.2    88  ALA88       0.2616
     94  O         57.1560    1.4060  -22.1840 O.2    88  ALA88      -0.2715
     95  CB        60.3050    0.6790  -21.5350 C.3    88  ALA88       0.0334
     96  N         58.2840    2.9340  -20.9890 N.am   89  PHE89      -0.1960
     97  CA        57.4870    4.0330  -21.5530 C.3    89  PHE89       0.1756
     98  C         57.8410    4.3120  -22.9850 C.2    89  PHE89       0.2461
     99  O         59.0380    4.3590  -23.3590 O.2    89  PHE89      -0.2730
    100  CB        57.7220    5.3100  -20.7730 C.3    89  PHE89       0.0574
    101  CG        57.1090    5.3090  -19.4190 C.ar   89  PHE89      -0.0200
    102  CD1       55.7340    5.3810  -19.2900 C.ar   89  PHE89      -0.0042
    103  CD2       57.8800    5.2430  -18.2760 C.ar   89  PHE89      -0.0042
    104  CE1       55.1090    5.4100  -18.0470 C.ar   89  PHE89      -0.0003
    105  CE2       57.2740    5.2650  -17.0100 C.ar   89  PHE89      -0.0003
    106  CZ        55.8850    5.3490  -16.9110 C.ar   89  PHE89      -0.0000
    107  N         56.8350    4.5820  -23.7800 N.am   90  PRO90      -0.2727
    108  CA        57.1860    5.1900  -25.0510 C.3    90  PRO90       0.1402
    109  C         58.1850    6.3050  -24.9550 C.2    90  PRO90       0.2269
    110  O         57.9830    7.2290  -24.2190 O.2    90  PRO90      -0.2865
    111  CB        55.8320    5.6360  -25.6070 C.3    90  PRO90       0.0296
    112  CG        54.8150    4.7430  -24.9540 C.3    90  PRO90       0.0237
    113  CD        55.3840    4.5180  -23.5740 C.3    90  PRO90       0.0939
    114  N         53.4940   12.8880  -25.4120 N.3    95  SER95      -0.1202
    115  CA        52.9510   13.2940  -24.1230 C.3    95  SER95       0.2020
    116  C         52.0670   12.1620  -23.5420 C.2    95  SER95       0.2619
    117  O         51.0020   11.8250  -24.0480 O.2    95  SER95      -0.2717
    118  CB        52.1360   14.5890  -24.1890 C.3    95  SER95       0.2103
    119  OG        52.9650   15.6640  -24.7130 O.3    95  SER95      -0.2182
    120  N         52.5220   11.6240  -22.4220 N.am   96  LEU96      -0.1965
    121  CA        51.8620   10.4760  -21.8120 C.3    96  LEU96       0.1728
    122  C         51.1940   11.0040  -20.5090 C.2    96  LEU96       0.2617
    123  O         51.8800   11.2940  -19.5520 O.2    96  LEU96      -0.2715
    124  CB        52.8500    9.3930  -21.5350 C.3    96  LEU96       0.0311
    125  CG        53.7840    8.9620  -22.7010 C.3    96  LEU96       0.0022
    126  CD1       54.8420    7.9860  -22.1530 C.3    96  LEU96       0.0001
    127  CD2       53.0710    8.3770  -23.8800 C.3    96  LEU96       0.0001
    128  N         49.8660   11.0230  -20.4880 N.am   97  GLY97      -0.1940
    129  CA        49.0650   11.3160  -19.2630 C.3    97  GLY97       0.2014
    130  C         49.1200   10.0740  -18.3690 C.2    97  GLY97       0.2639
    131  O         48.6700    8.9910  -18.7650 O.2    97  GLY97      -0.2714
    132  N         49.7530   10.1810  -17.2170 N.am   98  VAL98      -0.1963
    133  CA        49.9120    9.0560  -16.3820 C.3    98  VAL98       0.1727
    134  C         49.0250    9.0970  -15.1370 C.2    98  VAL98       0.2616
    135  O         48.8030    8.0820  -14.4830 O.2    98  VAL98      -0.2715
    136  CB        51.3890    8.7840  -15.9820 C.3    98  VAL98       0.0290
    137  CG1       52.1800    8.4070  -17.2170 C.3    98  VAL98       0.0023
    138  CG2       52.0040    9.9070  -15.2290 C.3    98  VAL98       0.0023
    139  N         48.6490   10.3080  -14.7150 N.am   99  LEU99      -0.1963
    140  CA        47.9070   10.4570  -13.4700 C.3    99  LEU99       0.1728
    141  C         47.0160   11.6820  -13.6250 C.2    99  LEU99       0.2616
    142  O         47.4250   12.7030  -14.2280 O.2    99  LEU99      -0.2715
    143  CB        48.8450   10.6460  -12.2700 C.3    99  LEU99       0.0311
    144  CG        48.2390   10.9160  -10.9140 C.3    99  LEU99       0.0022
    145  CD1       47.6110    9.6420  -10.3800 C.3    99  LEU99       0.0001
    146  CD2       49.2590   11.4120   -9.9180 C.3    99  LEU99       0.0001
    147  N         45.7770   11.5920  -13.1070 N.am  100  ARG100     -0.1977
    148  CA        44.8160   12.7360  -13.1220 C.3   100  ARG100      0.1597
    149  C         44.2120   12.8750  -11.7260 C.2   100  ARG100      0.2287
    150  O         44.1280   11.9580  -10.9740 O.2   100  ARG100     -0.2864
    151  CB        43.6580   12.4870  -14.1040 C.3   100  ARG100      0.0334
    152  CG        44.0530   12.6580  -15.5340 C.3   100  ARG100      0.0492
    153  CD        42.9000   12.1200  -16.3840 C.3   100  ARG100      0.2205
    154  NE        43.0700   12.5260  -17.7750 N.pl3 100  ARG100     -0.0865
    155  CZ        42.3770   12.0140  -18.8020 C.cat 100  ARG100      0.5346
    156  NH1       41.4440   11.0770  -18.6000 N.pl3 100  ARG100      0.1354
    157  NH2       42.6410   12.4230  -20.0320 N.pl3 100  ARG100      0.1354
@<TRIPOS>BOND
     1   111   108    1
     2   111   112    1
     3   114   115    1
     4   108   109    1
     5   108   107    1
     6   109   110    2
     7   112   113    1
     8   119   118    1
     9   118   115    1
    10   115   116    1
    11    89    90    1
    12    89    88    1
    13   117   116    2
    14   127   125    1
    15   107   113    1
    16   107    98   am
    17   116   120   am
    18    99    98    2
    19    88    87    1
    20    98    97    1
    21   125   126    1
    22   125   124    1
    23   120   121    1
    24    94    93    2
    25    87    86    1
    26   121   124    1
    27   121   122    1
    28    56    55    2
    29    97    96    1
    30    97   100    1
    31    95    92    1
    32    93    96   am
    33    93    92    1
    34    15    14   ar
    35    91    92    1
    36    91    84   am
    37    42    41   ar
    38    42    40   ar
    39    16    14   ar
    40    86    83    1
    41   100   101    1
    42    14    13    1
    43    55    57   am
    44    55    54    1
    45    83    84    1
    46    83    82    1
    47    41    39   ar
    48   122   128   am
    49   122   123    2
    50   128   129    1
    51    84    85    2
    52   157   155    1
    53    40    38   ar
    54    81    79   ar
    55    13    12    1
    56   101   102   ar
    57   101   103   ar
    58    12     9    1
    59    54    51    1
    60   102   104   ar
    61    39    38   ar
    62   129   130    1
    63    79    80   ar
    64    79    78    1
    65    48    47    1
    66    48    49    1
    67    38    37    1
    68   155   156    1
    69   155   154    2
    70   131   130    2
    71    72    71    1
    72    47    44    1
    73   130   132   am
    74     9    10    1
    75     9     8    1
    76   103   105   ar
    77    49    43    1
    78    78    75    1
    79    73    71    1
    80    10    11    2
    81    50    51    1
    82    50    45   am
    83    51    52    1
    84   104   106   ar
    85   154   153    1
    86    71    70    1
    87    45    44    1
    88    45    46    2
    89    44    43    1
    90    37    34    1
    91     6     5    1
    92    43    35   am
    93    77    76    2
    94   137   136    1
    95   132   133    1
    96     7     5    1
    97   105   106   ar
    98    52    53    2
    99    52    58   am
   100    75    76    1
   101    75    74    1
   102    70    67    1
   103     5     2    1
   104    34    35    1
   105    34    33    1
   106    35    36    2
   107   153   152    1
   108   133   136    1
   109   133   134    1
   110   136   138    1
   111    58    59    1
   112    65    63    1
   113    63    62    1
   114   152   151    1
   115    67    68    1
   116    67    66    1
   117    33    28   am
   118   134   139   am
   119   134   135    2
   120     2     3    1
   121     2     1    1
   122     3     4    2
   123    59    62    1
   124    59    60    1
   125    68    69    2
   126   139   140    1
   127    29    28    2
   128    62    64    1
   129    28    27    1
   130   142   141    2
   131    23    24    1
   132    23    22    1
   133   151   148    1
   134    24    25    1
   135    60    61    2
   136   141   140    1
   137   141   147   am
   138   140   143    1
   139   148   147    1
   140   148   149    1
   141    22    21    1
   142    27    30    1
   143    27    26    1
   144    20    19    2
   145   143   144    1
   146    30    31    1
   147    30    32    1
   148    21    18    1
   149    19    26   am
   150    19    18    1
   151   149   150    2
   152    18    17    1
   153   144   145    1
   154   144   146    1
