@<TRIPOS>MOLECULE
tmp/5fk7B00.pdb
 199 193 0 0 0
SMALL
GASTEIGER

@<TRIPOS>ATOM
      1  N        -10.3780  -17.7500   16.1720 N.3    36  TRP36      -0.1241
      2  CA        -9.4620  -18.3010   15.2000 C.3    36  TRP36       0.1605
      3  C         -8.1070  -18.6020   15.8300 C.2    36  TRP36       0.2264
      4  O         -7.5480  -17.7540   16.5260 O.2    36  TRP36      -0.2867
      5  CB        -9.2640  -17.3000   14.0440 C.3    36  TRP36       0.0550
      6  CG        -8.1730  -17.7200   13.1290 C.ar   36  TRP36       0.0003
      7  CD1       -6.8600  -17.4220   13.2400 C.ar   36  TRP36       0.0946
      8  CD2       -8.3000  -18.5660   11.9870 C.ar   36  TRP36       0.0152
      9  NE1       -6.1430  -18.0370   12.2450 N.ar   36  TRP36      -0.2442
     10  CE2       -7.0090  -18.7460   11.4590 C.ar   36  TRP36       0.0810
     11  CE3       -9.3800  -19.2020   11.3690 C.ar   36  TRP36       0.0012
     12  CZ2       -6.7670  -19.5220   10.3250 C.ar   36  TRP36       0.0191
     13  CZ3       -9.1350  -19.9850   10.2470 C.ar   36  TRP36       0.0001
     14  CH2       -7.8380  -20.1350    9.7410 C.ar   36  TRP36       0.0015
     15  N         -4.2020  -20.5390   14.3660 N.3    38  ASN38      -0.1225
     16  CA        -3.4510  -21.3690   13.4580 C.3    38  ASN38       0.1785
     17  C         -2.1170  -21.8370   14.0820 C.2    38  ASN38       0.2597
     18  O         -2.1480  -22.5240   15.1170 O.2    38  ASN38      -0.2718
     19  CB        -3.3950  -20.8030   12.0020 C.3    38  ASN38       0.1169
     20  CG        -2.8020  -19.4010   11.8800 C.2    38  ASN38       0.2627
     21  OD1       -3.3650  -18.4150   12.3550 O.2    38  ASN38      -0.2716
     22  ND2       -1.7060  -19.2990   11.1460 N.am   38  ASN38      -0.0877
     23  N         -0.9820  -21.4640   13.5050 N.am   39  ALA39      -0.1979
     24  CA         0.3070  -22.0620   13.8210 C.3    39  ALA39       0.1597
     25  C          0.7420  -21.9280   15.2900 C.2    39  ALA39       0.2287
     26  O          0.6350  -20.8380   15.8700 O.2    39  ALA39      -0.2864
     27  CB         1.3880  -21.4380   12.9480 C.3    39  ALA39       0.0319
     28  N         -0.6760  -18.5380   16.8480 N.3    56  GLN56      -0.1245
     29  CA        -1.3060  -17.5020   16.0240 C.3    56  GLN56       0.1566
     30  C         -2.7850  -17.4610   16.3780 C.2    56  GLN56       0.2260
     31  O         -3.4460  -18.4950   16.3530 O.2    56  GLN56      -0.2867
     32  CB        -1.1130  -17.8130   14.5360 C.3    56  GLN56       0.0367
     33  CG         0.3400  -17.7490   14.0870 C.3    56  GLN56       0.0905
     34  CD         0.8160  -16.3300   13.8540 C.2    56  GLN56       0.2608
     35  OE1        0.6190  -15.7730   12.7720 O.2    56  GLN56      -0.2717
     36  NE2        1.4490  -15.7360   14.8580 N.am   56  GLN56      -0.0878
     37  N         -8.7490  -15.5140    9.8340 N.3    64  TRP64      -0.1241
     38  CA        -7.4540  -14.9370   10.1850 C.3    64  TRP64       0.1605
     39  C         -7.4660  -13.4110   10.0950 C.2    64  TRP64       0.2264
     40  O         -8.1630  -12.8280    9.2610 O.2    64  TRP64      -0.2867
     41  CB        -6.4280  -15.5230    9.2270 C.3    64  TRP64       0.0550
     42  CG        -4.9970  -15.1480    9.3700 C.ar   64  TRP64       0.0003
     43  CD1       -4.0070  -15.8900    9.9720 C.ar   64  TRP64       0.0946
     44  CD2       -4.3500  -14.0260    8.7800 C.ar   64  TRP64       0.0152
     45  NE1       -2.7880  -15.2740    9.8190 N.ar   64  TRP64      -0.2442
     46  CE2       -2.9720  -14.1190    9.1010 C.ar   64  TRP64       0.0810
     47  CE3       -4.8020  -12.9240    8.0310 C.ar   64  TRP64       0.0012
     48  CZ2       -2.0480  -13.1550    8.7060 C.ar   64  TRP64       0.0191
     49  CZ3       -3.8780  -11.9590    7.6410 C.ar   64  TRP64       0.0001
     50  CH2       -2.5150  -12.0870    7.9740 C.ar   64  TRP64       0.0015
     51  N          0.5150   -5.1580   10.6560 N.3   101  ARG101     -0.1245
     52  CA        -0.2470   -6.0360    9.7740 C.3   101  ARG101      0.1563
     53  C         -0.3390   -7.4760   10.3100 C.2   101  ARG101      0.2260
     54  O         -1.1030   -8.2750    9.7790 O.2   101  ARG101     -0.2867
     55  CB         0.3760   -6.0060    8.3670 C.3   101  ARG101      0.0307
     56  CG        -0.4670   -6.6210    7.2620 C.3   101  ARG101      0.0489
     57  CD         0.0660   -7.9620    6.7670 C.3   101  ARG101      0.2205
     58  NE        -0.6000   -8.3130    5.5210 N.pl3 101  ARG101     -0.0865
     59  CZ        -0.3090   -7.7930    4.3250 C.cat 101  ARG101      0.5346
     60  NH1        0.6720   -6.9030    4.1760 N.pl3 101  ARG101      0.1354
     61  NH2       -1.0170   -8.1720    3.2600 N.pl3 101  ARG101      0.1354
     62  N          3.5270  -12.4730   13.1150 N.3   104  PHE104     -0.1227
     63  CA         3.5460  -13.8120   12.4990 C.3   104  PHE104      0.1736
     64  C          4.3760  -14.7450   13.3950 C.2   104  PHE104      0.2595
     65  O          4.7140  -14.3860   14.5250 O.2   104  PHE104     -0.2718
     66  CB         4.1140  -13.7320   11.0610 C.3   104  PHE104      0.0547
     67  CG         3.1270  -13.2890    9.9970 C.ar  104  PHE104     -0.0202
     68  CD1        2.0680  -12.4170   10.2750 C.ar  104  PHE104     -0.0042
     69  CD2        3.3060  -13.7020    8.6760 C.ar  104  PHE104     -0.0042
     70  CE1        1.2020  -12.0010    9.2710 C.ar  104  PHE104     -0.0003
     71  CE2        2.4440  -13.2840    7.6710 C.ar  104  PHE104     -0.0003
     72  CZ         1.3880  -12.4420    7.9690 C.ar  104  PHE104     -0.0000
     73  N          4.6880  -15.9350   12.8900 N.am  105  ASP105     -0.1974
     74  CA         5.4120  -16.9640   13.6240 C.3   105  ASP105      0.1709
     75  C          6.7690  -16.4670   14.1100 C.2   105  ASP105      0.2293
     76  O          7.4080  -15.6220   13.4820 O.2   105  ASP105     -0.2864
     77  CB         5.5680  -18.1870   12.7090 C.3   105  ASP105      0.1436
     78  CG         6.0510  -19.4450   13.4210 C.2   105  ASP105      0.3671
     79  OD1        5.9980  -19.5540   14.6710 O.co2 105  ASP105     -0.2456
     80  OD2        6.4790  -20.3630   12.6750 O.co2 105  ASP105     -0.2456
     81  N          1.3560   -9.4780    0.2320 N.3   129  LEU129     -0.1231
     82  CA         2.0860  -10.4610    1.0170 C.3   129  LEU129      0.1693
     83  C          1.5830  -11.8280    0.6060 C.2   129  LEU129      0.2593
     84  O          0.4090  -12.1490    0.7990 O.2   129  LEU129     -0.2718
     85  CB         1.8580  -10.2260    2.5170 C.3   129  LEU129      0.0284
     86  CG         2.8120  -10.9100    3.5210 C.3   129  LEU129      0.0019
     87  CD1        2.5980  -10.3500    4.9330 C.3   129  LEU129      0.0001
     88  CD2        2.6620  -12.4230    3.5360 C.3   129  LEU129      0.0001
     89  N          2.4720  -12.6260    0.0250 N.am  130  GLY130     -0.1942
     90  CA         2.1190  -13.9700   -0.4100 C.3   130  GLY130      0.2014
     91  C          3.0030  -14.4910   -1.5270 C.2   130  GLY130      0.2638
     92  O          3.5480  -13.7180   -2.3270 O.2   130  GLY130     -0.2714
     93  N          3.1100  -15.8160   -1.5760 N.am  131  ALA131     -0.1977
     94  CA         3.9690  -16.5180   -2.5190 C.3   131  ALA131      0.1597
     95  C          3.5160  -16.3620   -3.9770 C.2   131  ALA131      0.2287
     96  O          4.3460  -16.4570   -4.8860 O.2   131  ALA131     -0.2864
     97  CB         4.0520  -17.9910   -2.1440 C.3   131  ALA131      0.0319
     98  N          9.8350  -15.2870    6.1140 N.3   179  ARG179     -0.1231
     99  CA         9.2070  -15.3730    7.4240 C.3   179  ARG179      0.1694
    100  C          9.5260  -16.6330    8.2100 C.2   179  ARG179      0.2592
    101  O         10.2000  -17.5500    7.7160 O.2   179  ARG179     -0.2718
    102  CB         7.6970  -15.2430    7.2750 C.3   179  ARG179      0.0321
    103  CG         7.0370  -16.2900    6.4020 C.3   179  ARG179      0.0489
    104  CD         5.5240  -16.1990    6.5070 C.3   179  ARG179      0.2205
    105  NE         4.8680  -16.9450    5.4370 N.pl3 179  ARG179     -0.0865
    106  CZ         4.7680  -16.5450    4.1650 C.cat 179  ARG179      0.5346
    107  NH1        5.2690  -15.3790    3.7710 N.pl3 179  ARG179      0.1354
    108  NH2        4.1500  -17.3230    3.2750 N.pl3 179  ARG179      0.1354
    109  N          9.0300  -16.6330    9.4470 N.am  180  ASP180     -0.1974
    110  CA         9.0430  -17.7770   10.3520 C.3   180  ASP180      0.1709
    111  C         10.4700  -18.0990   10.8080 C.2   180  ASP180      0.2293
    112  O         10.9520  -19.2130   10.6000 O.2   180  ASP180     -0.2864
    113  CB         8.3450  -18.9910    9.7210 C.3   180  ASP180      0.1436
    114  CG         6.9510  -18.6650    9.2010 C.2   180  ASP180      0.3671
    115  OD1        6.3900  -17.6320    9.6380 O.co2 180  ASP180     -0.2456
    116  OD2        6.4160  -19.4420    8.3530 O.co2 180  ASP180     -0.2456
    117  N          7.3540  -22.6610    4.5490 N.3   262  GLU262     -0.1231
    118  CA         6.8190  -21.9950    5.7310 C.3   262  GLU262      0.1699
    119  C          7.1530  -22.8140    6.9810 C.2   262  GLU262      0.2592
    120  O          7.3380  -24.0340    6.9090 O.2   262  GLU262     -0.2718
    121  CB         5.3050  -21.8200    5.6160 C.3   262  GLU262      0.0402
    122  CG         4.8840  -21.0920    4.3440 C.3   262  GLU262      0.1161
    123  CD         3.4050  -20.8180    4.2630 C.2   262  GLU262      0.3649
    124  OE1        2.5890  -21.7600    4.3300 O.co2 262  GLU262     -0.2457
    125  OE2        3.0650  -19.6420    4.1210 O.co2 262  GLU262     -0.2457
    126  N          7.2690  -22.1030    8.1010 N.am  263  THR263     -0.1953
    127  CA         7.5080  -22.6690    9.4360 C.3   263  THR263      0.1897
    128  C          8.6100  -23.7320    9.4680 C.2   263  THR263      0.2313
    129  O          8.4550  -24.7530   10.1220 O.2   263  THR263     -0.2863
    130  CB         6.2030  -23.2180   10.0870 C.3   263  THR263      0.1794
    131  OG1        5.8390  -24.4860    9.5110 O.3   263  THR263     -0.2208
    132  CG2        5.0630  -22.2430    9.9290 C.3   263  THR263      0.0378
    133  N          3.9860  -24.8160    0.2100 N.3   293  GLU293     -0.1245
    134  CA         2.7120  -24.4130   -0.3640 C.3   293  GLU293      0.1567
    135  C          2.6890  -24.4370   -1.9000 C.2   293  GLU293      0.2260
    136  O          3.7200  -24.2960   -2.5570 O.2   293  GLU293     -0.2867
    137  CB         2.2810  -23.0440    0.1660 C.3   293  GLU293      0.0388
    138  CG         3.2650  -21.9170   -0.0130 C.3   293  GLU293      0.1160
    139  CD         2.6970  -20.5730    0.4460 C.2   293  GLU293      0.3649
    140  OE1        1.4520  -20.4110    0.4500 O.co2 293  GLU293     -0.2457
    141  OE2        3.5050  -19.6870    0.8130 O.co2 293  GLU293     -0.2457
    142  N         -5.6420  -27.4090    1.5580 N.3   300  GLN300     -0.1245
    143  CA        -5.2730  -25.9780    1.5280 C.3   300  GLN300      0.1566
    144  C         -3.9300  -25.7380    0.8380 C.2   300  GLN300      0.2260
    145  O         -3.1970  -24.8110    1.1790 O.2   300  GLN300     -0.2867
    146  CB        -5.3280  -25.4020    2.9580 C.3   300  GLN300      0.0367
    147  CG        -6.6870  -25.6890    3.6090 C.3   300  GLN300      0.0905
    148  CD        -6.9780  -24.9110    4.8950 C.2   300  GLN300      0.2608
    149  OE1       -8.1420  -24.8310    5.3430 O.2   300  GLN300     -0.2717
    150  NE2       -5.9320  -24.3710    5.5140 N.am  300  GLN300     -0.0878
    151  N         -1.2050  -27.4130    1.0360 N.3   302  HIS302     -0.1241
    152  CA        -0.1390  -27.4420    2.0480 C.3   302  HIS302      0.1621
    153  C          0.3580  -28.8390    2.4190 C.2   302  HIS302      0.2264
    154  O         -0.4340  -29.6820    2.8040 O.2   302  HIS302     -0.2867
    155  CB        -0.6530  -26.7840    3.3310 C.3   302  HIS302      0.0745
    156  CG        -0.6720  -25.2920    3.2900 C.ar  302  HIS302      0.0817
    157  ND1       -1.5670  -24.5440    4.0260 N.ar  302  HIS302     -0.2268
    158  CD2        0.0950  -24.4050    2.6150 C.ar  302  HIS302      0.1154
    159  CE1       -1.3540  -23.2600    3.7980 C.ar  302  HIS302      0.1986
    160  NE2       -0.3500  -23.1480    2.9470 N.ar  302  HIS302     -0.2212
    161  N         -0.6780  -28.7530    9.6000 N.3   335  TYR335     -0.1227
    162  CA         0.3650  -27.9260    9.0070 C.3   335  TYR335      0.1736
    163  C          1.0410  -27.1200   10.1060 C.2   335  TYR335      0.2595
    164  O          0.5790  -27.1230   11.2470 O.2   335  TYR335     -0.2718
    165  CB        -0.2750  -26.9750    7.9880 C.3   335  TYR335      0.0548
    166  CG         0.6610  -26.2680    7.0330 C.ar  335  TYR335     -0.0200
    167  CD1        1.4570  -26.9890    6.1440 C.ar  335  TYR335     -0.0009
    168  CD2        0.7240  -24.8630    6.9850 C.ar  335  TYR335     -0.0009
    169  CE1        2.3030  -26.3430    5.2500 C.ar  335  TYR335      0.0417
    170  CE2        1.5540  -24.2080    6.0840 C.ar  335  TYR335      0.0417
    171  CZ         2.3370  -24.9520    5.2090 C.ar  335  TYR335      0.1957
    172  OH         3.1820  -24.3250    4.3230 O.3   335  TYR335     -0.2866
    173  N          2.1360  -26.4550    9.7550 N.am  336  ALA336     -0.1980
    174  CA         2.7790  -25.4820   10.6140 C.3   336  ALA336      0.1597
    175  C          3.3830  -26.1420   11.8380 C.2   336  ALA336      0.2287
    176  O          3.2020  -25.6820   12.9560 O.2   336  ALA336     -0.2864
    177  CB         1.8110  -24.3560   10.9890 C.3   336  ALA336      0.0319
    178  N         -0.6360  -27.6790   13.8200 N.3   352  TRP352     -0.1241
    179  CA        -1.9850  -27.1080   13.8240 C.3   352  TRP352      0.1605
    180  C         -2.8960  -27.9720   12.9690 C.2   352  TRP352      0.2264
    181  O         -2.5600  -28.2490   11.8290 O.2   352  TRP352     -0.2867
    182  CB        -1.9180  -25.6850   13.2620 C.3   352  TRP352      0.0550
    183  CG        -3.1700  -25.0980   12.6830 C.ar  352  TRP352      0.0003
    184  CD1       -4.3810  -24.9460   13.2920 C.ar  352  TRP352      0.0946
    185  CD2       -3.3040  -24.5220   11.3770 C.ar  352  TRP352      0.0152
    186  NE1       -5.2690  -24.3180   12.4380 N.ar  352  TRP352     -0.2442
    187  CE2       -4.6260  -24.0430   11.2600 C.ar  352  TRP352      0.0810
    188  CE3       -2.4290  -24.3590   10.2980 C.ar  352  TRP352      0.0012
    189  CZ2       -5.0930  -23.4040   10.1070 C.ar  352  TRP352      0.0191
    190  CZ3       -2.8960  -23.7380    9.1460 C.ar  352  TRP352      0.0001
    191  CH2       -4.2190  -23.2680    9.0580 C.ar  352  TRP352      0.0015
    192  N         -6.6270   -6.0450    4.2730 N.3   620  LEU620     -0.1245
    193  CA        -5.6350   -6.9330    4.9070 C.3   620  LEU620      0.1561
    194  C         -6.2480   -8.1720    5.5390 C.2   620  LEU620      0.2260
    195  O         -5.6310   -9.2210    5.5460 O.2   620  LEU620     -0.2867
    196  CB        -4.8410   -6.1590    5.9690 C.3   620  LEU620      0.0270
    197  CG        -4.1220   -4.8960    5.4940 C.3   620  LEU620      0.0019
    198  CD1       -3.5470   -4.1800    6.7080 C.3   620  LEU620      0.0001
    199  CD2       -3.0440   -5.1910    4.4570 C.3   620  LEU620      0.0001
@<TRIPOS>BOND
     1    96    95    2
     2    95    94    1
     3   136   135    2
     4    94    97    1
     5    94    93    1
     6    92    91    2
     7   135   134    1
     8    93    91   am
     9    91    90    1
    10    90    89    1
    11   134   137    1
    12   134   133    1
    13   138   137    1
    14   138   139    1
    15    89    83   am
    16    81    82    1
    17   139   140   ar
    18   139   141   ar
    19    83    84    2
    20    83    82    1
    21   144   145    2
    22   144   143    1
    23    82    85    1
    24   151   152    1
    25   143   142    1
    26   143   146    1
    27   152   153    1
    28   152   155    1
    29   153   154    2
    30    85    86    1
    31   158   160   ar
    32   158   156   ar
    33   160   159   ar
    34   146   147    1
    35    61    59    1
    36   108   106    1
    37   156   155    1
    38   156   157   ar
    39    86    88    1
    40    86    87    1
    41   147   148    1
    42   107   106    1
    43   159   157   ar
    44   125   123   ar
    45   106   105    2
    46    60    59    1
    47   123   124   ar
    48   123   122    1
    49   192   193    1
    50   172   171    1
    51    59    58    2
    52   122   121    1
    53   199   197    1
    54   117   118    1
    55   148   149    2
    56   148   150   am
    57   193   194    1
    58   193   196    1
    59   171   169   ar
    60   171   170   ar
    61   169   167   ar
    62   105   104    1
    63   197   196    1
    64   197   198    1
    65    58    57    1
    66   194   195    2
    67   121   118    1
    68   118   119    1
    69   170   168   ar
    70    98    99    1
    71   167   166   ar
    72   103   104    1
    73   103   102    1
    74    57    56    1
    75   120   119    2
    76   119   126   am
    77   168   166   ar
    78   166   165    1
    79    56    55    1
    80   102    99    1
    81    99   100    1
    82    49    50   ar
    83    49    47   ar
    84    71    72   ar
    85    71    69   ar
    86   101   100    2
    87    72    70   ar
    88    50    48   ar
    89   165   162    1
    90    47    44   ar
    91   126   127    1
    92   100   109   am
    93   116   114   ar
    94    55    52    1
    95    69    67   ar
    96    48    46   ar
    97    44    46   ar
    98    44    42   ar
    99   162   161    1
   100   162   163    1
   101   191   190   ar
   102   191   189   ar
   103    46    45   ar
   104   190   188   ar
   105   114   115   ar
   106   114   113    1
   107    41    42    1
   108    41    38    1
   109    40    39    2
   110    70    68   ar
   111    42    43   ar
   112   127   128    1
   113   127   130    1
   114   109   110    1
   115   128   129    2
   116   131   130    1
   117   113   110    1
   118    14    13   ar
   119    14    12   ar
   120   173   163   am
   121   173   174    1
   122    52    53    1
   123    52    51    1
   124    54    53    2
   125    45    43   ar
   126    37    38    1
   127   132   130    1
   128    67    68   ar
   129    67    66    1
   130    39    38    1
   131   163   164    2
   132   189   187   ar
   133    13    11   ar
   134   188   185   ar
   135    12    10   ar
   136   110   111    1
   137   112   111    2
   138   174   177    1
   139   174   175    1
   140    66    63    1
   141    22    20   am
   142   187   185   ar
   143   187   186   ar
   144    11     8   ar
   145   185   183   ar
   146    10     8   ar
   147    10     9   ar
   148   181   180    2
   149   175   176    2
   150    20    19    1
   151    20    21    2
   152     8     6   ar
   153    19    16    1
   154     9     7   ar
   155   186   184   ar
   156    63    62    1
   157    63    64    1
   158    80    78   ar
   159   183   182    1
   160   183   184   ar
   161    77    78    1
   162    77    74    1
   163    35    34    2
   164    73    64   am
   165    73    74    1
   166    27    24    1
   167   180   179    1
   168     6     7   ar
   169     6     5    1
   170   182   179    1
   171    64    65    2
   172    78    79   ar
   173    16    17    1
   174    16    15    1
   175    76    75    2
   176    23    24    1
   177    23    17   am
   178    74    75    1
   179   178   179    1
   180    24    25    1
   181    34    33    1
   182    34    36   am
   183     5     2    1
   184    17    18    2
   185    33    32    1
   186    32    29    1
   187     2     3    1
   188     2     1    1
   189    25    26    2
   190     3     4    2
   191    29    30    1
   192    29    28    1
   193    31    30    2
