@<TRIPOS>MOLECULE
tmp/5fk8A03.pdb
 210 206 0 0 0
SMALL
GASTEIGER

@<TRIPOS>ATOM
      1  N         12.9530  -15.9820   56.9260 N.3    36  TRP36      -0.1241
      2  CA        12.1110  -16.6450   57.9040 C.3    36  TRP36       0.1605
      3  C         10.8070  -17.1430   57.3020 C.2    36  TRP36       0.2264
      4  O         10.1310  -16.3890   56.6010 O.2    36  TRP36      -0.2867
      5  CB        11.7630  -15.6660   59.0310 C.3    36  TRP36       0.0550
      6  CG        10.7390  -16.2290   59.9680 C.ar   36  TRP36       0.0003
      7  CD1        9.3880  -16.1260   59.8550 C.ar   36  TRP36       0.0946
      8  CD2       10.9880  -17.0470   61.1020 C.ar   36  TRP36       0.0152
      9  NE1        8.7740  -16.8230   60.8530 N.ar   36  TRP36      -0.2442
     10  CE2        9.7330  -17.3960   61.6450 C.ar   36  TRP36       0.0810
     11  CE3       12.1560  -17.5140   61.7330 C.ar   36  TRP36       0.0012
     12  CZ2        9.6070  -18.1910   62.7880 C.ar   36  TRP36       0.0191
     13  CZ3       12.0320  -18.3130   62.8590 C.ar   36  TRP36       0.0001
     14  CH2       10.7650  -18.6420   63.3790 C.ar   36  TRP36       0.0015
     15  N          7.2530  -19.6110   58.7760 N.3    38  ASN38      -0.1225
     16  CA         6.6100  -20.5410   59.6900 C.3    38  ASN38       0.1785
     17  C          5.3500  -21.1920   59.0780 C.2    38  ASN38       0.2597
     18  O          5.4660  -21.8600   58.0520 O.2    38  ASN38      -0.2718
     19  CB         6.4860  -19.9940   61.1500 C.3    38  ASN38       0.1169
     20  CG         5.7220  -18.6880   61.2850 C.2    38  ASN38       0.2627
     21  OD1        6.1130  -17.6530   60.7720 O.2    38  ASN38      -0.2716
     22  ND2        4.6290  -18.7310   62.0420 N.am   38  ASN38      -0.0877
     23  N          4.1790  -21.0320   59.6880 N.am   39  ALA39      -0.1979
     24  CA         2.9890  -21.8290   59.3650 C.3    39  ALA39       0.1597
     25  C          2.5720  -21.7840   57.8990 C.2    39  ALA39       0.2287
     26  O          2.5440  -20.7080   57.3050 O.2    39  ALA39      -0.2864
     27  CB         1.8190  -21.3530   60.2010 C.3    39  ALA39       0.0319
     28  N          3.4980  -18.1920   56.2700 N.3    56  GLN56      -0.1245
     29  CA         3.9320  -17.0750   57.0860 C.3    56  GLN56       0.1566
     30  C          5.4020  -16.8050   56.7290 C.2    56  GLN56       0.2260
     31  O          6.2190  -17.7220   56.7780 O.2    56  GLN56      -0.2867
     32  CB         3.7840  -17.4070   58.5630 C.3    56  GLN56       0.0367
     33  CG         2.3340  -17.5800   59.0200 C.3    56  GLN56       0.0905
     34  CD         1.6470  -16.2530   59.2460 C.2    56  GLN56       0.2608
     35  OE1        1.7770  -15.6690   60.3100 O.2    56  GLN56      -0.2717
     36  NE2        0.9310  -15.7620   58.2420 N.am   56  GLN56      -0.0878
     37  N         10.9840  -13.9600   63.1960 N.3    64  TRP64      -0.1241
     38  CA         9.6140  -13.5740   62.8470 C.3    64  TRP64       0.1605
     39  C          9.3910  -12.0580   62.9060 C.2    64  TRP64       0.2264
     40  O          9.9610  -11.3590   63.7350 O.2    64  TRP64      -0.2867
     41  CB         8.6900  -14.2860   63.8260 C.3    64  TRP64       0.0550
     42  CG         7.2010  -14.1450   63.6920 C.ar   64  TRP64       0.0003
     43  CD1        6.3450  -15.0300   63.1040 C.ar   64  TRP64       0.0946
     44  CD2        6.3870  -13.1210   64.2690 C.ar   64  TRP64       0.0152
     45  NE1        5.0480  -14.5990   63.2380 N.ar   64  TRP64      -0.2442
     46  CE2        5.0430  -13.4350   63.9620 C.ar   64  TRP64       0.0810
     47  CE3        6.6630  -11.9560   65.0030 C.ar   64  TRP64       0.0012
     48  CZ2        3.9830  -12.6370   64.3690 C.ar   64  TRP64       0.0191
     49  CZ3        5.5990  -11.1610   65.4150 C.ar   64  TRP64       0.0001
     50  CH2        4.2740  -11.5150   65.1080 C.ar   64  TRP64       0.0015
     51  N          0.2580   -5.1720   62.3290 N.3   101  ARG101     -0.1245
     52  CA         1.1480   -5.9050   63.2200 C.3   101  ARG101      0.1563
     53  C          1.4540   -7.3090   62.7070 C.2   101  ARG101      0.2260
     54  O          2.3230   -7.9830   63.2470 O.2   101  ARG101     -0.2867
     55  CB         0.5530   -5.9330   64.6270 C.3   101  ARG101      0.0307
     56  CG         1.4810   -6.4280   65.7230 C.3   101  ARG101      0.0489
     57  CD         1.1390   -7.8120   66.2260 C.3   101  ARG101      0.2205
     58  NE         1.8670   -8.0730   67.4710 N.pl3 101  ARG101     -0.0865
     59  CZ         1.5070   -7.6230   68.6720 C.cat 101  ARG101      0.5346
     60  NH1        0.4010   -6.8860   68.8440 N.pl3 101  ARG101      0.1354
     61  NH2        2.2680   -7.8980   69.7210 N.pl3 101  ARG101      0.1354
     62  N         -1.5590  -12.8390   59.9440 N.3   104  PHE104     -0.1227
     63  CA        -1.4130  -14.1600   60.5610 C.3   104  PHE104      0.1736
     64  C         -2.1040  -15.2210   59.6740 C.2   104  PHE104      0.2595
     65  O         -2.5310  -14.9270   58.5410 O.2   104  PHE104     -0.2718
     66  CB        -2.0000  -14.1500   61.9880 C.3   104  PHE104      0.0547
     67  CG        -1.0940  -13.5910   63.0620 C.ar  104  PHE104     -0.0202
     68  CD1       -0.1820  -12.5750   62.8090 C.ar  104  PHE104     -0.0042
     69  CD2       -1.2330  -14.0390   64.3670 C.ar  104  PHE104     -0.0042
     70  CE1        0.5900  -12.0380   63.8220 C.ar  104  PHE104     -0.0003
     71  CE2       -0.4470  -13.5130   65.3930 C.ar  104  PHE104     -0.0003
     72  CZ         0.4630  -12.5110   65.1170 C.ar  104  PHE104     -0.0000
     73  N         -2.1970  -16.4500   60.1740 N.am  105  ASP105     -0.1974
     74  CA        -2.7590  -17.5850   59.4410 C.3   105  ASP105      0.1709
     75  C         -4.1900  -17.2960   58.9680 C.2   105  ASP105      0.2293
     76  O         -4.9170  -16.5260   59.5890 O.2   105  ASP105     -0.2864
     77  CB        -2.7370  -18.8100   60.3540 C.3   105  ASP105      0.1436
     78  CG        -3.1180  -20.1160   59.6690 C.2   105  ASP105      0.3671
     79  OD1       -3.0130  -20.2760   58.4350 O.co2 105  ASP105     -0.2456
     80  OD2       -3.5190  -21.0300   60.4360 O.co2 105  ASP105     -0.2456
     81  N          0.0730   -9.5030   72.7360 N.3   129  LEU129     -0.1231
     82  CA        -0.5080  -10.5720   71.9360 C.3   129  LEU129      0.1693
     83  C          0.1630  -11.8780   72.3280 C.2   129  LEU129      0.2593
     84  O          1.3260  -12.1190   71.9920 O.2   129  LEU129     -0.2718
     85  CB        -0.3330  -10.2810   70.4370 C.3   129  LEU129      0.0284
     86  CG        -1.2840  -11.0020   69.4630 C.3   129  LEU129      0.0019
     87  CD1       -1.1100  -10.4420   68.0590 C.3   129  LEU129      0.0001
     88  CD2       -1.0740  -12.5030   69.4530 C.3   129  LEU129      0.0001
     89  N         -0.5610  -12.7110   73.0630 N.am  130  GLY130     -0.1942
     90  CA        -0.0240  -14.0070   73.4660 C.3   130  GLY130      0.2014
     91  C         -0.8190  -14.6370   74.5810 C.2   130  GLY130      0.2638
     92  O         -1.4430  -13.9350   75.3850 O.2   130  GLY130     -0.2714
     93  N         -0.7630  -15.9640   74.6280 N.am  131  ALA131     -0.1977
     94  CA        -1.4940  -16.7580   75.6040 C.3   131  ALA131      0.1597
     95  C         -1.0680  -16.5190   77.0500 C.2   131  ALA131      0.2287
     96  O         -1.8840  -16.7020   77.9510 O.2   131  ALA131     -0.2864
     97  CB        -1.3720  -18.2340   75.2620 C.3   131  ALA131      0.0319
     98  N         -7.4800  -16.5190   66.9510 N.3   179  ARG179     -0.1231
     99  CA        -6.8180  -16.5130   65.6480 C.3   179  ARG179      0.1694
    100  C         -6.9460  -17.8010   64.8600 C.2   179  ARG179      0.2592
    101  O         -7.4970  -18.8010   65.3450 O.2   179  ARG179     -0.2718
    102  CB        -5.3230  -16.1420   65.8040 C.3   179  ARG179      0.0321
    103  CG        -4.4870  -17.0620   66.6900 C.3   179  ARG179      0.0489
    104  CD        -2.9870  -16.7360   66.5910 C.3   179  ARG179      0.2205
    105  NE        -2.2280  -17.3550   67.6770 N.pl3 179  ARG179     -0.0865
    106  CZ        -2.2070  -16.9310   68.9470 C.cat 179  ARG179      0.5346
    107  NH1       -2.8870  -15.8550   69.3230 N.pl3 179  ARG179      0.1354
    108  NH2       -1.5170  -17.6030   69.8600 N.pl3 179  ARG179      0.1354
    109  N         -6.4390  -17.7410   63.6300 N.am  180  ASP180     -0.1974
    110  CA        -6.2630  -18.8910   62.7520 C.3   180  ASP180      0.1709
    111  C         -7.6030  -19.4400   62.2700 C.2   180  ASP180      0.2293
    112  O         -7.9030  -20.6240   62.4750 O.2   180  ASP180     -0.2864
    113  CB        -5.4020  -19.9720   63.4170 C.3   180  ASP180      0.1436
    114  CG        -4.0580  -19.4320   63.9190 C.2   180  ASP180      0.3671
    115  OD1       -3.6610  -18.3280   63.4940 O.co2 180  ASP180     -0.2456
    116  OD2       -3.4360  -20.1070   64.7670 O.co2 180  ASP180     -0.2456
    117  N         -3.8380  -23.3310   68.6130 N.3   262  GLU262     -0.1231
    118  CA        -3.4280  -22.5990   67.4220 C.3   262  GLU262      0.1699
    119  C         -3.6490  -23.4820   66.1920 C.2   262  GLU262      0.2592
    120  O         -3.6010  -24.7080   66.2790 O.2   262  GLU262     -0.2718
    121  CB        -1.9540  -22.1680   67.5260 C.3   262  GLU262      0.0402
    122  CG        -1.6520  -21.2780   68.7340 C.3   262  GLU262      0.1161
    123  CD        -0.1940  -20.8700   68.8220 C.2   262  GLU262      0.3649
    124  OE1        0.6670  -21.7640   68.8810 O.co2 262  GLU262     -0.2457
    125  OE2        0.0850  -19.6510   68.8650 O.co2 262  GLU262     -0.2457
    126  N         -3.8830  -22.8290   65.0550 N.am  263  THR263     -0.1953
    127  CA        -4.0130  -23.4510   63.7360 C.3   263  THR263      0.1897
    128  C         -4.9210  -24.6820   63.7170 C.2   263  THR263      0.2313
    129  O         -4.6120  -25.6580   63.0500 O.2   263  THR263     -0.2863
    130  CB        -2.6320  -23.7600   63.0640 C.3   263  THR263      0.1794
    131  OG1       -1.9940  -24.8770   63.6890 O.3   263  THR263     -0.2208
    132  CG2       -1.6970  -22.5590   63.1320 C.3   263  THR263      0.0378
    133  N         -0.2100  -24.9210   72.9960 N.3   293  GLU293     -0.1245
    134  CA         0.9670  -24.3040   73.5610 C.3   293  GLU293      0.1567
    135  C          0.9910  -24.3260   75.0890 C.2   293  GLU293      0.2260
    136  O         -0.0500  -24.3880   75.7530 O.2   293  GLU293     -0.2867
    137  CB         1.1710  -22.8910   73.0200 C.3   293  GLU293      0.0388
    138  CG        -0.0040  -21.9510   73.1080 C.3   293  GLU293      0.1160
    139  CD         0.3390  -20.5450   72.6040 C.2   293  GLU293      0.3649
    140  OE1        1.5220  -20.1420   72.6860 O.co2 293  GLU293     -0.2457
    141  OE2       -0.5760  -19.8270   72.1620 O.co2 293  GLU293     -0.2457
    142  N          5.3100  -26.7390   72.1740 N.3   302  HIS302     -0.1241
    143  CA         4.2620  -26.9400   71.1590 C.3   302  HIS302      0.1621
    144  C          3.9810  -28.4010   70.8260 C.2   302  HIS302      0.2264
    145  O          4.9030  -29.1410   70.4870 O.2   302  HIS302     -0.2867
    146  CB         4.6800  -26.2540   69.8620 C.3   302  HIS302      0.0745
    147  CG         4.5410  -24.7710   69.8860 C.ar  302  HIS302      0.0817
    148  ND1        5.3590  -23.9360   69.1550 N.ar  302  HIS302     -0.2268
    149  CD2        3.6750  -23.9690   70.5510 C.ar  302  HIS302      0.1154
    150  CE1        5.0040  -22.6820   69.3670 C.ar  302  HIS302      0.1986
    151  NE2        3.9810  -22.6740   70.2060 N.ar  302  HIS302     -0.2212
    152  N          5.0050  -28.2380   63.6670 N.3   335  TYR335     -0.1227
    153  CA         3.8580  -27.5660   64.2550 C.3   335  TYR335      0.1736
    154  C          3.0680  -26.9120   63.1290 C.2   335  TYR335      0.2595
    155  O          3.5340  -26.8560   61.9860 O.2   335  TYR335     -0.2718
    156  CB         4.3380  -26.5010   65.2330 C.3   335  TYR335      0.0548
    157  CG         3.3050  -25.9410   66.1900 C.ar  335  TYR335     -0.0200
    158  CD1        2.5940  -26.7680   67.0480 C.ar  335  TYR335     -0.0009
    159  CD2        3.0660  -24.5630   66.2590 C.ar  335  TYR335     -0.0009
    160  CE1        1.6720  -26.2530   67.9480 C.ar  335  TYR335      0.0417
    161  CE2        2.1470  -24.0400   67.1470 C.ar  335  TYR335      0.0417
    162  CZ         1.4510  -24.8840   67.9940 C.ar  335  TYR335      0.1957
    163  OH         0.5420  -24.3740   68.8850 O.3   335  TYR335     -0.2866
    164  N          1.8830  -26.4220   63.4670 N.am  336  ALA336     -0.1980
    165  CA         1.0890  -25.5790   62.5740 C.3   336  ALA336      0.1597
    166  C          0.6340  -26.3570   61.3450 C.2   336  ALA336      0.2287
    167  O          0.7130  -25.8770   60.2270 O.2   336  ALA336     -0.2864
    168  CB         1.8400  -24.3100   62.1960 C.3   336  ALA336      0.0319
    169  N          4.8470  -27.2230   59.3800 N.3   352  TRP352     -0.1241
    170  CA         6.0920  -26.4700   59.3660 C.3   352  TRP352      0.1605
    171  C          7.0940  -27.1690   60.2690 C.2   352  TRP352      0.2264
    172  O          6.7620  -27.4900   61.4110 O.2   352  TRP352     -0.2867
    173  CB         5.8120  -25.0540   59.8600 C.3   352  TRP352      0.0550
    174  CG         6.9540  -24.2710   60.4680 C.ar  352  TRP352      0.0003
    175  CD1        8.1100  -23.8730   59.8490 C.ar  352  TRP352      0.0946
    176  CD2        6.9950  -23.7280   61.7820 C.ar  352  TRP352      0.0152
    177  NE1        8.8770  -23.1360   60.7140 N.ar  352  TRP352     -0.2442
    178  CE2        8.2110  -23.0210   61.9050 C.ar  352  TRP352      0.0810
    179  CE3        6.1160  -23.7580   62.8710 C.ar  352  TRP352      0.0012
    180  CZ2        8.5750  -22.3660   63.0740 C.ar  352  TRP352      0.0191
    181  CZ3        6.4830  -23.1070   64.0410 C.ar  352  TRP352      0.0001
    182  CH2        7.7040  -22.4210   64.1330 C.ar  352  TRP352      0.0015
    183  N          8.5640   -2.6410   69.7860 N.3   619  GLY619     -0.1210
    184  CA         8.4780   -3.8430   70.6170 C.3   619  GLY619      0.1956
    185  C          7.6780   -5.0020   70.0220 C.2   619  GLY619      0.2612
    186  O          7.3160   -5.9350   70.7350 O.2   619  GLY619     -0.2717
    187  N          7.4150   -4.9590   68.7230 N.am  620  LEU620     -0.1965
    188  CA         6.5730   -5.9560   68.0690 C.3   620  LEU620      0.1728
    189  C          7.3750   -7.0890   67.4600 C.2   620  LEU620      0.2616
    190  O          6.9490   -8.2510   67.5070 O.2   620  LEU620     -0.2715
    191  CB         5.7300   -5.2810   66.9870 C.3   620  LEU620      0.0311
    192  CG         4.8260   -4.1430   67.4670 C.3   620  LEU620      0.0022
    193  CD1        4.1050   -3.5330   66.2770 C.3   620  LEU620      0.0001
    194  CD2        3.8260   -4.6180   68.5120 C.3   620  LEU620      0.0001
    195  N          8.5150   -6.7390   66.8620 N.am  621  PHE621     -0.1960
    196  CA         9.3480   -7.6580   66.1060 C.3   621  PHE621      0.1771
    197  C         10.7910   -7.5700   66.6130 C.2   621  PHE621      0.2619
    198  O         11.2490   -6.4830   66.9860 O.2   621  PHE621     -0.2715
    199  CB         9.3410   -7.2890   64.6180 C.3   621  PHE621      0.0574
    200  CG         7.9810   -6.9130   64.0680 C.ar  621  PHE621     -0.0200
    201  CD1        6.8520   -7.6870   64.3420 C.ar  621  PHE621     -0.0042
    202  CD2        7.8350   -5.7910   63.2570 C.ar  621  PHE621     -0.0042
    203  CE1        5.6100   -7.3330   63.8430 C.ar  621  PHE621     -0.0003
    204  CE2        6.5920   -5.4420   62.7380 C.ar  621  PHE621     -0.0003
    205  CZ         5.4810   -6.2170   63.0340 C.ar  621  PHE621     -0.0000
    206  N         11.5130   -8.6850   66.5810 N.am  622  ALA622     -0.1977
    207  CA        12.9240   -8.6860   66.9610 C.3   622  ALA622      0.1597
    208  C         13.7180   -7.6450   66.1710 C.2   622  ALA622      0.2287
    209  O         14.5460   -6.9360   66.7400 O.2   622  ALA622     -0.2864
    210  CB        13.5310  -10.0640   66.7900 C.3   622  ALA622      0.0319
@<TRIPOS>BOND
     1    28    29    1
     2     4     3    2
     3    30    31    2
     4    30    29    1
     5     1     2    1
     6    29    32    1
     7     3     2    1
     8    26    25    2
     9    25    24    1
    10     2     5    1
    11    18    17    2
    12    36    34   am
    13    79    78   ar
    14    65    64    2
    15    32    33    1
    16    15    16    1
    17    75    74    1
    18    75    76    2
    19    33    34    1
    20     5     6    1
    21    17    23   am
    22    17    16    1
    23    34    35    2
    24    24    23    1
    25    24    27    1
    26   170   169    1
    27   170   173    1
    28   170   171    1
    29    74    73    1
    30    74    77    1
    31    78    77    1
    32    78    80   ar
    33    64    73   am
    34    64    63    1
    35    16    19    1
    36   175   174   ar
    37   175   177   ar
    38     7     6   ar
    39     7     9   ar
    40   173   174    1
    41    62    63    1
    42     6     8   ar
    43   167   166    2
    44   171   172    2
    45   174   176   ar
    46    63    66    1
    47   177   178   ar
    48    21    20    2
    49     9    10   ar
    50     8    10   ar
    51     8    11   ar
    52    19    20    1
    53    20    22   am
    54   166   165    1
    55    10    12   ar
    56    11    13   ar
    57   176   178   ar
    58   176   179   ar
    59   178   180   ar
    60   155   154    2
    61    66    67    1
    62   168   165    1
    63   111   112    2
    64   111   110    1
    65    51    52    1
    66   165   164    1
    67    53    52    1
    68    53    54    2
    69   204   205   ar
    70   204   202   ar
    71   110   113    1
    72   110   109    1
    73    12    14   ar
    74    68    67   ar
    75    68    70   ar
    76    38    39    1
    77    38    37    1
    78    38    41    1
    79    13    14   ar
    80   179   181   ar
    81    39    40    2
    82   205   203   ar
    83   129   128    2
    84    67    69   ar
    85   130   132    1
    86   130   131    1
    87   130   127    1
    88   180   182   ar
    89    43    45   ar
    90    43    42   ar
    91   154   164   am
    92   154   153    1
    93    52    55    1
    94    45    46   ar
    95   202   200   ar
    96   113   114    1
    97   115   114   ar
    98   109   100   am
    99   152   153    1
   100    42    41    1
   101    42    44   ar
   102   128   127    1
   103   127   126    1
   104    70    72   ar
   105   203   201   ar
   106   114   116   ar
   107    46    44   ar
   108    46    48   ar
   109   181   182   ar
   110   200   201   ar
   111   200   199    1
   112   153   156    1
   113    44    47   ar
   114    69    71   ar
   115    48    50   ar
   116   199   196    1
   117    55    56    1
   118   100   101    2
   119   100    99    1
   120    47    49   ar
   121   126   119   am
   122    50    49   ar
   123    72    71   ar
   124   156   157    1
   125    99   102    1
   126    99    98    1
   127    56    57    1
   128   102   103    1
   129   196   197    1
   130   196   195    1
   131   208   209    2
   132   208   207    1
   133   157   159   ar
   134   157   158   ar
   135   119   120    2
   136   119   118    1
   137    57    58    1
   138   159   161   ar
   139   193   192    1
   140   206   197   am
   141   206   207    1
   142   104   103    1
   143   104   105    1
   144   197   198    2
   145   210   207    1
   146   195   189   am
   147   191   192    1
   148   191   188    1
   149   158   160   ar
   150   161   162   ar
   151   118   121    1
   152   118   117    1
   153   189   190    2
   154   189   188    1
   155   192   194    1
   156    58    59    2
   157   121   122    1
   158   105   106    2
   159   160   162   ar
   160   162   163    1
   161    87    86    1
   162   188   187    1
   163    59    60    1
   164    59    61    1
   165   187   185   am
   166   122   123    1
   167   123   125   ar
   168   123   124   ar
   169   106   107    1
   170   106   108    1
   171   148   150   ar
   172   148   147   ar
   173   150   151   ar
   174    88    86    1
   175    86    85    1
   176   183   184    1
   177   146   147    1
   178   146   143    1
   179   147   149   ar
   180   185   184    1
   181   185   186    2
   182   151   149   ar
   183    85    82    1
   184   145   144    2
   185   144   143    1
   186   143   142    1
   187    82    83    1
   188    82    81    1
   189    84    83    2
   190   141   139   ar
   191    83    89   am
   192   139   140   ar
   193   139   138    1
   194   133   134    1
   195   137   138    1
   196   137   134    1
   197    89    90    1
   198    90    91    1
   199   134   135    1
   200    91    93   am
   201    91    92    2
   202    93    94    1
   203   135   136    2
   204    97    94    1
   205    94    95    1
   206    95    96    2
