@<TRIPOS>MOLECULE
tmp/5fkbB08.pdb
 199 193 0 0 0
SMALL
GASTEIGER

@<TRIPOS>ATOM
      1  N        -10.3980  -17.6900   16.2560 N.3    36  TRP36      -0.1241
      2  CA        -9.4800  -18.2360   15.2680 C.3    36  TRP36       0.1605
      3  C         -8.1220  -18.5190   15.8850 C.2    36  TRP36       0.2264
      4  O         -7.5770  -17.6690   16.5800 O.2    36  TRP36      -0.2867
      5  CB        -9.2890  -17.2450   14.1100 C.3    36  TRP36       0.0550
      6  CG        -8.1900  -17.6550   13.1990 C.ar   36  TRP36       0.0003
      7  CD1       -6.8690  -17.3410   13.3180 C.ar   36  TRP36       0.0946
      8  CD2       -8.3000  -18.5050   12.0590 C.ar   36  TRP36       0.0152
      9  NE1       -6.1510  -17.9310   12.3180 N.ar   36  TRP36      -0.2442
     10  CE2       -7.0040  -18.6570   11.5290 C.ar   36  TRP36       0.0810
     11  CE3       -9.3730  -19.1570   11.4300 C.ar   36  TRP36       0.0012
     12  CZ2       -6.7440  -19.4320   10.3940 C.ar   36  TRP36       0.0191
     13  CZ3       -9.1160  -19.9310   10.3070 C.ar   36  TRP36       0.0001
     14  CH2       -7.8150  -20.0580    9.7980 C.ar   36  TRP36       0.0015
     15  N         -4.2330  -20.4930   14.4770 N.3    38  ASN38      -0.1225
     16  CA        -3.4820  -21.3230   13.5410 C.3    38  ASN38       0.1785
     17  C         -2.1450  -21.8010   14.1350 C.2    38  ASN38       0.2597
     18  O         -2.1760  -22.5240   15.1410 O.2    38  ASN38      -0.2718
     19  CB        -3.4470  -20.7580   12.0870 C.3    38  ASN38       0.1169
     20  CG        -2.8330  -19.3680   11.9570 C.2    38  ASN38       0.2627
     21  OD1       -3.3650  -18.3800   12.4570 O.2    38  ASN38      -0.2716
     22  ND2       -1.7450  -19.2800   11.2010 N.am   38  ASN38      -0.0877
     23  N         -1.0060  -21.3940   13.5790 N.am   39  ALA39      -0.1979
     24  CA         0.2760  -22.0210   13.8680 C.3    39  ALA39       0.1597
     25  C          0.6960  -21.9050   15.3360 C.2    39  ALA39       0.2287
     26  O          0.5900  -20.8190   15.9120 O.2    39  ALA39      -0.2864
     27  CB         1.3530  -21.3880   13.0110 C.3    39  ALA39       0.0319
     28  N         -0.7250  -18.4850   16.9130 N.3    56  GLN56      -0.1245
     29  CA        -1.3310  -17.4570   16.0810 C.3    56  GLN56       0.1566
     30  C         -2.8160  -17.4050   16.4080 C.2    56  GLN56       0.2260
     31  O         -3.4950  -18.4270   16.3530 O.2    56  GLN56      -0.2867
     32  CB        -1.0900  -17.7820   14.6040 C.3    56  GLN56       0.0367
     33  CG         0.3710  -17.7050   14.1970 C.3    56  GLN56       0.0905
     34  CD         0.8250  -16.2880   13.9480 C.2    56  GLN56       0.2608
     35  OE1        0.5660  -15.7330   12.8790 O.2    56  GLN56      -0.2717
     36  NE2        1.4890  -15.6790   14.9340 N.am   56  GLN56      -0.0878
     37  N         -8.7390  -15.5190    9.8750 N.3    64  TRP64      -0.1241
     38  CA        -7.4410  -14.9370   10.2160 C.3    64  TRP64       0.1605
     39  C         -7.4330  -13.4080   10.1350 C.2    64  TRP64       0.2264
     40  O         -8.1630  -12.8050    9.3400 O.2    64  TRP64      -0.2867
     41  CB        -6.4280  -15.5280    9.2420 C.3    64  TRP64       0.0550
     42  CG        -5.0010  -15.1550    9.3630 C.ar   64  TRP64       0.0003
     43  CD1       -4.0150  -15.8760    9.9880 C.ar   64  TRP64       0.0946
     44  CD2       -4.3520  -14.0400    8.7480 C.ar   64  TRP64       0.0152
     45  NE1       -2.8050  -15.2550    9.8310 N.ar   64  TRP64      -0.2442
     46  CE2       -2.9820  -14.1260    9.0720 C.ar   64  TRP64       0.0810
     47  CE3       -4.7950  -12.9660    7.9550 C.ar   64  TRP64       0.0012
     48  CZ2       -2.0540  -13.1790    8.6470 C.ar   64  TRP64       0.0191
     49  CZ3       -3.8670  -12.0220    7.5280 C.ar   64  TRP64       0.0001
     50  CH2       -2.5130  -12.1360    7.8740 C.ar   64  TRP64       0.0015
     51  N          0.5040   -5.1450   10.6760 N.3   101  ARG101     -0.1245
     52  CA        -0.2590   -6.0210    9.8050 C.3   101  ARG101      0.1563
     53  C         -0.3530   -7.4570   10.3370 C.2   101  ARG101      0.2260
     54  O         -1.0950   -8.2650    9.7910 O.2   101  ARG101     -0.2867
     55  CB         0.3620   -5.9790    8.3990 C.3   101  ARG101      0.0307
     56  CG        -0.4910   -6.5830    7.2950 C.3   101  ARG101      0.0489
     57  CD         0.0420   -7.9200    6.7890 C.3   101  ARG101      0.2205
     58  NE        -0.6280   -8.2750    5.5450 N.pl3 101  ARG101     -0.0865
     59  CZ        -0.3420   -7.7620    4.3470 C.cat 101  ARG101      0.5346
     60  NH1        0.6370   -6.8730    4.1920 N.pl3 101  ARG101      0.1354
     61  NH2       -1.0470   -8.1570    3.2850 N.pl3 101  ARG101      0.1354
     62  N          3.4560  -12.4590   13.1670 N.3   104  PHE104     -0.1227
     63  CA         3.4840  -13.7940   12.5740 C.3   104  PHE104      0.1736
     64  C          4.3100  -14.7310   13.4690 C.2   104  PHE104      0.2595
     65  O          4.6950  -14.3730   14.5810 O.2   104  PHE104     -0.2718
     66  CB         4.0710  -13.7190   11.1450 C.3   104  PHE104      0.0547
     67  CG         3.1000  -13.2840   10.0690 C.ar  104  PHE104     -0.0202
     68  CD1        2.0530  -12.3910   10.3200 C.ar  104  PHE104     -0.0042
     69  CD2        3.2910  -13.7230    8.7570 C.ar  104  PHE104     -0.0042
     70  CE1        1.2050  -11.9810    9.2980 C.ar  104  PHE104     -0.0003
     71  CE2        2.4450  -13.3140    7.7350 C.ar  104  PHE104     -0.0003
     72  CZ         1.3970  -12.4490    8.0050 C.ar  104  PHE104     -0.0000
     73  N          4.5720  -15.9390   12.9800 N.am  105  ASP105     -0.1974
     74  CA         5.3140  -16.9600   13.7110 C.3   105  ASP105      0.1709
     75  C          6.6810  -16.4540   14.1780 C.2   105  ASP105      0.2293
     76  O          7.3000  -15.5960   13.5500 O.2   105  ASP105     -0.2864
     77  CB         5.4590  -18.1850   12.7910 C.3   105  ASP105      0.1436
     78  CG         6.0190  -19.4220   13.4760 C.2   105  ASP105      0.3671
     79  OD1        6.0150  -19.5530   14.7230 O.co2 105  ASP105     -0.2456
     80  OD2        6.4660  -20.3120   12.7040 O.co2 105  ASP105     -0.2456
     81  N          1.3290   -9.3790    0.2870 N.3   129  LEU129     -0.1231
     82  CA         2.0580  -10.3710    1.0690 C.3   129  LEU129      0.1693
     83  C          1.5670  -11.7490    0.6570 C.2   129  LEU129      0.2593
     84  O          0.3970  -12.0880    0.8530 O.2   129  LEU129     -0.2718
     85  CB         1.8380  -10.1320    2.5710 C.3   129  LEU129      0.0284
     86  CG         2.7660  -10.8300    3.5790 C.3   129  LEU129      0.0019
     87  CD1        2.5400  -10.2530    4.9770 C.3   129  LEU129      0.0001
     88  CD2        2.5700  -12.3390    3.5950 C.3   129  LEU129      0.0001
     89  N          2.4590  -12.5330    0.0640 N.am  130  GLY130     -0.1942
     90  CA         2.1150  -13.8900   -0.3290 C.3   130  GLY130      0.2014
     91  C          2.9760  -14.4190   -1.4520 C.2   130  GLY130      0.2638
     92  O          3.4990  -13.6500   -2.2680 O.2   130  GLY130     -0.2714
     93  N          3.0930  -15.7450   -1.4910 N.am  131  ALA131     -0.1977
     94  CA         3.9200  -16.4420   -2.4690 C.3   131  ALA131      0.1597
     95  C          3.4200  -16.2870   -3.9080 C.2   131  ALA131      0.2287
     96  O          4.2250  -16.3910   -4.8370 O.2   131  ALA131     -0.2864
     97  CB         4.0380  -17.9170   -2.0990 C.3   131  ALA131      0.0319
     98  N          9.7730  -15.2860    6.1660 N.3   179  ARG179     -0.1231
     99  CA         9.1290  -15.3670    7.4700 C.3   179  ARG179      0.1694
    100  C          9.4560  -16.6250    8.2610 C.2   179  ARG179      0.2592
    101  O         10.1400  -17.5400    7.7790 O.2   179  ARG179     -0.2718
    102  CB         7.6110  -15.2150    7.3170 C.3   179  ARG179      0.0321
    103  CG         6.9210  -16.2470    6.4330 C.3   179  ARG179      0.0489
    104  CD         5.4080  -16.1940    6.5850 C.3   179  ARG179      0.2205
    105  NE         4.7410  -16.9600    5.5250 N.pl3 179  ARG179     -0.0865
    106  CZ         4.5880  -16.5500    4.2580 C.cat 179  ARG179      0.5346
    107  NH1        5.0330  -15.3600    3.8580 N.pl3 179  ARG179      0.1354
    108  NH2        3.9770  -17.3380    3.3800 N.pl3 179  ARG179      0.1354
    109  N          8.9580  -16.6310    9.4960 N.am  180  ASP180     -0.1974
    110  CA         8.9820  -17.7850   10.3900 C.3   180  ASP180      0.1709
    111  C         10.4040  -18.1090   10.8500 C.2   180  ASP180      0.2293
    112  O         10.8890  -19.2210   10.6290 O.2   180  ASP180     -0.2864
    113  CB         8.2890  -18.9940    9.7450 C.3   180  ASP180      0.1436
    114  CG         6.8980  -18.6660    9.2310 C.2   180  ASP180      0.3671
    115  OD1        6.3230  -17.6390    9.6660 O.co2 180  ASP180     -0.2456
    116  OD2        6.3670  -19.4360    8.3880 O.co2 180  ASP180     -0.2456
    117  N          7.1820  -22.6120    4.6250 N.3   262  GLU262     -0.1231
    118  CA         6.6420  -21.9370    5.7970 C.3   262  GLU262      0.1699
    119  C          6.9750  -22.7630    7.0390 C.2   262  GLU262      0.2592
    120  O          7.1270  -23.9860    6.9670 O.2   262  GLU262     -0.2718
    121  CB         5.1320  -21.7510    5.6670 C.3   262  GLU262      0.0402
    122  CG         4.7180  -20.9210    4.4520 C.3   262  GLU262      0.1161
    123  CD         3.2200  -20.8050    4.2870 C.2   262  GLU262      0.3649
    124  OE1        2.5370  -21.8380    4.2480 O.co2 262  GLU262     -0.2457
    125  OE2        2.7320  -19.6720    4.1770 O.co2 262  GLU262     -0.2457
    126  N          7.1060  -22.0600    8.1630 N.am  263  THR263     -0.1953
    127  CA         7.3800  -22.6360    9.4850 C.3   263  THR263      0.1897
    128  C          8.4700  -23.7110    9.5150 C.2   263  THR263      0.2313
    129  O          8.3220  -24.7250   10.1960 O.2   263  THR263     -0.2863
    130  CB         6.0830  -23.1350   10.1940 C.3   263  THR263      0.1794
    131  OG1        5.6480  -24.3900    9.6480 O.3   263  THR263     -0.2208
    132  CG2        4.9660  -22.1180   10.0820 C.3   263  THR263      0.0378
    133  N          3.8230  -24.7620    0.3260 N.3   293  GLU293     -0.1245
    134  CA         2.5550  -24.3260   -0.2090 C.3   293  GLU293      0.1567
    135  C          2.5250  -24.3670   -1.7410 C.2   293  GLU293      0.2260
    136  O          3.5620  -24.2470   -2.3980 O.2   293  GLU293     -0.2867
    137  CB         2.1880  -22.9340    0.2940 C.3   293  GLU293      0.0388
    138  CG         3.1610  -21.8300   -0.0600 C.3   293  GLU293      0.1160
    139  CD         2.6000  -20.4510    0.2450 C.2   293  GLU293      0.3649
    140  OE1        1.4130  -20.2180   -0.0600 O.co2 293  GLU293     -0.2457
    141  OE2        3.3510  -19.6210    0.7950 O.co2 293  GLU293     -0.2457
    142  N         -5.7460  -27.3540    1.7250 N.3   300  GLN300     -0.1245
    143  CA        -5.3910  -25.9280    1.6900 C.3   300  GLN300      0.1566
    144  C         -4.0420  -25.6770    1.0060 C.2   300  GLN300      0.2260
    145  O         -3.2860  -24.7730    1.3730 O.2   300  GLN300     -0.2867
    146  CB        -5.4660  -25.3510    3.1170 C.3   300  GLN300      0.0367
    147  CG        -6.8240  -25.6310    3.7740 C.3   300  GLN300      0.0905
    148  CD        -7.1120  -24.8240    5.0400 C.2   300  GLN300      0.2608
    149  OE1       -8.2590  -24.7770    5.5170 O.2   300  GLN300     -0.2717
    150  NE2       -6.0770  -24.2100    5.6050 N.am  300  GLN300     -0.0878
    151  N         -1.3310  -27.3330    1.1880 N.3   302  HIS302     -0.1241
    152  CA        -0.2630  -27.3670    2.1890 C.3   302  HIS302      0.1621
    153  C          0.2410  -28.7690    2.5310 C.2   302  HIS302      0.2264
    154  O         -0.5510  -29.6240    2.8930 O.2   302  HIS302     -0.2867
    155  CB        -0.7760  -26.7410    3.4810 C.3   302  HIS302      0.0745
    156  CG        -0.8170  -25.2510    3.4590 C.ar  302  HIS302      0.0817
    157  ND1       -1.7370  -24.5310    4.1870 N.ar  302  HIS302     -0.2268
    158  CD2       -0.0580  -24.3420    2.8020 C.ar  302  HIS302      0.1154
    159  CE1       -1.5480  -23.2410    3.9750 C.ar  302  HIS302      0.1986
    160  NE2       -0.5290  -23.0980    3.1460 N.ar  302  HIS302     -0.2212
    161  N         -0.7450  -28.7170    9.6670 N.3   335  TYR335     -0.1227
    162  CA         0.2770  -27.8810    9.0480 C.3   335  TYR335      0.1736
    163  C          0.9400  -27.0660   10.1450 C.2   335  TYR335      0.2595
    164  O          0.4910  -27.1120   11.2900 O.2   335  TYR335     -0.2718
    165  CB        -0.3730  -26.9360    8.0310 C.3   335  TYR335      0.0548
    166  CG         0.5740  -26.2560    7.0630 C.ar  335  TYR335     -0.0200
    167  CD1        1.3940  -26.9970    6.2230 C.ar  335  TYR335     -0.0009
    168  CD2        0.6280  -24.8600    6.9660 C.ar  335  TYR335     -0.0009
    169  CE1        2.2480  -26.3810    5.3250 C.ar  335  TYR335      0.0417
    170  CE2        1.4790  -24.2330    6.0710 C.ar  335  TYR335      0.0417
    171  CZ         2.2780  -24.9980    5.2380 C.ar  335  TYR335      0.1957
    172  OH         3.1340  -24.3990    4.3390 O.3   335  TYR335     -0.2866
    173  N          2.0190  -26.3740    9.8020 N.am  336  ALA336     -0.1980
    174  CA         2.6680  -25.4170   10.6880 C.3   336  ALA336      0.1597
    175  C          3.2760  -26.1060   11.9080 C.2   336  ALA336      0.2287
    176  O          3.1090  -25.6590   13.0390 O.2   336  ALA336     -0.2864
    177  CB         1.7040  -24.3110   11.0840 C.3   336  ALA336      0.0319
    178  N         -0.7290  -27.6350   13.8920 N.3   352  TRP352     -0.1241
    179  CA        -2.0650  -27.0620   13.9110 C.3   352  TRP352      0.1605
    180  C         -2.9680  -27.9120   13.0390 C.2   352  TRP352      0.2264
    181  O         -2.6180  -28.1820   11.8960 O.2   352  TRP352     -0.2867
    182  CB        -1.9980  -25.6240   13.3820 C.3   352  TRP352      0.0550
    183  CG        -3.2420  -25.0450   12.7600 C.ar  352  TRP352      0.0003
    184  CD1       -4.4570  -24.8690   13.3380 C.ar  352  TRP352      0.0946
    185  CD2       -3.3450  -24.4990   11.4390 C.ar  352  TRP352      0.0152
    186  NE1       -5.3240  -24.2550   12.4540 N.ar  352  TRP352     -0.2442
    187  CE2       -4.6630  -24.0270   11.2780 C.ar  352  TRP352      0.0810
    188  CE3       -2.4510  -24.3770   10.3760 C.ar  352  TRP352      0.0012
    189  CZ2       -5.1060  -23.4220   10.0940 C.ar  352  TRP352      0.0191
    190  CZ3       -2.8960  -23.7990    9.1910 C.ar  352  TRP352      0.0001
    191  CH2       -4.2130  -23.3250    9.0650 C.ar  352  TRP352      0.0015
    192  N         -6.5870   -6.0220    4.2990 N.3   620  LEU620     -0.1245
    193  CA        -5.6000   -6.8860    4.9720 C.3   620  LEU620      0.1561
    194  C         -6.2190   -8.1350    5.5900 C.2   620  LEU620      0.2260
    195  O         -5.6170   -9.2100    5.5450 O.2   620  LEU620     -0.2867
    196  CB        -4.8840   -6.0840    6.0650 C.3   620  LEU620      0.0270
    197  CG        -4.1460   -4.8310    5.5850 C.3   620  LEU620      0.0019
    198  CD1       -3.5350   -4.1080    6.7760 C.3   620  LEU620      0.0001
    199  CD2       -3.0750   -5.1650    4.5610 C.3   620  LEU620      0.0001
@<TRIPOS>BOND
     1    96    95    2
     2    95    94    1
     3    94    97    1
     4    94    93    1
     5   136   135    2
     6    92    91    2
     7   135   134    1
     8    93    91   am
     9    91    90    1
    10    90    89    1
    11   134   137    1
    12   134   133    1
    13   140   139   ar
    14   138   139    1
    15   138   137    1
    16    89    83   am
    17   139   141   ar
    18    81    82    1
    19    83    84    2
    20    83    82    1
    21   144   145    2
    22   144   143    1
    23    82    85    1
    24   151   152    1
    25   143   142    1
    26   143   146    1
    27   152   153    1
    28   152   155    1
    29   153   154    2
    30    85    86    1
    31   158   160   ar
    32   158   156   ar
    33   146   147    1
    34   160   159   ar
    35    61    59    1
    36   108   106    1
    37   156   155    1
    38   156   157   ar
    39    86    88    1
    40    86    87    1
    41   147   148    1
    42   107   106    1
    43   159   157   ar
    44   125   123   ar
    45    60    59    1
    46   124   123   ar
    47   106   105    2
    48   123   122    1
    49   192   193    1
    50   172   171    1
    51    59    58    2
    52   122   121    1
    53   199   197    1
    54   117   118    1
    55   193   194    1
    56   193   196    1
    57   148   149    2
    58   148   150   am
    59   171   169   ar
    60   171   170   ar
    61   169   167   ar
    62   105   104    1
    63   195   194    2
    64    58    57    1
    65   197   196    1
    66   197   198    1
    67   121   118    1
    68   118   119    1
    69   170   168   ar
    70    98    99    1
    71   167   166   ar
    72   103   104    1
    73   103   102    1
    74    57    56    1
    75   168   166   ar
    76   120   119    2
    77   119   126   am
    78   166   165    1
    79    56    55    1
    80   102    99    1
    81    99   100    1
    82    49    50   ar
    83    49    47   ar
    84    71    72   ar
    85    71    69   ar
    86   101   100    2
    87    50    48   ar
    88    47    44   ar
    89    72    70   ar
    90   165   162    1
    91   126   127    1
    92   100   109   am
    93   116   114   ar
    94    55    52    1
    95    48    46   ar
    96    44    46   ar
    97    44    42   ar
    98    69    67   ar
    99   162   161    1
   100   162   163    1
   101   191   190   ar
   102   191   189   ar
   103    46    45   ar
   104   190   188   ar
   105   114   115   ar
   106   114   113    1
   107    41    42    1
   108    41    38    1
   109    70    68   ar
   110    40    39    2
   111    42    43   ar
   112   127   128    1
   113   127   130    1
   114   109   110    1
   115   128   129    2
   116   131   130    1
   117   113   110    1
   118    54    53    2
   119    14    13   ar
   120    14    12   ar
   121   173   163   am
   122   173   174    1
   123    52    53    1
   124    52    51    1
   125    45    43   ar
   126    37    38    1
   127    67    68   ar
   128    67    66    1
   129   132   130    1
   130   189   187   ar
   131    39    38    1
   132   163   164    2
   133    13    11   ar
   134   188   185   ar
   135   110   111    1
   136    12    10   ar
   137   112   111    2
   138   174   177    1
   139   174   175    1
   140    66    63    1
   141    22    20   am
   142   187   185   ar
   143   187   186   ar
   144    11     8   ar
   145   185   183   ar
   146    10     8   ar
   147    10     9   ar
   148   181   180    2
   149   175   176    2
   150    20    19    1
   151    20    21    2
   152     8     6   ar
   153    19    16    1
   154     9     7   ar
   155   186   184   ar
   156    63    62    1
   157    63    64    1
   158    80    78   ar
   159   183   184   ar
   160   183   182    1
   161    77    78    1
   162    77    74    1
   163    35    34    2
   164    73    64   am
   165    73    74    1
   166    27    24    1
   167   180   179    1
   168     6     7   ar
   169     6     5    1
   170   182   179    1
   171    64    65    2
   172    78    79   ar
   173    16    17    1
   174    16    15    1
   175    76    75    2
   176    23    24    1
   177    23    17   am
   178    74    75    1
   179    24    25    1
   180   178   179    1
   181    34    33    1
   182    34    36   am
   183     5     2    1
   184    17    18    2
   185    33    32    1
   186    32    29    1
   187     2     3    1
   188     2     1    1
   189    25    26    2
   190     3     4    2
   191    29    30    1
   192    29    28    1
   193    31    30    2
