@<TRIPOS>MOLECULE
tmp/5fkcB08.pdb
 198 192 0 0 0
SMALL
GASTEIGER

@<TRIPOS>ATOM
      1  N        -10.4100  -17.6950   16.3640 N.3    36  TRP36      -0.1241
      2  CA        -9.4820  -18.2220   15.3850 C.3    36  TRP36       0.1605
      3  C         -8.1290  -18.5260   16.0050 C.2    36  TRP36       0.2264
      4  O         -7.5760  -17.6910   16.7090 O.2    36  TRP36      -0.2867
      5  CB        -9.2740  -17.2120   14.2460 C.3    36  TRP36       0.0550
      6  CG        -8.1890  -17.6260   13.3240 C.ar   36  TRP36       0.0003
      7  CD1       -6.8730  -17.3110   13.4260 C.ar   36  TRP36       0.0946
      8  CD2       -8.3110  -18.4860   12.1880 C.ar   36  TRP36       0.0152
      9  NE1       -6.1660  -17.9030   12.4190 N.ar   36  TRP36      -0.2442
     10  CE2       -7.0240  -18.6370   11.6440 C.ar   36  TRP36       0.0810
     11  CE3       -9.3860  -19.1450   11.5790 C.ar   36  TRP36       0.0012
     12  CZ2       -6.7730  -19.4140   10.5060 C.ar   36  TRP36       0.0191
     13  CZ3       -9.1400  -19.9300   10.4530 C.ar   36  TRP36       0.0001
     14  CH2       -7.8430  -20.0520    9.9260 C.ar   36  TRP36       0.0015
     15  N         -4.2450  -20.4750   14.5680 N.3    38  ASN38      -0.1225
     16  CA        -3.4950  -21.3000   13.6370 C.3    38  ASN38       0.1785
     17  C         -2.1610  -21.7770   14.2290 C.2    38  ASN38       0.2597
     18  O         -2.1870  -22.4890   15.2360 O.2    38  ASN38      -0.2718
     19  CB        -3.4580  -20.7370   12.1840 C.3    38  ASN38       0.1169
     20  CG        -2.8650  -19.3380   12.0550 C.2    38  ASN38       0.2627
     21  OD1       -3.4130  -18.3590   12.5560 O.2    38  ASN38      -0.2716
     22  ND2       -1.7750  -19.2320   11.3030 N.am   38  ASN38      -0.0877
     23  N         -1.0300  -21.3860   13.6520 N.am   39  ALA39      -0.1979
     24  CA         0.2570  -22.0050   13.9390 C.3    39  ALA39       0.1597
     25  C          0.6790  -21.8970   15.4040 C.2    39  ALA39       0.2287
     26  O          0.5660  -20.8180   15.9910 O.2    39  ALA39      -0.2864
     27  CB         1.3290  -21.3660   13.0830 C.3    39  ALA39       0.0319
     28  N         -0.7240  -18.4880   17.0150 N.3    56  GLN56      -0.1245
     29  CA        -1.3400  -17.4560   16.1930 C.3    56  GLN56       0.1566
     30  C         -2.8200  -17.4050   16.5430 C.2    56  GLN56       0.2260
     31  O         -3.4940  -18.4300   16.5150 O.2    56  GLN56      -0.2867
     32  CB        -1.1470  -17.7750   14.7080 C.3    56  GLN56       0.0367
     33  CG         0.3010  -17.7190   14.2460 C.3    56  GLN56       0.0905
     34  CD         0.7820  -16.3060   14.0160 C.2    56  GLN56       0.2608
     35  OE1        0.5810  -15.7500   12.9370 O.2    56  GLN56      -0.2717
     36  NE2        1.4260  -15.7110   15.0250 N.am   56  GLN56      -0.0878
     37  N         -8.7490  -15.3890   10.0630 N.3    64  TRP64      -0.1241
     38  CA        -7.4600  -14.8000   10.4190 C.3    64  TRP64       0.1605
     39  C         -7.4730  -13.2720   10.3520 C.2    64  TRP64       0.2264
     40  O         -8.1580  -12.6720    9.5200 O.2    64  TRP64      -0.2867
     41  CB        -6.4290  -15.3550    9.4440 C.3    64  TRP64       0.0550
     42  CG        -4.9980  -14.9930    9.6180 C.ar   64  TRP64       0.0003
     43  CD1       -4.0270  -15.7680   10.1930 C.ar   64  TRP64       0.0946
     44  CD2       -4.3350  -13.8270    9.1210 C.ar   64  TRP64       0.0152
     45  NE1       -2.8100  -15.1520   10.1030 N.ar   64  TRP64      -0.2442
     46  CE2       -2.9690  -13.9520    9.4580 C.ar   64  TRP64       0.0810
     47  CE3       -4.7610  -12.6800    8.4240 C.ar   64  TRP64       0.0012
     48  CZ2       -2.0270  -12.9750    9.1380 C.ar   64  TRP64       0.0191
     49  CZ3       -3.8170  -11.7080    8.0940 C.ar   64  TRP64       0.0001
     50  CH2       -2.4640  -11.8670    8.4460 C.ar   64  TRP64       0.0015
     51  N          0.5170   -5.1420   10.8660 N.3   101  ARG101     -0.1245
     52  CA        -0.2360   -6.0200    9.9840 C.3   101  ARG101      0.1563
     53  C         -0.3300   -7.4530   10.5160 C.2   101  ARG101      0.2260
     54  O         -1.0520   -8.2620    9.9620 O.2   101  ARG101     -0.2867
     55  CB         0.3970   -5.9870    8.5840 C.3   101  ARG101      0.0307
     56  CG        -0.4340   -6.6300    7.4880 C.3   101  ARG101      0.0489
     57  CD         0.1110   -7.9840    7.0320 C.3   101  ARG101      0.2205
     58  NE        -0.5620   -8.3990    5.8130 N.pl3 101  ARG101     -0.0865
     59  CZ        -0.2990   -7.9180    4.5950 C.cat 101  ARG101      0.5346
     60  NH1        0.6630   -7.0160    4.4030 N.pl3 101  ARG101      0.1354
     61  NH2       -1.0100   -8.3590    3.5510 N.pl3 101  ARG101      0.1354
     62  N          3.4410  -12.4570   13.3050 N.3   104  PHE104     -0.1227
     63  CA         3.4810  -13.7960   12.6990 C.3   104  PHE104      0.1736
     64  C          4.3090  -14.7380   13.5890 C.2   104  PHE104      0.2595
     65  O          4.6980  -14.3820   14.7100 O.2   104  PHE104     -0.2718
     66  CB         4.0670  -13.7160   11.2720 C.3   104  PHE104      0.0547
     67  CG         3.0900  -13.2790   10.1970 C.ar  104  PHE104     -0.0202
     68  CD1        2.0830  -12.3400   10.4420 C.ar  104  PHE104     -0.0042
     69  CD2        3.2380  -13.7580    8.8950 C.ar  104  PHE104     -0.0042
     70  CE1        1.2260  -11.9280    9.4310 C.ar  104  PHE104     -0.0003
     71  CE2        2.3870  -13.3420    7.8760 C.ar  104  PHE104     -0.0003
     72  CZ         1.3680  -12.4370    8.1430 C.ar  104  PHE104     -0.0000
     73  N          4.5620  -15.9470   13.0960 N.am  105  ASP105     -0.1974
     74  CA         5.3020  -16.9800   13.8250 C.3   105  ASP105      0.1709
     75  C          6.6700  -16.4780   14.2940 C.2   105  ASP105      0.2293
     76  O          7.2950  -15.6200   13.6700 O.2   105  ASP105     -0.2864
     77  CB         5.4300  -18.2150   12.9070 C.3   105  ASP105      0.1436
     78  CG         6.0020  -19.4550   13.5890 C.2   105  ASP105      0.3671
     79  OD1        5.9760  -19.5900   14.8380 O.co2 105  ASP105     -0.2456
     80  OD2        6.4640  -20.3490   12.8140 O.co2 105  ASP105     -0.2456
     81  N          1.3620   -9.5470    0.4470 N.3   129  LEU129     -0.1231
     82  CA         2.0940  -10.5400    1.2210 C.3   129  LEU129      0.1693
     83  C          1.6200  -11.9150    0.7890 C.2   129  LEU129      0.2593
     84  O          0.4450  -12.2560    0.9410 O.2   129  LEU129     -0.2718
     85  CB         1.8600  -10.3170    2.7200 C.3   129  LEU129      0.0284
     86  CG         2.8010  -11.0310    3.7080 C.3   129  LEU129      0.0019
     87  CD1        2.6260  -10.4490    5.1120 C.3   129  LEU129      0.0001
     88  CD2        2.5790  -12.5360    3.7310 C.3   129  LEU129      0.0001
     89  N          2.5300  -12.6960    0.2220 N.am  130  GLY130     -0.1942
     90  CA         2.1890  -14.0450   -0.2150 C.3   130  GLY130      0.2014
     91  C          3.0850  -14.5700   -1.3130 C.2   130  GLY130      0.2638
     92  O          3.6290  -13.7970   -2.1120 O.2   130  GLY130     -0.2714
     93  N          3.2020  -15.8950   -1.3580 N.am  131  ALA131     -0.1977
     94  CA         4.0360  -16.5770   -2.3390 C.3   131  ALA131      0.1597
     95  C          3.5320  -16.4080   -3.7750 C.2   131  ALA131      0.2287
     96  O          4.3300  -16.5020   -4.7010 O.2   131  ALA131     -0.2864
     97  CB         4.1690  -18.0540   -1.9860 C.3   131  ALA131      0.0319
     98  N          1.8680  -13.5780   -4.7480 N.3   133  LEU133     -0.1245
     99  CA         1.7310  -12.1400   -4.9580 C.3   133  LEU133      0.1561
    100  C          3.0980  -11.5410   -5.2030 C.2   133  LEU133      0.2260
    101  O          4.1040  -12.2360   -5.1430 O.2   133  LEU133     -0.2867
    102  CB         1.0620  -11.4940   -3.7440 C.3   133  LEU133      0.0270
    103  CG        -0.3470  -11.9910   -3.4260 C.3   133  LEU133      0.0019
    104  CD1       -0.8830  -11.3130   -2.1730 C.3   133  LEU133      0.0001
    105  CD2       -1.2910  -11.7680   -4.6010 C.3   133  LEU133      0.0001
    106  N          9.8170  -15.2910    6.3410 N.3   179  ARG179     -0.1231
    107  CA         9.1630  -15.3670    7.6390 C.3   179  ARG179      0.1694
    108  C          9.4820  -16.6260    8.4330 C.2   179  ARG179      0.2592
    109  O         10.2010  -17.5280    7.9680 O.2   179  ARG179     -0.2718
    110  CB         7.6450  -15.2110    7.4670 C.3   179  ARG179      0.0321
    111  CG         6.9680  -16.2360    6.5720 C.3   179  ARG179      0.0489
    112  CD         5.4540  -16.1700    6.7180 C.3   179  ARG179      0.2205
    113  NE         4.7830  -16.9330    5.6610 N.pl3 179  ARG179     -0.0865
    114  CZ         4.6610  -16.5410    4.3870 C.cat 179  ARG179      0.5346
    115  NH1        5.1250  -15.3620    3.9810 N.pl3 179  ARG179      0.1354
    116  NH2        4.0480  -17.3320    3.5110 N.pl3 179  ARG179      0.1354
    117  N          8.9560  -16.6410    9.6570 N.am  180  ASP180     -0.1974
    118  CA         8.9810  -17.8020   10.5410 C.3   180  ASP180      0.1709
    119  C         10.4070  -18.1170   11.0070 C.2   180  ASP180      0.2293
    120  O         10.8950  -19.2380   10.8110 O.2   180  ASP180     -0.2864
    121  CB         8.2980  -19.0040    9.8690 C.3   180  ASP180      0.1436
    122  CG         6.8930  -18.6840    9.3680 C.2   180  ASP180      0.3671
    123  OD1        6.3030  -17.6620    9.8040 O.co2 180  ASP180     -0.2456
    124  OD2        6.3610  -19.4690    8.5370 O.co2 180  ASP180     -0.2456
    125  N          7.4490  -22.5980    4.7350 N.3   262  GLU262     -0.1231
    126  CA         6.9350  -21.9200    5.9210 C.3   262  GLU262      0.1699
    127  C          7.2630  -22.7540    7.1590 C.2   262  GLU262      0.2592
    128  O          7.4980  -23.9580    7.0710 O.2   262  GLU262     -0.2718
    129  CB         5.4260  -21.7490    5.8310 C.3   262  GLU262      0.0402
    130  CG         4.9450  -20.9510    4.6250 C.3   262  GLU262      0.1161
    131  CD         3.4440  -20.8560    4.5700 C.2   262  GLU262      0.3649
    132  OE1        2.7710  -21.9040    4.5540 O.co2 262  GLU262     -0.2457
    133  OE2        2.9220  -19.7300    4.5430 O.co2 262  GLU262     -0.2457
    134  N          7.2680  -22.0770    8.3050 N.am  263  THR263     -0.1953
    135  CA         7.4690  -22.6730    9.6250 C.3   263  THR263      0.1897
    136  C          8.5580  -23.7470    9.6740 C.2   263  THR263      0.2313
    137  O          8.3840  -24.7760   10.3130 O.2   263  THR263     -0.2863
    138  CB         6.1450  -23.2200   10.2310 C.3   263  THR263      0.1794
    139  OG1        5.7670  -24.4450    9.5910 O.3   263  THR263     -0.2208
    140  CG2        5.0270  -22.2130   10.1130 C.3   263  THR263      0.0378
    141  N          4.1040  -24.6760    0.2810 N.3   293  GLU293     -0.1245
    142  CA         2.8970  -24.0980   -0.2820 C.3   293  GLU293      0.1567
    143  C          2.8030  -24.3170   -1.7920 C.2   293  GLU293      0.2260
    144  O          3.8140  -24.2840   -2.4890 O.2   293  GLU293     -0.2867
    145  CB         2.8760  -22.5910   -0.0790 C.3   293  GLU293      0.0388
    146  CG         3.1390  -22.1120    1.3280 C.3   293  GLU293      0.1160
    147  CD         2.6540  -20.6900    1.4930 C.2   293  GLU293      0.3649
    148  OE1        1.4590  -20.5360    1.8140 O.co2 293  GLU293     -0.2457
    149  OE2        3.4670  -19.7600    1.2750 O.co2 293  GLU293     -0.2457
    150  N         -1.1370  -27.2090    1.2430 N.3   302  HIS302     -0.1241
    151  CA        -0.0890  -27.2290    2.2620 C.3   302  HIS302      0.1621
    152  C          0.3860  -28.6450    2.6070 C.2   302  HIS302      0.2264
    153  O         -0.4190  -29.4870    2.9910 O.2   302  HIS302     -0.2867
    154  CB        -0.6130  -26.5690    3.5400 C.3   302  HIS302      0.0745
    155  CG        -0.4600  -25.0800    3.5800 C.ar  302  HIS302      0.0817
    156  ND1       -1.2880  -24.2810    4.3370 N.ar  302  HIS302     -0.2268
    157  CD2        0.4290  -24.2460    2.9870 C.ar  302  HIS302      0.1154
    158  CE1       -0.9200  -23.0200    4.2060 C.ar  302  HIS302      0.1986
    159  NE2        0.1190  -22.9710    3.3920 N.ar  302  HIS302     -0.2212
    160  N         -0.7060  -28.7020    9.7570 N.3   335  TYR335     -0.1227
    161  CA         0.3250  -27.8790    9.1650 C.3   335  TYR335      0.1736
    162  C          0.9850  -27.0660   10.2680 C.2   335  TYR335      0.2595
    163  O          0.5080  -27.0750   11.4050 O.2   335  TYR335     -0.2718
    164  CB        -0.3090  -26.9360    8.1370 C.3   335  TYR335      0.0548
    165  CG         0.6670  -26.2690    7.2080 C.ar  335  TYR335     -0.0200
    166  CD1        1.4590  -27.0190    6.3430 C.ar  335  TYR335     -0.0009
    167  CD2        0.8010  -24.8790    7.1820 C.ar  335  TYR335     -0.0009
    168  CE1        2.3500  -26.4080    5.4780 C.ar  335  TYR335      0.0417
    169  CE2        1.6880  -24.2610    6.3210 C.ar  335  TYR335      0.0417
    170  CZ         2.4550  -25.0250    5.4610 C.ar  335  TYR335      0.1957
    171  OH         3.3470  -24.4280    4.6050 O.3   335  TYR335     -0.2866
    172  N          2.0930  -26.4190    9.9290 N.am  336  ALA336     -0.1980
    173  CA         2.7630  -25.4530   10.7910 C.3   336  ALA336      0.1597
    174  C          3.3540  -26.1360   12.0180 C.2   336  ALA336      0.2287
    175  O          3.1510  -25.7000   13.1430 O.2   336  ALA336     -0.2864
    176  CB         1.8260  -24.3140   11.1670 C.3   336  ALA336      0.0319
    177  N         -0.7170  -27.6320   13.9860 N.3   352  TRP352     -0.1241
    178  CA        -2.0630  -27.0770   14.0150 C.3   352  TRP352      0.1605
    179  C         -2.9610  -27.9100   13.1250 C.2   352  TRP352      0.2264
    180  O         -2.5980  -28.1870   11.9880 O.2   352  TRP352     -0.2867
    181  CB        -2.0070  -25.6260   13.5260 C.3   352  TRP352      0.0550
    182  CG        -3.2220  -25.0400   12.8800 C.ar  352  TRP352      0.0003
    183  CD1       -4.4260  -24.8020   13.4520 C.ar  352  TRP352      0.0946
    184  CD2       -3.3110  -24.5510   11.5340 C.ar  352  TRP352      0.0152
    185  NE1       -5.2750  -24.2090   12.5450 N.ar  352  TRP352     -0.2442
    186  CE2       -4.6090  -24.0410   11.3600 C.ar  352  TRP352      0.0810
    187  CE3       -2.4190  -24.5110   10.4580 C.ar  352  TRP352      0.0012
    188  CZ2       -5.0420  -23.4770   10.1510 C.ar  352  TRP352      0.0191
    189  CZ3       -2.8510  -23.9670    9.2470 C.ar  352  TRP352      0.0001
    190  CH2       -4.1590  -23.4560    9.1080 C.ar  352  TRP352      0.0015
    191  N         -6.4920   -5.9900    4.5710 N.3   620  LEU620     -0.1245
    192  CA        -5.5080   -6.8630    5.2350 C.3   620  LEU620      0.1561
    193  C         -6.1400   -8.0800    5.8920 C.2   620  LEU620      0.2260
    194  O         -5.5410   -9.1530    5.9010 O.2   620  LEU620     -0.2867
    195  CB        -4.7450   -6.0640    6.2920 C.3   620  LEU620      0.0270
    196  CG        -4.0330   -4.8150    5.7890 C.3   620  LEU620      0.0019
    197  CD1       -3.4270   -4.0870    6.9730 C.3   620  LEU620      0.0001
    198  CD2       -2.9580   -5.1560    4.7650 C.3   620  LEU620      0.0001
@<TRIPOS>BOND
     1   100   101    2
     2   100    99    1
     3    99    98    1
     4    99   102    1
     5    96    95    2
     6   105   103    1
     7    95    94    1
     8   102   103    1
     9   103   104    1
    10   144   143    2
    11    94    97    1
    12    94    93    1
    13    92    91    2
    14   143   142    1
    15    93    91   am
    16    91    90    1
    17   142   145    1
    18   142   141    1
    19    90    89    1
    20   145   146    1
    21    89    83   am
    22    81    82    1
    23    83    84    2
    24    83    82    1
    25    82    85    1
    26   150   151    1
    27   149   147   ar
    28   146   147    1
    29   147   148   ar
    30   151   152    1
    31   151   154    1
    32   152   153    2
    33    85    86    1
    34   157   159   ar
    35   157   155   ar
    36   159   158   ar
    37   116   114    1
    38   154   155    1
    39    61    59    1
    40   155   156   ar
    41    86    88    1
    42    86    87    1
    43   115   114    1
    44   158   156   ar
    45   114   113    2
    46    60    59    1
    47   133   131   ar
    48   132   131   ar
    49   131   130    1
    50   191   192    1
    51    59    58    2
    52   171   170    1
    53   130   129    1
    54   125   126    1
    55   198   196    1
    56   192   193    1
    57   192   195    1
    58   170   168   ar
    59   170   169   ar
    60   168   166   ar
    61   113   112    1
    62   196   195    1
    63   196   197    1
    64    58    57    1
    65   129   126    1
    66   193   194    2
    67   126   127    1
    68   169   167   ar
    69   106   107    1
    70   166   165   ar
    71   111   112    1
    72   111   110    1
    73    57    56    1
    74   128   127    2
    75   127   134   am
    76   167   165   ar
    77   165   164    1
    78   110   107    1
    79    56    55    1
    80   107   108    1
    81    71    72   ar
    82    71    69   ar
    83   109   108    2
    84    49    47   ar
    85    49    50   ar
    86   164   161    1
    87    72    70   ar
    88   134   135    1
    89    47    44   ar
    90   108   117   am
    91    50    48   ar
    92   124   122   ar
    93    55    52    1
    94    69    67   ar
    95   190   189   ar
    96   190   188   ar
    97    44    46   ar
    98    44    42   ar
    99    48    46   ar
   100   161   160    1
   101   161   162    1
   102   189   187   ar
   103   122   123   ar
   104   122   121    1
   105    70    68   ar
   106    41    42    1
   107    41    38    1
   108    46    45   ar
   109    40    39    2
   110   139   138    1
   111    42    43   ar
   112   135   136    1
   113   135   138    1
   114   117   118    1
   115   136   137    2
   116   121   118    1
   117    14    13   ar
   118    14    12   ar
   119   172   162   am
   120   172   173    1
   121    54    53    2
   122    52    53    1
   123    52    51    1
   124    37    38    1
   125    45    43   ar
   126   140   138    1
   127   188   186   ar
   128    67    68   ar
   129    67    66    1
   130   162   163    2
   131    39    38    1
   132    13    11   ar
   133   187   184   ar
   134    12    10   ar
   135   118   119    1
   136   173   176    1
   137   173   174    1
   138   120   119    2
   139    66    63    1
   140    22    20   am
   141   186   184   ar
   142   186   185   ar
   143   184   182   ar
   144    11     8   ar
   145    10     8   ar
   146    10     9   ar
   147   180   179    2
   148   174   175    2
   149    20    19    1
   150    20    21    2
   151    19    16    1
   152     8     6   ar
   153     9     7   ar
   154   185   183   ar
   155    63    62    1
   156    63    64    1
   157    80    78   ar
   158   182   183   ar
   159   182   181    1
   160    77    78    1
   161    77    74    1
   162    35    34    2
   163    27    24    1
   164    73    64   am
   165    73    74    1
   166   179   178    1
   167     6     7   ar
   168     6     5    1
   169   181   178    1
   170    64    65    2
   171    78    79   ar
   172    16    17    1
   173    16    15    1
   174    23    24    1
   175    23    17   am
   176    76    75    2
   177    74    75    1
   178    24    25    1
   179   177   178    1
   180    34    33    1
   181    34    36   am
   182    17    18    2
   183     5     2    1
   184    33    32    1
   185    32    29    1
   186     2     3    1
   187     2     1    1
   188    25    26    2
   189     3     4    2
   190    29    30    1
   191    29    28    1
   192    31    30    2
