@<TRIPOS>MOLECULE
tmp/5fkjB03.pdb
 59 59 0 0 0
SMALL
GASTEIGER

@<TRIPOS>ATOM
      1  N          6.3700   25.5320   42.6650 N.3   250  ARG250     -0.1245
      2  CA         6.6600   24.7490   41.4710 C.3   250  ARG250      0.1563
      3  C          5.3850   24.3340   40.7450 C.2   250  ARG250      0.2260
      4  O          5.3910   24.2200   39.5160 O.2   250  ARG250     -0.2867
      5  CB         7.4930   23.5180   41.8320 C.3   250  ARG250      0.0307
      6  CG         7.8500   22.6410   40.6440 C.3   250  ARG250      0.0489
      7  CD         8.7520   21.4840   41.0270 C.3   250  ARG250      0.2205
      8  NE         9.8440   21.9260   41.8800 N.pl3 250  ARG250     -0.0865
      9  CZ         9.9700   21.5880   43.1580 C.cat 250  ARG250      0.5346
     10  NH1        9.0780   20.7890   43.7340 N.pl3 250  ARG250      0.1354
     11  NH2       10.9880   22.0520   43.8620 N.pl3 250  ARG250      0.1354
     12  N          2.6800   26.0900   40.4500 N.3   252  VAL252     -0.1231
     13  CA         2.4170   27.2680   39.6350 C.3   252  VAL252      0.1692
     14  C          3.6970   27.5780   38.8720 C.2   252  VAL252      0.2593
     15  O          4.6120   26.7510   38.8090 O.2   252  VAL252     -0.2718
     16  CB         1.9380   28.4600   40.4790 C.3   252  VAL252      0.0266
     17  CG1        0.6110   28.1250   41.1300 C.3   252  VAL252      0.0020
     18  CG2        2.9640   28.8180   41.5300 C.3   252  VAL252      0.0020
     19  N          3.7760   28.7520   38.2710 N.am  253  GLY253     -0.1942
     20  CA         4.8750   28.9980   37.3640 C.3   253  GLY253      0.2014
     21  C          6.1550   29.5090   37.9980 C.2   253  GLY253      0.2639
     22  O          6.9700   30.1170   37.3020 O.2   253  GLY253     -0.2714
     23  N          6.3660   29.2600   39.2910 N.am  254  CYS254     -0.1954
     24  CA         7.4320   29.9380   40.0310 C.3   254  CYS254      0.1828
     25  C          8.5640   29.0480   40.5470 C.2   254  CYS254      0.2467
     26  O          8.3360   27.8990   40.9270 O.2   254  CYS254     -0.2730
     27  CB         6.8250   30.6630   41.2260 C.3   254  CYS254      0.0996
     28  SG         5.3310   31.5470   40.8360 S.3   254  CYS254     -0.0797
     29  N          9.7940   29.5940   40.5760 N.am  255  PRO255     -0.2716
     30  CA        10.1630   30.8600   39.9240 C.3   255  PRO255      0.1521
     31  C         10.2730   30.6490   38.4220 C.2   255  PRO255      0.2440
     32  O         10.7980   29.6140   38.0310 O.2   255  PRO255     -0.2731
     33  CB        11.5350   31.1920   40.5340 C.3   255  PRO255      0.0310
     34  CG        11.7110   30.2310   41.6910 C.3   255  PRO255      0.0237
     35  CD        10.9280   29.0170   41.3140 C.3   255  PRO255      0.0939
     36  N          9.7930   31.5850   37.5870 N.am  256  PRO256     -0.2716
     37  CA         9.8740   31.4030   36.1330 C.3   256  PRO256      0.1536
     38  C         11.1660   31.9410   35.5290 C.2   256  PRO256      0.2599
     39  O         11.1580   32.6010   34.4860 O.2   256  PRO256     -0.2715
     40  CB         8.6640   32.1940   35.6330 C.3   256  PRO256      0.0310
     41  CG         8.5490   33.3300   36.6600 C.3   256  PRO256      0.0237
     42  CD         9.3090   32.9330   37.9200 C.3   256  PRO256      0.0939
     43  N         12.2950   31.6170   36.1520 N.am  257  GLY257     -0.1941
     44  CA        13.5640   32.1550   35.7090 C.3   257  GLY257      0.2014
     45  C         14.2220   31.4490   34.5450 C.2   257  GLY257      0.2639
     46  O         14.6920   32.0760   33.5890 O.2   257  GLY257     -0.2714
     47  N         14.2120   30.1260   34.6070 N.am  258  GLY258     -0.1939
     48  CA        15.2650   29.3350   34.0200 C.3   258  GLY258      0.2014
     49  C         16.2900   28.8650   35.0280 C.2   258  GLY258      0.2639
     50  O         17.3210   28.3140   34.6230 O.2   258  GLY258     -0.2714
     51  N         16.0350   29.0760   36.3230 N.am  259  ALA259     -0.1963
     52  CA        16.8150   28.5980   37.4630 C.3   259  ALA259      0.1728
     53  C         16.1330   29.0720   38.7400 C.2   259  ALA259      0.2616
     54  O         15.3580   30.0330   38.7310 O.2   259  ALA259     -0.2715
     55  CB        18.2620   29.1010   37.4330 C.3   259  ALA259      0.0334
     56  N         16.4560   28.4010   39.8460 N.am  260  GLY260     -0.1955
     57  CA        15.8970   28.7120   41.1390 C.3   260  GLY260      0.1869
     58  C         16.9010   29.3440   42.0880 C.2   260  GLY260      0.2309
     59  O         17.9800   29.7960   41.6990 O.2   260  GLY260     -0.2863
@<TRIPOS>BOND
     1    46    45    2
     2    48    47    1
     3    48    49    1
     4    39    38    2
     5    45    47   am
     6    45    44    1
     7    50    49    2
     8    49    51   am
     9    38    37    1
    10    38    43   am
    11    40    37    1
    12    40    41    1
    13    44    43    1
    14    37    36    1
    15    51    52    1
    16    41    42    1
    17    22    21    2
    18    20    21    1
    19    20    19    1
    20    55    52    1
    21    52    53    1
    22    36    42    1
    23    36    31   am
    24    21    23   am
    25    32    31    2
    26    19    14   am
    27    31    30    1
    28    54    53    2
    29    53    56   am
    30    15    14    2
    31    14    13    1
    32    23    24    1
    33     4     3    2
    34    13    12    1
    35    13    16    1
    36    56    57    1
    37    30    33    1
    38    30    29    1
    39    24    25    1
    40    24    27    1
    41    16    17    1
    42    16    18    1
    43    33    34    1
    44    25    29   am
    45    25    26    2
    46    29    35    1
    47     6     7    1
    48     6     5    1
    49     3     2    1
    50    28    27    1
    51     7     8    1
    52    57    58    1
    53    35    34    1
    54     2     5    1
    55     2     1    1
    56    59    58    2
    57     8     9    2
    58     9    10    1
    59     9    11    1
