@<TRIPOS>MOLECULE
tmp/5fkjB00.pdb
 246 245 0 0 0
SMALL
GASTEIGER

@<TRIPOS>ATOM
      1  N         -9.8630   27.8280   50.8030 N.3    69  TYR69      -0.1241
      2  CA       -10.5660   26.6860   50.2350 C.3    69  TYR69       0.1605
      3  C        -11.9710   26.5830   50.8240 C.2    69  TYR69       0.2264
      4  O        -12.2030   26.8880   51.9990 O.2    69  TYR69      -0.2867
      5  CB        -9.7800   25.4050   50.5130 C.3    69  TYR69       0.0534
      6  CG       -10.4540   24.1120   50.0980 C.ar   69  TYR69      -0.0201
      7  CD1      -10.2510   23.5730   48.8340 C.ar   69  TYR69      -0.0009
      8  CD2      -11.2680   23.4130   50.9820 C.ar   69  TYR69      -0.0009
      9  CE1      -10.8550   22.3830   48.4580 C.ar   69  TYR69       0.0417
     10  CE2      -11.8750   22.2260   50.6130 C.ar   69  TYR69       0.0417
     11  CZ       -11.6670   21.7180   49.3510 C.ar   69  TYR69       0.1957
     12  OH       -12.2710   20.5380   48.9830 O.3    69  TYR69      -0.2866
     13  N        -15.4550   24.0370   51.2790 N.3    71  ASP71      -0.1239
     14  CA       -15.6850   22.6030   51.3870 C.3    71  ASP71       0.1674
     15  C        -16.7360   22.1860   50.3650 C.2    71  ASP71       0.2266
     16  O        -17.9030   22.5860   50.4560 O.2    71  ASP71      -0.2867
     17  CB       -16.1230   22.2550   52.8110 C.3    71  ASP71       0.1410
     18  CG       -16.2380   20.7570   53.0460 C.2    71  ASP71       0.3668
     19  OD1      -17.2190   20.1490   52.5640 O.co2  71  ASP71      -0.2456
     20  OD2      -15.3400   20.1910   53.7130 O.co2  71  ASP71      -0.2456
     21  N        -17.2390   18.7880   49.6830 N.3    73  LEU73      -0.1245
     22  CA       -17.4550   17.3500   49.8280 C.3    73  LEU73       0.1561
     23  C        -18.9380   17.0010   49.8370 C.2    73  LEU73       0.2260
     24  O        -19.3760   16.0780   49.1390 O.2    73  LEU73      -0.2867
     25  CB       -16.7790   16.8370   51.1010 C.3    73  LEU73       0.0270
     26  CG       -17.0910   15.3840   51.4840 C.3    73  LEU73       0.0019
     27  CD1      -16.6680   14.4200   50.3840 C.3    73  LEU73       0.0001
     28  CD2      -16.4410   15.0100   52.8160 C.3    73  LEU73       0.0001
     29  N        -23.9710   20.3790   57.8400 N.3    79  GLY79      -0.1210
     30  CA       -22.8060   20.0380   58.6460 C.3    79  GLY79       0.1956
     31  C        -21.5210   20.6460   58.1140 C.2    79  GLY79       0.2612
     32  O        -20.7370   21.2270   58.8680 O.2    79  GLY79      -0.2717
     33  N        -21.2700   20.4920   56.8090 N.am   80  THR80      -0.1952
     34  CA       -20.0970   21.1160   56.2020 C.3    80  THR80       0.1897
     35  C        -20.3270   22.5910   55.8800 C.2    80  THR80       0.2313
     36  O        -19.4660   23.4310   56.1700 O.2    80  THR80      -0.2863
     37  CB       -19.6950   20.3570   54.9360 C.3    80  THR80       0.1794
     38  OG1      -20.8510   20.1410   54.1180 O.3    80  THR80      -0.2208
     39  CG2      -19.0730   19.0190   55.2900 C.3    80  THR80       0.0378
     40  N        -19.8390   25.7650   58.1980 N.3    83  TRP83      -0.1227
     41  CA       -18.5080   26.3250   58.3950 C.3    83  TRP83       0.1737
     42  C        -17.9590   27.0520   57.1730 C.2    83  TRP83       0.2595
     43  O        -16.9260   27.7200   57.2880 O.2    83  TRP83      -0.2718
     44  CB       -17.5440   25.2110   58.7940 C.3    83  TRP83       0.0564
     45  CG       -18.0690   24.3750   59.9080 C.ar   83  TRP83       0.0003
     46  CD1      -18.7540   23.2010   59.7990 C.ar   83  TRP83       0.0946
     47  CD2      -17.9560   24.6460   61.3080 C.ar   83  TRP83       0.0152
     48  NE1      -19.0790   22.7240   61.0460 N.ar   83  TRP83      -0.2442
     49  CE2      -18.5980   23.5930   61.9900 C.ar   83  TRP83       0.0810
     50  CE3      -17.3740   25.6760   62.0520 C.ar   83  TRP83       0.0012
     51  CZ2      -18.6720   23.5400   63.3800 C.ar   83  TRP83       0.0191
     52  CZ3      -17.4470   25.6230   63.4300 C.ar   83  TRP83       0.0001
     53  CH2      -18.0920   24.5620   64.0810 C.ar   83  TRP83       0.0015
     54  N        -18.6170   26.9490   56.0200 N.am   84  ASN84      -0.1974
     55  CA       -18.0970   27.5540   54.8030 C.3    84  ASN84       0.1688
     56  C        -18.2620   29.0740   54.8520 C.2    84  ASN84       0.2292
     57  O        -19.0440   29.5940   55.6500 O.2    84  ASN84      -0.2864
     58  CB       -18.8080   26.9750   53.5810 C.3    84  ASN84       0.1181
     59  CG       -18.1220   25.7310   53.0430 C.2    84  ASN84       0.2629
     60  OD1      -16.9420   25.4880   53.3120 O.2    84  ASN84      -0.2716
     61  ND2      -18.8570   24.9430   52.2670 N.am   84  ASN84      -0.0877
     62  N        -11.5440   28.6850   64.3110 N.3   117  GLY117     -0.1210
     63  CA       -10.7980   27.5060   63.9050 C.3   117  GLY117      0.1956
     64  C        -10.7430   27.3390   62.4000 C.2   117  GLY117      0.2612
     65  O        -10.7170   28.3150   61.6460 O.2   117  GLY117     -0.2717
     66  N        -10.7350   26.0910   61.9530 N.am  118  GLY118     -0.1942
     67  CA       -10.5280   25.7660   60.5620 C.3   118  GLY118      0.2014
     68  C         -9.1620   25.1970   60.1450 C.2   118  GLY118      0.2639
     69  O         -8.8640   25.2010   58.9470 O.2   118  GLY118     -0.2714
     70  N         -8.3290   24.7480   61.0850 N.am  119  GLY119     -0.1954
     71  CA        -7.0880   24.0750   60.7300 C.3   119  GLY119      0.1869
     72  C         -6.0670   24.9460   60.0330 C.2   119  GLY119      0.2309
     73  O         -5.1910   24.4340   59.3330 O.2   119  GLY119     -0.2863
     74  N         -6.5280   26.5290   57.4630 N.3   121  TYR121     -0.1227
     75  CA        -6.8600   26.6420   56.0520 C.3   121  TYR121      0.1736
     76  C         -8.1560   27.3910   55.7640 C.2   121  TYR121      0.2596
     77  O         -8.4600   27.6140   54.5870 O.2   121  TYR121     -0.2718
     78  CB        -6.8940   25.2530   55.3810 C.3   121  TYR121      0.0548
     79  CG        -8.1430   24.4230   55.6040 C.ar  121  TYR121     -0.0200
     80  CD1       -9.2200   24.5220   54.7340 C.ar  121  TYR121     -0.0009
     81  CD2       -8.2130   23.4800   56.6270 C.ar  121  TYR121     -0.0009
     82  CE1      -10.3560   23.7660   54.9120 C.ar  121  TYR121      0.0417
     83  CE2       -9.3500   22.7100   56.8090 C.ar  121  TYR121      0.0417
     84  CZ       -10.4180   22.8600   55.9430 C.ar  121  TYR121      0.1957
     85  OH       -11.5580   22.1080   56.0960 O.3   121  TYR121     -0.2866
     86  N         -8.9240   27.7900   56.7760 N.am  122  SER122     -0.1952
     87  CA       -10.2880   28.2500   56.5120 C.3   122  SER122      0.1924
     88  C        -10.8660   28.9300   57.7510 C.2   122  SER122      0.2314
     89  O        -10.1990   29.0830   58.7790 O.2   122  SER122     -0.2863
     90  CB       -11.1940   27.0950   56.0670 C.3   122  SER122      0.2116
     91  OG       -11.5230   26.2410   57.1470 O.3   122  SER122     -0.2180
     92  N        -20.4930   31.9000   65.5080 N.3   130  TYR130     -0.1241
     93  CA       -19.6040   32.8370   66.1840 C.3   130  TYR130      0.1605
     94  C        -20.3010   34.1290   66.5990 C.2   130  TYR130      0.2264
     95  O        -19.6300   35.0590   67.0580 O.2   130  TYR130     -0.2867
     96  CB       -18.3900   33.1450   65.3060 C.3   130  TYR130      0.0534
     97  CG       -17.5880   31.9070   64.9590 C.ar  130  TYR130     -0.0201
     98  CD1      -17.5080   30.8420   65.8470 C.ar  130  TYR130     -0.0009
     99  CD2      -16.9140   31.8030   63.7480 C.ar  130  TYR130     -0.0009
    100  CE1      -16.7880   29.7060   65.5360 C.ar  130  TYR130      0.0417
    101  CE2      -16.1880   30.6700   63.4290 C.ar  130  TYR130      0.0417
    102  CZ       -16.1250   29.6240   64.3270 C.ar  130  TYR130      0.1957
    103  OH       -15.3990   28.4920   64.0140 O.3   130  TYR130     -0.2866
    104  N        -11.1420   27.7400   69.2680 N.3   199  GLU199     -0.1231
    105  CA       -11.3880   26.3300   69.0100 C.3   199  GLU199      0.1699
    106  C        -10.6380   25.9060   67.7560 C.2   199  GLU199      0.2592
    107  O        -10.4320   26.7070   66.8420 O.2   199  GLU199     -0.2718
    108  CB       -12.8950   26.0490   68.8630 C.3   199  GLU199      0.0402
    109  CG       -13.2650   24.5740   68.8040 C.3   199  GLU199      0.1161
    110  CD       -13.2470   24.0290   67.3880 C.2   199  GLU199      0.3649
    111  OE1      -13.2630   24.8430   66.4360 O.co2 199  GLU199     -0.2457
    112  OE2      -13.1950   22.7920   67.2280 O.co2 199  GLU199     -0.2457
    113  N        -10.2330   24.6370   67.7270 N.am  200  SER200     -0.1952
    114  CA        -9.4880   24.0390   66.6060 C.3   200  SER200      0.1924
    115  C         -8.2100   24.8550   66.4250 C.2   200  SER200      0.2314
    116  O         -7.5460   25.1540   67.4320 O.2   200  SER200     -0.2863
    117  CB       -10.3880   23.9390   65.3770 C.3   200  SER200      0.2116
    118  OG        -9.7320   23.2580   64.3170 O.3   200  SER200     -0.2180
    119  N         -3.7160   21.5930   48.8970 N.3   283  TRP283     -0.1241
    120  CA        -3.6880   20.2700   49.5130 C.3   283  TRP283      0.1605
    121  C         -2.6690   19.3260   48.8880 C.2   283  TRP283      0.2264
    122  O         -2.4620   18.2300   49.4190 O.2   283  TRP283     -0.2867
    123  CB        -5.0750   19.6180   49.4500 C.3   283  TRP283      0.0550
    124  CG        -6.1110   20.3550   50.2420 C.ar  283  TRP283      0.0003
    125  CD1       -7.0360   21.2400   49.7650 C.ar  283  TRP283      0.0946
    126  CD2       -6.3020   20.3030   51.6630 C.ar  283  TRP283      0.0152
    127  NE1       -7.8030   21.7290   50.7990 N.ar  283  TRP283     -0.2442
    128  CE2       -7.3700   21.1720   51.9740 C.ar  283  TRP283      0.0810
    129  CE3       -5.6780   19.6030   52.7020 C.ar  283  TRP283      0.0012
    130  CZ2       -7.8250   21.3580   53.2760 C.ar  283  TRP283      0.0191
    131  CZ3       -6.1310   19.7900   53.9950 C.ar  283  TRP283      0.0001
    132  CH2       -7.1950   20.6580   54.2700 C.ar  283  TRP283      0.0015
    133  N          0.9670   18.2150   50.8630 N.3   286  LEU286     -0.1245
    134  CA         1.0450   17.3850   52.0620 C.3   286  LEU286      0.1561
    135  C          1.9670   16.1900   51.8130 C.2   286  LEU286      0.2260
    136  O          1.8960   15.5600   50.7530 O.2   286  LEU286     -0.2867
    137  CB        -0.3470   16.9070   52.4780 C.3   286  LEU286      0.0270
    138  CG        -1.2270   17.9480   53.1790 C.3   286  LEU286      0.0019
    139  CD1       -2.5840   17.3670   53.5340 C.3   286  LEU286      0.0001
    140  CD2       -0.5350   18.4840   54.4150 C.3   286  LEU286      0.0001
    141  N         -3.2470   11.7420   54.1320 N.3   290  SER290     -0.1202
    142  CA        -3.5540   11.9610   55.5340 C.3   290  SER290      0.2020
    143  C         -4.8930   12.6610   55.6850 C.2   290  SER290      0.2619
    144  O         -5.3890   13.3140   54.7640 O.2   290  SER290     -0.2717
    145  CB        -2.4580   12.7910   56.2080 C.3   290  SER290      0.2103
    146  OG        -2.3490   14.0690   55.6070 O.3   290  SER290     -0.2182
    147  N         -5.4580   12.5210   56.8820 N.am  291  ILE291     -0.1965
    148  CA        -6.5430   13.3590   57.3630 C.3   291  ILE291      0.1727
    149  C         -6.0690   14.0260   58.6470 C.2   291  ILE291      0.2616
    150  O         -5.1270   13.5700   59.3030 O.2   291  ILE291     -0.2715
    151  CB        -7.8430   12.5690   57.6010 C.3   291  ILE291      0.0290
    152  CG1       -7.6110   11.4540   58.6250 C.3   291  ILE291      0.0022
    153  CG2       -8.3650   12.0070   56.2870 C.3   291  ILE291      0.0023
    154  CD1       -8.8910   10.8570   59.1700 C.3   291  ILE291      0.0001
    155  N         -6.7340   15.1260   58.9980 N.am  292  PHE292     -0.1960
    156  CA        -6.3330   15.9570   60.1340 C.3   292  PHE292      0.1771
    157  C         -4.8800   16.4100   59.9850 C.2   292  PHE292      0.2619
    158  O         -4.0890   16.3640   60.9290 O.2   292  PHE292     -0.2715
    159  CB        -6.5600   15.2280   61.4620 C.3   292  PHE292      0.0574
    160  CG        -6.9900   16.1280   62.5900 C.ar  292  PHE292     -0.0200
    161  CD1       -6.3230   17.3170   62.8480 C.ar  292  PHE292     -0.0042
    162  CD2       -8.0690   15.7860   63.3910 C.ar  292  PHE292     -0.0042
    163  CE1       -6.7210   18.1460   63.8890 C.ar  292  PHE292     -0.0003
    164  CE2       -8.4680   16.6090   64.4360 C.ar  292  PHE292     -0.0003
    165  CZ        -7.7950   17.7910   64.6820 C.ar  292  PHE292     -0.0000
    166  N         -4.5250   16.8180   58.7670 N.am  293  ARG293     -0.1963
    167  CA        -3.2640   17.4770   58.4550 C.3   293  ARG293      0.1729
    168  C         -3.5650   18.6240   57.5060 C.2   293  ARG293      0.2616
    169  O         -4.3610   18.4720   56.5750 O.2   293  ARG293     -0.2715
    170  CB        -2.2520   16.5270   57.8060 C.3   293  ARG293      0.0348
    171  CG        -1.7240   15.4550   58.7190 C.3   293  ARG293      0.0492
    172  CD        -0.8540   16.0420   59.8080 C.3   293  ARG293      0.2205
    173  NE        -0.2680   14.9870   60.6240 N.pl3 293  ARG293     -0.0865
    174  CZ        -0.8460   14.4780   61.7040 C.cat 293  ARG293      0.5346
    175  NH1       -2.0230   14.9410   62.1050 N.pl3 293  ARG293      0.1354
    176  NH2       -0.2480   13.5090   62.3820 N.pl3 293  ARG293      0.1354
    177  N         -2.9330   19.7680   57.7400 N.am  294  PHE294     -0.1974
    178  CA        -3.2060   20.9630   56.9570 C.3   294  PHE294      0.1639
    179  C         -1.8990   21.5180   56.4190 C.2   294  PHE294      0.2290
    180  O         -0.8760   21.5000   57.1130 O.2   294  PHE294     -0.2864
    181  CB        -3.9400   21.9840   57.8070 C.3   294  PHE294      0.0560
    182  CG        -4.9800   21.3680   58.6980 C.ar  294  PHE294     -0.0200
    183  CD1       -6.1760   20.9040   58.1710 C.ar  294  PHE294     -0.0042
    184  CD2       -4.7480   21.2130   60.0490 C.ar  294  PHE294     -0.0042
    185  CE1       -7.1280   20.3230   58.9830 C.ar  294  PHE294     -0.0003
    186  CE2       -5.6960   20.6320   60.8590 C.ar  294  PHE294     -0.0003
    187  CZ        -6.8870   20.1860   60.3250 C.ar  294  PHE294     -0.0000
    188  N        -15.7900   12.9870   61.9850 N.3   334  TYR334     -0.1227
    189  CA       -16.0670   13.3140   60.5880 C.3   334  TYR334      0.1736
    190  C        -14.8070   13.3960   59.7340 C.2   334  TYR334      0.2595
    191  O        -14.8940   13.2200   58.5110 O.2   334  TYR334     -0.2718
    192  CB       -16.8870   14.6060   60.4700 C.3   334  TYR334      0.0548
    193  CG       -16.3230   15.8720   61.0930 C.ar  334  TYR334     -0.0200
    194  CD1      -15.1240   16.4290   60.6610 C.ar  334  TYR334     -0.0009
    195  CD2      -17.0510   16.5670   62.0530 C.ar  334  TYR334     -0.0009
    196  CE1      -14.6360   17.6060   61.2190 C.ar  334  TYR334      0.0417
    197  CE2      -16.5750   17.7480   62.6090 C.ar  334  TYR334      0.0417
    198  CZ       -15.3690   18.2610   62.1880 C.ar  334  TYR334      0.1957
    199  OH       -14.8930   19.4300   62.7400 O.3   334  TYR334     -0.2866
    200  N        -13.6380   13.6080   60.3430 N.am  335  PHE335     -0.1976
    201  CA       -12.3990   13.5300   59.5790 C.3   335  PHE335      0.1639
    202  C        -12.3150   12.2170   58.8100 C.2   335  PHE335      0.2290
    203  O        -11.7590   12.1740   57.7050 O.2   335  PHE335     -0.2864
    204  CB       -11.1940   13.6720   60.5120 C.3   335  PHE335      0.0560
    205  CG       -11.0970   15.0150   61.1710 C.ar  335  PHE335     -0.0200
    206  CD1      -10.4700   16.0740   60.5320 C.ar  335  PHE335     -0.0042
    207  CD2      -11.6180   15.2160   62.4390 C.ar  335  PHE335     -0.0042
    208  CE1      -10.3850   17.3180   61.1400 C.ar  335  PHE335     -0.0003
    209  CE2      -11.5320   16.4520   63.0540 C.ar  335  PHE335     -0.0003
    210  CZ       -10.9170   17.5060   62.4040 C.ar  335  PHE335     -0.0000
    211  N        -13.3150   12.0490   55.1880 N.3   338  TYR338     -0.1241
    212  CA       -12.4840   12.9250   54.3820 C.3   338  TYR338      0.1605
    213  C        -11.4160   12.1590   53.6010 C.2   338  TYR338      0.2264
    214  O        -10.4230   12.7590   53.1750 O.2   338  TYR338     -0.2867
    215  CB       -11.9260   14.0660   55.2310 C.3   338  TYR338      0.0534
    216  CG       -12.9590   15.1800   55.2940 C.ar  338  TYR338     -0.0201
    217  CD1      -13.0290   16.1450   54.2940 C.ar  338  TYR338     -0.0009
    218  CD2      -13.9110   15.2230   56.3100 C.ar  338  TYR338     -0.0009
    219  CE1      -13.9890   17.1450   54.3260 C.ar  338  TYR338      0.0417
    220  CE2      -14.8740   16.2190   56.3490 C.ar  338  TYR338      0.0417
    221  CZ       -14.9080   17.1770   55.3550 C.ar  338  TYR338      0.1957
    222  OH       -15.8660   18.1670   55.3960 O.3   338  TYR338     -0.2866
    223  N        -25.0730   15.7400   61.2970 N.3   436  TRP436     -0.1241
    224  CA       -24.1760   14.6300   61.0130 C.3   436  TRP436      0.1605
    225  C        -24.8150   13.3110   61.4490 C.2   436  TRP436      0.2264
    226  O        -25.7770   13.3040   62.2230 O.2   436  TRP436     -0.2867
    227  CB       -22.8370   14.8490   61.7170 C.3   436  TRP436      0.0550
    228  CG       -22.0170   15.9620   61.1170 C.ar  436  TRP436      0.0003
    229  CD1      -21.8930   17.2340   61.5940 C.ar  436  TRP436      0.0946
    230  CD2      -21.2140   15.9020   59.9260 C.ar  436  TRP436      0.0152
    231  NE1      -21.0650   17.9700   60.7780 N.ar  436  TRP436     -0.2442
    232  CE2      -20.6350   17.1760   59.7480 C.ar  436  TRP436      0.0810
    233  CE3      -20.9300   14.8970   58.9950 C.ar  436  TRP436      0.0012
    234  CZ2      -19.7880   17.4700   58.6790 C.ar  436  TRP436      0.0191
    235  CZ3      -20.0870   15.1920   57.9350 C.ar  436  TRP436      0.0001
    236  CH2      -19.5260   16.4670   57.7870 C.ar  436  TRP436      0.0015
    237  N        -16.1620   17.3000   66.0650 N.3   444  HIS444     -0.1241
    238  CA       -15.1590   18.3130   66.3580 C.3   444  HIS444      0.1621
    239  C        -15.7670   19.7030   66.1890 C.2   444  HIS444      0.2264
    240  O        -16.2820   20.0400   65.1160 O.2   444  HIS444     -0.2867
    241  CB       -13.9650   18.1030   65.4250 C.3   444  HIS444      0.0745
    242  CG       -12.8330   19.0580   65.6380 C.ar  444  HIS444      0.0817
    243  ND1      -12.2380   19.2540   66.8660 N.ar  444  HIS444     -0.2268
    244  CD2      -12.1660   19.8520   64.7660 C.ar  444  HIS444      0.1154
    245  CE1      -11.2640   20.1380   66.7440 C.ar  444  HIS444      0.1986
    246  NE2      -11.1990   20.5160   65.4800 N.ar  444  HIS444     -0.2212
@<TRIPOS>BOND
     1     9     7   ar
     2     9    11   ar
     3     7     6   ar
     4   121   122    2
     5   121   120    1
     6   119   120    1
     7    12    11    1
     8    24    23    2
     9    11    10   ar
    10   123   120    1
    11   123   124    1
    12    21    22    1
    13   125   124   ar
    14   125   127   ar
    15    22    23    1
    16    22    25    1
    17     6     5    1
    18     6     8   ar
    19     2     5    1
    20     2     1    1
    21     2     3    1
    22   124   126   ar
    23    15    16    2
    24    15    14    1
    25    27    26    1
    26    10     8   ar
    27   136   135    2
    28   127   128   ar
    29     3     4    2
    30   133   134    1
    31    25    26    1
    32    13    14    1
    33    14    17    1
    34    26    28    1
    35   126   128   ar
    36   126   129   ar
    37   135   134    1
    38   128   130   ar
    39   134   137    1
    40    61    59   am
    41   137   138    1
    42    19    18   ar
    43   129   131   ar
    44    17    18    1
    45    59    60    2
    46    59    58    1
    47    18    20   ar
    48   214   213    2
    49   138   139    1
    50   138   140    1
    51   130   132   ar
    52    58    55    1
    53   213   212    1
    54   131   132   ar
    55    38    37    1
    56   141   142    1
    57   217   219   ar
    58   217   216   ar
    59   219   221   ar
    60   212   211    1
    61   212   215    1
    62    77    76    2
    63    80    82   ar
    64    80    79   ar
    65   144   143    2
    66    55    56    1
    67    55    54    1
    68    56    57    2
    69    82    84   ar
    70    37    39    1
    71    37    34    1
    72   215   216    1
    73   216   218   ar
    74   221   222    1
    75   221   220   ar
    76    78    79    1
    77    78    75    1
    78   142   143    1
    79   142   145    1
    80    79    81   ar
    81   146   145    1
    82   143   147   am
    83    76    75    1
    84    76    86   am
    85    35    36    2
    86    35    34    1
    87    84    85    1
    88    84    83   ar
    89    54    42   am
    90    75    74    1
    91    90    87    1
    92    90    91    1
    93    34    33    1
    94   153   151    1
    95   218   220   ar
    96   179   178    1
    97   179   180    2
    98    87    86    1
    99    87    88    1
   100   169   168    2
   101    81    83   ar
   102    33    31   am
   103   147   148    1
   104   178   177    1
   105   178   181    1
   106    42    43    2
   107    42    41    1
   108   148   151    1
   109   148   149    1
   110   168   177   am
   111   168   167    1
   112   151   152    1
   113   203   202    2
   114    88    89    2
   115   236   235   ar
   116   236   234   ar
   117   170   167    1
   118   170   171    1
   119   181   182    1
   120    29    30    1
   121   235   233   ar
   122    31    30    1
   123    31    32    2
   124   183   182   ar
   125   183   185   ar
   126    40    41    1
   127    41    44    1
   128   167   166    1
   129   191   190    2
   130   152   154    1
   131   149   155   am
   132   149   150    2
   133   234   232   ar
   134   182   184   ar
   135   171   172    1
   136   166   157   am
   137    44    45    1
   138   202   201    1
   139    69    68    2
   140   185   187   ar
   141   233   230   ar
   142   155   156    1
   143    73    72    2
   144   201   200    1
   145   201   204    1
   146   190   200   am
   147   190   189    1
   148   232   230   ar
   149   232   231   ar
   150    46    45   ar
   151    46    48   ar
   152   172   173    1
   153    45    47   ar
   154   230   228   ar
   155   157   156    1
   156   157   158    2
   157    72    71    1
   158   184   186   ar
   159   156   159    1
   160    68    67    1
   161    68    70   am
   162   187   186   ar
   163   192   189    1
   164   192   193    1
   165   204   205    1
   166   206   208   ar
   167   206   205   ar
   168    67    66    1
   169   189   188    1
   170   173   174    2
   171   194   193   ar
   172   194   196   ar
   173    71    70    1
   174   231   229   ar
   175   224   223    1
   176   224   225    1
   177   224   227    1
   178    48    49   ar
   179   193   195   ar
   180   228   229   ar
   181   228   227    1
   182   208   210   ar
   183   205   207   ar
   184   196   198   ar
   185    47    49   ar
   186    47    50   ar
   187   225   226    2
   188   159   160    1
   189    65    64    2
   190   174   175    1
   191   174   176    1
   192    66    64   am
   193    49    51   ar
   194    50    52   ar
   195   195   197   ar
   196   198   197   ar
   197   198   199    1
   198    64    63    1
   199   210   209   ar
   200   207   209   ar
   201   160   161   ar
   202   160   162   ar
   203   161   163   ar
   204    51    53   ar
   205   162   164   ar
   206   101    99   ar
   207   101   102   ar
   208    52    53   ar
   209    99    97   ar
   210   163   165   ar
   211    63    62    1
   212   103   102    1
   213   118   117    1
   214   102   100   ar
   215   164   165   ar
   216   244   246   ar
   217   244   242   ar
   218    97    96    1
   219    97    98   ar
   220   240   239    2
   221    96    93    1
   222   117   114    1
   223   241   242    1
   224   241   238    1
   225   246   245   ar
   226    92    93    1
   227   100    98   ar
   228   242   243   ar
   229   237   238    1
   230    93    94    1
   231   239   238    1
   232   115   114    1
   233   115   116    2
   234   111   110   ar
   235    94    95    2
   236   114   113    1
   237   245   243   ar
   238   107   106    2
   239   112   110   ar
   240   110   109    1
   241   113   106   am
   242   106   105    1
   243   109   108    1
   244   108   105    1
   245   105   104    1
