@<TRIPOS>MOLECULE
tmp/5fkjC00.pdb
 266 266 0 0 0
SMALL
GASTEIGER

@<TRIPOS>ATOM
      1  N         12.3640   22.6810   25.1680 N.3    69  TYR69      -0.1241
      2  CA        12.6470   23.8730   25.9500 C.3    69  TYR69       0.1605
      3  C         13.8820   24.5850   25.4000 C.2    69  TYR69       0.2264
      4  O         14.8180   23.9580   24.8950 O.2    69  TYR69      -0.2867
      5  CB        12.8470   23.4770   27.4160 C.3    69  TYR69       0.0534
      6  CG        13.1940   24.6040   28.3510 C.ar   69  TYR69      -0.0201
      7  CD1       12.1920   25.3580   28.9480 C.ar   69  TYR69      -0.0009
      8  CD2       14.5120   24.8970   28.6650 C.ar   69  TYR69      -0.0009
      9  CE1       12.4870   26.3870   29.8090 C.ar   69  TYR69       0.0417
     10  CE2       14.8190   25.9240   29.5280 C.ar   69  TYR69       0.0417
     11  CZ        13.8020   26.6690   30.0970 C.ar   69  TYR69       0.1957
     12  OH        14.1070   27.7000   30.9570 O.3    69  TYR69      -0.2866
     13  N         16.9550   27.3810   26.3000 N.3    71  ASP71      -0.1225
     14  CA        17.6400   27.8120   27.5140 C.3    71  ASP71       0.1805
     15  C         17.6740   29.3350   27.5470 C.2    71  ASP71       0.2598
     16  O         18.2930   29.9790   26.6920 O.2    71  ASP71      -0.2718
     17  CB        19.0490   27.2280   27.5590 C.3    71  ASP71       0.1424
     18  CG        19.7460   27.4790   28.8850 C.2    71  ASP71       0.3668
     19  OD1       20.1250   28.6440   29.1400 O.co2  71  ASP71      -0.2456
     20  OD2       19.9380   26.5120   29.6570 O.co2  71  ASP71      -0.2456
     21  N         16.9910   29.9070   28.5330 N.am   72  THR72      -0.1953
     22  CA        16.8820   31.3470   28.7040 C.3    72  THR72       0.1897
     23  C         17.7850   31.9320   29.7860 C.2    72  THR72       0.2313
     24  O         17.7680   33.1520   29.9850 O.2    72  THR72      -0.2863
     25  CB        15.4270   31.7040   28.9910 C.3    72  THR72       0.1794
     26  OG1       14.9940   31.0320   30.1870 O.3    72  THR72      -0.2208
     27  CG2       14.5640   31.2760   27.8120 C.3    72  THR72       0.0378
     28  N         27.9940   30.0720   25.9160 N.3    79  GLY79      -0.1210
     29  CA        28.0210   28.8310   26.6760 C.3    79  GLY79       0.1956
     30  C         26.6870   28.1120   26.6960 C.2    79  GLY79       0.2612
     31  O         26.6190   26.8990   26.4820 O.2    79  GLY79      -0.2717
     32  N         25.6040   28.8440   26.9780 N.am   80  THR80      -0.1952
     33  CA        24.2800   28.2280   26.9390 C.3    80  THR80       0.1897
     34  C         23.7270   28.1500   25.5200 C.2    80  THR80       0.2313
     35  O         23.1190   27.1420   25.1450 O.2    80  THR80      -0.2863
     36  CB        23.3000   28.9800   27.8450 C.3    80  THR80       0.1794
     37  OG1       23.3230   30.3790   27.5440 O.3    80  THR80      -0.2208
     38  CG2       23.6670   28.7730   29.3070 C.3    80  THR80       0.0378
     39  N         24.0820   25.2970   22.6770 N.3    83  TRP83      -0.1227
     40  CA        23.2570   24.1000   22.7540 C.3    83  TRP83       0.1737
     41  C         21.8110   24.3290   22.3250 C.2    83  TRP83       0.2595
     42  O         21.0730   23.3500   22.1570 O.2    83  TRP83      -0.2718
     43  CB        23.2860   23.5450   24.1790 C.3    83  TRP83       0.0564
     44  CG        24.6740   23.4700   24.7490 C.ar   83  TRP83       0.0003
     45  CD1       25.2830   24.3880   25.5620 C.ar   83  TRP83       0.0946
     46  CD2       25.6370   22.4360   24.5250 C.ar   83  TRP83       0.0152
     47  NE1       26.5590   23.9780   25.8710 N.ar   83  TRP83      -0.2442
     48  CE2       26.8010   22.7830   25.2440 C.ar   83  TRP83       0.0810
     49  CE3       25.6260   21.2450   23.7950 C.ar   83  TRP83       0.0012
     50  CZ2       27.9380   21.9790   25.2520 C.ar   83  TRP83       0.0191
     51  CZ3       26.7560   20.4540   23.8030 C.ar   83  TRP83       0.0001
     52  CH2       27.8950   20.8220   24.5270 C.ar   83  TRP83       0.0015
     53  N         21.3960   25.5790   22.1180 N.am   84  ASN84      -0.1974
     54  CA        20.0070   25.8710   21.8030 C.3    84  ASN84       0.1688
     55  C         19.6860   25.5010   20.3560 C.2    84  ASN84       0.2292
     56  O         20.5860   25.4020   19.5180 O.2    84  ASN84      -0.2864
     57  CB        19.7130   27.3470   22.0490 C.3    84  ASN84       0.1181
     58  CG        19.2850   27.6240   23.4690 C.2    84  ASN84       0.2629
     59  OD1       18.8190   26.7290   24.1810 O.2    84  ASN84      -0.2716
     60  ND2       19.4490   28.8670   23.8960 N.am   84  ASN84      -0.0877
     61  N         21.7010   16.4340   26.1330 N.3   118  GLY118     -0.1210
     62  CA        20.6970   17.3730   26.5750 C.3   118  GLY118      0.1956
     63  C         19.6960   16.8720   27.5960 C.2   118  GLY118      0.2612
     64  O         18.6380   17.4910   27.7370 O.2   118  GLY118     -0.2717
     65  N         19.9590   15.7500   28.2670 N.am  119  GLY119     -0.1956
     66  CA        19.1260   15.3590   29.3940 C.3   119  GLY119      0.1869
     67  C         17.7380   14.8960   29.0210 C.2   119  GLY119      0.2309
     68  O         16.8240   14.9550   29.8470 O.2   119  GLY119     -0.2863
     69  N         15.5900   16.3900   27.4640 N.3   121  TYR121     -0.1227
     70  CA        14.6680   17.4980   27.2520 C.3   121  TYR121      0.1736
     71  C         15.0150   18.3890   26.0640 C.2   121  TYR121      0.2596
     72  O         14.2540   19.3200   25.7760 O.2   121  TYR121     -0.2718
     73  CB        14.5110   18.3310   28.5350 C.3   121  TYR121      0.0548
     74  CG        15.6410   19.2680   28.8590 C.ar  121  TYR121     -0.0200
     75  CD1       16.7270   18.8440   29.6050 C.ar  121  TYR121     -0.0009
     76  CD2       15.6150   20.5860   28.4270 C.ar  121  TYR121     -0.0009
     77  CE1       17.7580   19.7030   29.9070 C.ar  121  TYR121      0.0417
     78  CE2       16.6390   21.4480   28.7200 C.ar  121  TYR121      0.0417
     79  CZ        17.7080   21.0040   29.4590 C.ar  121  TYR121      0.1957
     80  OH        18.7290   21.8780   29.7460 O.3   121  TYR121     -0.2866
     81  N         16.1280   18.1490   25.3720 N.am  122  SER122     -0.1952
     82  CA        16.6540   19.1410   24.4390 C.3   122  SER122      0.1924
     83  C         17.6090   18.4700   23.4600 C.2   122  SER122      0.2314
     84  O         17.7720   17.2470   23.4500 O.2   122  SER122     -0.2863
     85  CB        17.3580   20.2780   25.1860 C.3   122  SER122      0.2116
     86  OG        18.5520   19.8220   25.8000 O.3   122  SER122     -0.2180
     87  N         28.2030   19.0360   16.6770 N.3   130  TYR130     -0.1241
     88  CA        27.9590   17.6960   16.1580 C.3   130  TYR130      0.1605
     89  C         28.2650   17.5820   14.6660 C.2   130  TYR130      0.2264
     90  O         27.9910   16.5360   14.0670 O.2   130  TYR130     -0.2867
     91  CB        26.5110   17.2840   16.4340 C.3   130  TYR130      0.0534
     92  CG        26.1180   17.3970   17.8870 C.ar  130  TYR130     -0.0201
     93  CD1       27.0470   17.2300   18.9080 C.ar  130  TYR130     -0.0009
     94  CD2       24.8150   17.7040   18.2370 C.ar  130  TYR130     -0.0009
     95  CE1       26.6750   17.3590   20.2400 C.ar  130  TYR130      0.0417
     96  CE2       24.4350   17.8330   19.5590 C.ar  130  TYR130      0.0417
     97  CZ        25.3640   17.6610   20.5560 C.ar  130  TYR130      0.1957
     98  OH        24.9640   17.7940   21.8630 O.3   130  TYR130     -0.2866
     99  N         26.6940   11.5010   24.1510 N.3   199  GLU199     -0.1231
    100  CA        27.0990   12.2360   25.3400 C.3   199  GLU199      0.1699
    101  C         25.8640   12.6250   26.1410 C.2   199  GLU199      0.2592
    102  O         24.7850   12.8270   25.5790 O.2   199  GLU199     -0.2718
    103  CB        27.9160   13.4840   24.9650 C.3   199  GLU199      0.0402
    104  CG        28.6220   14.1740   26.1230 C.3   199  GLU199      0.1161
    105  CD        27.7550   15.2290   26.8000 C.2   199  GLU199      0.3649
    106  OE1       26.6900   15.5730   26.2470 O.co2 199  GLU199     -0.2457
    107  OE2       28.1420   15.7230   27.8790 O.co2 199  GLU199     -0.2457
    108  N         26.0310   12.7240   27.4610 N.am  200  SER200     -0.1952
    109  CA        24.9380   13.0190   28.4010 C.3   200  SER200      0.1924
    110  C         23.8040   12.0330   28.1150 C.2   200  SER200      0.2314
    111  O         24.0580   10.8210   28.0710 O.2   200  SER200     -0.2863
    112  CB        24.5540   14.4920   28.3190 C.3   200  SER200      0.2116
    113  OG        23.4710   14.7890   29.1940 O.3   200  SER200     -0.2180
    114  N          5.6740   22.2710   26.7960 N.3   279  VAL279     -0.1231
    115  CA         7.0170   22.7170   27.1740 C.3   279  VAL279      0.1692
    116  C          6.9540   23.6880   28.3490 C.2   279  VAL279      0.2592
    117  O          7.8080   23.6600   29.2460 O.2   279  VAL279     -0.2718
    118  CB         7.7380   23.3430   25.9670 C.3   279  VAL279      0.0266
    119  CG1        9.1260   23.7960   26.3700 C.3   279  VAL279      0.0020
    120  CG2        7.8230   22.3460   24.8420 C.3   279  VAL279      0.0020
    121  N          5.9430   24.5590   28.3630 N.am  280  ASP280     -0.1974
    122  CA         5.8010   25.5250   29.4470 C.3   280  ASP280      0.1709
    123  C          5.5760   24.8250   30.7800 C.2   280  ASP280      0.2293
    124  O          6.0940   25.2670   31.8130 O.2   280  ASP280     -0.2864
    125  CB         4.6500   26.4990   29.1640 C.3   280  ASP280      0.1436
    126  CG         5.0100   27.5640   28.1290 C.2   280  ASP280      0.3671
    127  OD1        6.2060   27.7080   27.7950 O.co2 280  ASP280     -0.2456
    128  OD2        4.0900   28.2690   27.6530 O.co2 280  ASP280     -0.2456
    129  N          8.4750   21.3150   33.4300 N.3   283  TRP283     -0.1227
    130  CA         9.3220   21.3020   34.6190 C.3   283  TRP283      0.1737
    131  C          8.5270   21.3150   35.9210 C.2   283  TRP283      0.2595
    132  O          9.1180   21.1210   36.9890 O.2   283  TRP283     -0.2718
    133  CB        10.2810   22.4980   34.6000 C.3   283  TRP283      0.0564
    134  CG        11.2650   22.4810   33.4670 C.ar  283  TRP283      0.0003
    135  CD1       11.1260   23.0900   32.2460 C.ar  283  TRP283      0.0946
    136  CD2       12.5390   21.8270   33.4430 C.ar  283  TRP283      0.0152
    137  NE1       12.2350   22.8480   31.4670 N.ar  283  TRP283     -0.2442
    138  CE2       13.1160   22.0770   32.1790 C.ar  283  TRP283      0.0810
    139  CE3       13.2470   21.0530   34.3640 C.ar  283  TRP283      0.0012
    140  CZ2       14.3660   21.5800   31.8200 C.ar  283  TRP283      0.0191
    141  CZ3       14.4880   20.5620   34.0030 C.ar  283  TRP283      0.0001
    142  CH2       15.0340   20.8290   32.7460 C.ar  283  TRP283      0.0015
    143  N          7.2110   21.5340   35.8630 N.am  284  HIS284     -0.1975
    144  CA         6.4040   21.6400   37.0740 C.3   284  HIS284      0.1656
    145  C          6.2960   20.3250   37.8370 C.2   284  HIS284      0.2291
    146  O          5.9570   20.3430   39.0240 O.2   284  HIS284     -0.2864
    147  CB         4.9890   22.1180   36.7350 C.3   284  HIS284      0.0771
    148  CG         4.9080   23.5270   36.2330 C.ar  284  HIS284      0.0820
    149  ND1        5.8520   24.0810   35.3960 N.ar  284  HIS284     -0.2267
    150  CD2        3.9580   24.4760   36.4090 C.ar  284  HIS284      0.1154
    151  CE1        5.5070   25.3240   35.1090 C.ar  284  HIS284      0.1986
    152  NE2        4.3590   25.5870   35.7080 N.ar  284  HIS284     -0.2212
    153  N          8.5680   17.8880   38.5430 N.3   286  LEU286     -0.1245
    154  CA         9.6950   17.3370   39.2850 C.3   286  LEU286      0.1561
    155  C          9.3480   17.2640   40.7720 C.2   286  LEU286      0.2260
    156  O          8.8580   18.2530   41.3380 O.2   286  LEU286     -0.2867
    157  CB        10.9420   18.1930   39.0660 C.3   286  LEU286      0.0270
    158  CG        11.6730   17.9910   37.7380 C.3   286  LEU286      0.0019
    159  CD1       12.8890   18.8980   37.6600 C.3   286  LEU286      0.0001
    160  CD2       12.0820   16.5450   37.5740 C.3   286  LEU286      0.0001
    161  N         15.6390   20.4950   42.8400 N.3   290  SER290     -0.1202
    162  CA        16.7690   19.6970   42.3940 C.3   290  SER290      0.2020
    163  C         17.4420   20.3490   41.2010 C.2   290  SER290      0.2619
    164  O         16.8660   21.2010   40.5200 O.2   290  SER290     -0.2717
    165  CB        16.3310   18.2810   42.0200 C.3   290  SER290      0.2103
    166  OG        15.3860   18.3150   40.9690 O.3   290  SER290     -0.2182
    167  N         18.6840   19.9300   40.9760 N.am  291  ILE291     -0.1965
    168  CA        19.4080   20.1440   39.7340 C.3   291  ILE291      0.1727
    169  C         19.8700   18.7800   39.2420 C.2   291  ILE291      0.2616
    170  O         19.9360   17.8090   40.0000 O.2   291  ILE291     -0.2715
    171  CB        20.6020   21.1060   39.8930 C.3   291  ILE291      0.0290
    172  CG1       21.6260   20.5320   40.8710 C.3   291  ILE291      0.0022
    173  CG2       20.1240   22.4650   40.3580 C.3   291  ILE291      0.0023
    174  CD1       22.9630   21.2240   40.8150 C.3   291  ILE291      0.0001
    175  N         20.1800   18.7150   37.9490 N.am  292  PHE292     -0.1960
    176  CA        20.5000   17.4540   37.2800 C.3   292  PHE292      0.1771
    177  C         19.3590   16.4440   37.4410 C.2   292  PHE292      0.2619
    178  O         19.5780   15.2600   37.7110 O.2   292  PHE292     -0.2715
    179  CB        21.8270   16.8800   37.7840 C.3   292  PHE292      0.0574
    180  CG        22.6310   16.1820   36.7210 C.ar  292  PHE292     -0.0200
    181  CD1       22.0210   15.3190   35.8260 C.ar  292  PHE292     -0.0042
    182  CD2       23.9940   16.4030   36.6060 C.ar  292  PHE292     -0.0042
    183  CE1       22.7570   14.6810   34.8470 C.ar  292  PHE292     -0.0003
    184  CE2       24.7360   15.7660   35.6240 C.ar  292  PHE292     -0.0003
    185  CZ        24.1170   14.9050   34.7480 C.ar  292  PHE292     -0.0000
    186  N         18.1240   16.9270   37.2970 N.am  293  ARG293     -0.1963
    187  CA        16.9350   16.0840   37.2450 C.3   293  ARG293      0.1729
    188  C         16.0400   16.6030   36.1350 C.2   293  ARG293      0.2616
    189  O         15.8240   17.8150   36.0320 O.2   293  ARG293     -0.2715
    190  CB        16.1690   16.0850   38.5710 C.3   293  ARG293      0.0348
    191  CG        16.8480   15.3400   39.6950 C.3   293  ARG293      0.0492
    192  CD        16.9090   13.8530   39.4380 C.3   293  ARG293      0.2205
    193  NE        17.5010   13.1730   40.5830 N.pl3 293  ARG293     -0.0865
    194  CZ        18.8040   12.9640   40.7350 C.cat 293  ARG293      0.5346
    195  NH1       19.6580   13.3710   39.8030 N.pl3 293  ARG293      0.1354
    196  NH2       19.2540   12.3460   41.8180 N.pl3 293  ARG293      0.1354
    197  N         15.5210   15.6930   35.3150 N.am  294  PHE294     -0.1974
    198  CA        14.7170   16.0530   34.1590 C.3   294  PHE294      0.1639
    199  C         13.3930   15.3060   34.2190 C.2   294  PHE294      0.2290
    200  O         13.3610   14.1190   34.5580 O.2   294  PHE294     -0.2864
    201  CB        15.4720   15.7400   32.8710 C.3   294  PHE294      0.0560
    202  CG        16.9440   16.0340   32.9560 C.ar  294  PHE294     -0.0200
    203  CD1       17.4130   17.3350   32.8870 C.ar  294  PHE294     -0.0042
    204  CD2       17.8570   15.0080   33.1240 C.ar  294  PHE294     -0.0042
    205  CE1       18.7720   17.6050   32.9730 C.ar  294  PHE294     -0.0003
    206  CE2       19.2140   15.2730   33.2140 C.ar  294  PHE294     -0.0003
    207  CZ        19.6710   16.5720   33.1380 C.ar  294  PHE294     -0.0000
    208  N         28.5950   23.4870   35.9180 N.3   334  TYR334     -0.1227
    209  CA        27.6000   24.5060   35.5980 C.3   334  TYR334      0.1736
    210  C         26.1860   24.1350   36.0250 C.2   334  TYR334      0.2595
    211  O         25.2900   24.9750   35.9010 O.2   334  TYR334     -0.2718
    212  CB        27.6020   24.8690   34.1000 C.3   334  TYR334      0.0548
    213  CG        27.3670   23.7670   33.0720 C.ar  334  TYR334     -0.0200
    214  CD1       26.2440   22.9530   33.1200 C.ar  334  TYR334     -0.0009
    215  CD2       28.2270   23.6200   31.9890 C.ar  334  TYR334     -0.0009
    216  CE1       26.0250   21.9760   32.1640 C.ar  334  TYR334      0.0417
    217  CE2       28.0130   22.6550   31.0250 C.ar  334  TYR334      0.0417
    218  CZ        26.9130   21.8340   31.1170 C.ar  334  TYR334      0.1957
    219  OH        26.7030   20.8690   30.1540 O.3   334  TYR334     -0.2866
    220  N         25.9510   22.9190   36.5160 N.am  335  PHE335     -0.1976
    221  CA        24.6300   22.6220   37.0560 C.3   335  PHE335      0.1639
    222  C         24.3310   23.4960   38.2690 C.2   335  PHE335      0.2290
    223  O         23.1710   23.8560   38.5100 O.2   335  PHE335     -0.2864
    224  CB        24.5300   21.1340   37.4020 C.3   335  PHE335      0.0560
    225  CG        24.4750   20.2420   36.1940 C.ar  335  PHE335     -0.0200
    226  CD1       23.2610   19.9420   35.5970 C.ar  335  PHE335     -0.0042
    227  CD2       25.6310   19.7160   35.6440 C.ar  335  PHE335     -0.0042
    228  CE1       23.1980   19.1370   34.4710 C.ar  335  PHE335     -0.0003
    229  CE2       25.5750   18.9030   34.5150 C.ar  335  PHE335     -0.0003
    230  CZ        24.3560   18.6170   33.9290 C.ar  335  PHE335     -0.0000
    231  N         22.1920   26.6260   38.1270 N.3   338  TYR338     -0.1241
    232  CA        20.8190   26.3450   37.7450 C.3   338  TYR338      0.1605
    233  C         19.8580   26.3780   38.9400 C.2   338  TYR338      0.2264
    234  O         18.7520   25.8300   38.8540 O.2   338  TYR338     -0.2867
    235  CB        20.7450   25.0600   36.9290 C.3   338  TYR338      0.0534
    236  CG        21.0340   25.3940   35.4820 C.ar  338  TYR338     -0.0201
    237  CD1       20.0290   25.8420   34.6310 C.ar  338  TYR338     -0.0009
    238  CD2       22.3300   25.3390   34.9860 C.ar  338  TYR338     -0.0009
    239  CE1       20.3040   26.1800   33.3030 C.ar  338  TYR338      0.0417
    240  CE2       22.6140   25.6720   33.6640 C.ar  338  TYR338      0.0417
    241  CZ        21.5990   26.0910   32.8310 C.ar  338  TYR338      0.1957
    242  OH        21.8910   26.4160   31.5280 O.3   338  TYR338     -0.2866
    243  N         32.6410   29.7440   29.6430 N.3   436  TRP436     -0.1241
    244  CA        32.2370   29.6110   31.0330 C.3   436  TRP436      0.1605
    245  C         33.3720   30.0730   31.9480 C.2   436  TRP436      0.2264
    246  O         34.5380   30.0900   31.5410 O.2   436  TRP436     -0.2867
    247  CB        31.8520   28.1640   31.3350 C.3   436  TRP436      0.0550
    248  CG        30.5790   27.6990   30.6720 C.ar  436  TRP436      0.0003
    249  CD1       30.4790   26.9580   29.5330 C.ar  436  TRP436      0.0946
    250  CD2       29.2310   27.9350   31.1140 C.ar  436  TRP436      0.0152
    251  NE1       29.1590   26.7190   29.2340 N.ar  436  TRP436     -0.2442
    252  CE2       28.3720   27.3080   30.1870 C.ar  436  TRP436      0.0810
    253  CE3       28.6680   28.6170   32.2000 C.ar  436  TRP436      0.0012
    254  CZ2       26.9800   27.3400   30.3110 C.ar  436  TRP436      0.0191
    255  CZ3       27.2830   28.6490   32.3230 C.ar  436  TRP436      0.0001
    256  CH2       26.4580   28.0140   31.3820 C.ar  436  TRP436      0.0015
    257  N         30.5440   20.0010   31.6900 N.3   444  HIS444     -0.1241
    258  CA        29.8290   18.8660   31.1150 C.3   444  HIS444      0.1621
    259  C         29.6350   19.0810   29.6150 C.2   444  HIS444      0.2264
    260  O         29.0520   20.0860   29.1940 O.2   444  HIS444     -0.2867
    261  CB        28.4860   18.7130   31.8370 C.3   444  HIS444      0.0745
    262  CG        27.6790   17.5190   31.4230 C.ar  444  HIS444      0.0817
    263  ND1       28.2060   16.2470   31.3430 N.ar  444  HIS444     -0.2268
    264  CD2       26.3590   17.3950   31.1460 C.ar  444  HIS444      0.1154
    265  CE1       27.2540   15.3990   30.9950 C.ar  444  HIS444      0.1986
    266  NE2       26.1230   16.0690   30.8730 N.ar  444  HIS444     -0.2212
@<TRIPOS>BOND
     1    90    89    2
     2    89    88    1
     3    88    91    1
     4    88    87    1
     5    91    92    1
     6    92    94   ar
     7    92    93   ar
     8    94    96   ar
     9    93    95   ar
    10    56    55    2
    11    96    97   ar
    12    95    97   ar
    13    55    54    1
    14    97    98    1
    15    54    57    1
    16    54    53    1
    17    57    58    1
    18    53    41   am
    19    42    41    2
    20    41    40    1
    21    39    40    1
    22    40    43    1
    23    84    83    2
    24    83    82    1
    25    58    60   am
    26    58    59    2
    27    49    51   ar
    28    49    46   ar
    29    51    52   ar
    30    99   100    1
    31    43    44    1
    32    82    85    1
    33    82    81    1
    34    46    44   ar
    35    46    48   ar
    36    52    50   ar
    37    44    45   ar
    38   120   118    1
    39     4     3    2
    40   103   100    1
    41   103   104    1
    42    35    34    2
    43     1     2    1
    44    85    86    1
    45    48    50   ar
    46    48    47   ar
    47   100   101    1
    48    81    71   am
    49     3     2    1
    50    34    33    1
    51    45    47   ar
    52   102   101    2
    53    72    71    2
    54    28    29    1
    55     2     5    1
    56   118   119    1
    57   118   115    1
    58    71    70    1
    59   104   105    1
    60    61    62    1
    61   101   108   am
    62   106   105   ar
    63    13    14    1
    64    31    30    2
    65    62    63    1
    66    29    30    1
    67    16    15    2
    68    30    32   am
    69   114   115    1
    70   105   107   ar
    71    33    32    1
    72    33    36    1
    73   115   116    1
    74    70    69    1
    75    70    73    1
    76     5     6    1
    77   108   109    1
    78    14    15    1
    79    14    17    1
    80    37    36    1
    81    15    21   am
    82    17    18    1
    83    63    64    2
    84    63    65   am
    85   128   126   ar
    86   127   126   ar
    87    27    25    1
    88    36    38    1
    89   111   110    2
    90   110   109    1
    91   126   125    1
    92    65    66    1
    93   112   109    1
    94   112   113    1
    95   116   121   am
    96   116   117    2
    97     6     8   ar
    98     6     7   ar
    99   121   122    1
   100    76    78   ar
   101    76    74   ar
   102    21    22    1
   103    73    74    1
   104     8    10   ar
   105    22    25    1
   106    22    23    1
   107    78    79   ar
   108    74    75   ar
   109    18    19   ar
   110    18    20   ar
   111     7     9   ar
   112    25    26    1
   113    67    66    1
   114    67    68    2
   115   125   122    1
   116   260   259    2
   117   251   249   ar
   118   251   252   ar
   119   122   123    1
   120    79    80    1
   121    79    77   ar
   122    10    11   ar
   123   249   248   ar
   124    75    77   ar
   125   259   258    1
   126   243   244    1
   127    23    24    2
   128     9    11   ar
   129    11    12    1
   130   219   218    1
   131   252   254   ar
   132   252   250   ar
   133   254   256   ar
   134   248   250   ar
   135   248   247    1
   136   123   124    2
   137   266   265   ar
   138   266   264   ar
   139   265   263   ar
   140   217   218   ar
   141   217   215   ar
   142   244   247    1
   143   244   245    1
   144   250   253   ar
   145   258   257    1
   146   258   261    1
   147   218   216   ar
   148   264   262   ar
   149   263   262   ar
   150   256   255   ar
   151   262   261    1
   152   137   138   ar
   153   137   135   ar
   154   242   241    1
   155   246   245    2
   156   140   138   ar
   157   140   142   ar
   158   215   213   ar
   159   216   214   ar
   160   138   136   ar
   161   253   255   ar
   162   135   134   ar
   163   142   141   ar
   164   241   239   ar
   165   241   240   ar
   166   201   202    1
   167   201   198    1
   168   203   202   ar
   169   203   205   ar
   170   202   204   ar
   171   205   207   ar
   172   213   214   ar
   173   213   212    1
   174   204   206   ar
   175   207   206   ar
   176   239   237   ar
   177   129   130    1
   178   136   134   ar
   179   136   139   ar
   180   134   133    1
   181   240   238   ar
   182   230   228   ar
   183   230   229   ar
   184   141   139   ar
   185   212   209    1
   186   198   199    1
   187   198   197    1
   188   199   200    2
   189   228   226   ar
   190   229   227   ar
   191   133   130    1
   192   130   131    1
   193   237   236   ar
   194   185   183   ar
   195   185   184   ar
   196   183   181   ar
   197   238   236   ar
   198   151   149   ar
   199   151   152   ar
   200   197   188   am
   201   149   148   ar
   202   236   235    1
   203   226   225   ar
   204   209   208    1
   205   209   210    1
   206   184   182   ar
   207   227   225   ar
   208   152   150   ar
   209   181   180   ar
   210   143   131   am
   211   143   144    1
   212   211   210    2
   213   131   132    2
   214   210   220   am
   215   189   188    2
   216   188   187    1
   217   225   224    1
   218   148   150   ar
   219   148   147    1
   220   220   221    1
   221   182   180   ar
   222   180   179    1
   223   147   144    1
   224   235   232    1
   225   221   224    1
   226   221   222    1
   227   144   145    1
   228   187   186    1
   229   187   190    1
   230   176   177    1
   231   176   179    1
   232   176   175    1
   233   186   177   am
   234   177   178    2
   235   160   158    1
   236   159   158    1
   237   158   157    1
   238   232   231    1
   239   232   233    1
   240   145   146    2
   241   175   169   am
   242   222   223    2
   243   153   154    1
   244   190   191    1
   245   234   233    2
   246   157   154    1
   247   169   168    1
   248   169   170    2
   249   154   155    1
   250   192   191    1
   251   192   193    1
   252   168   171    1
   253   168   167    1
   254   195   194    1
   255   171   173    1
   256   171   172    1
   257   164   163    2
   258   193   194    2
   259   194   196    1
   260   155   156    2
   261   174   172    1
   262   166   165    1
   263   167   163   am
   264   163   162    1
   265   165   162    1
   266   162   161    1
