@<TRIPOS>MOLECULE
tmp/5fkpA01.pdb
 117 115 0 0 0
SMALL
GASTEIGER

@<TRIPOS>ATOM
      1  N         28.6520   -3.5000   18.1770 N.3   101  GLU101     -0.1231
      2  CA        29.8630   -3.0070   18.8370 C.3   101  GLU101      0.1699
      3  C         29.4540   -2.2530   20.0940 C.2   101  GLU101      0.2593
      4  O         28.5490   -1.4050   20.0500 O.2   101  GLU101     -0.2718
      5  CB        30.6650   -2.0910   17.9110 C.3   101  GLU101      0.0402
      6  CG        31.9390   -1.5280   18.5060 C.3   101  GLU101      0.1161
      7  CD        33.0840   -2.5190   18.5260 C.2   101  GLU101      0.3649
      8  OE1       32.8890   -3.6840   18.1200 O.co2 101  GLU101     -0.2457
      9  OE2       34.1950   -2.1330   18.9480 O.co2 101  GLU101     -0.2457
     10  N         30.1110   -2.5660   21.2090 N.am  102  SER102     -0.1938
     11  CA        29.8540   -1.8910   22.4790 C.3   102  SER102      0.2055
     12  C         30.8880   -0.8090   22.7650 C.2   102  SER102      0.2643
     13  O         31.9850   -0.8210   22.2140 O.2   102  SER102     -0.2714
     14  CB        29.8280   -2.9050   23.6140 C.3   102  SER102      0.2130
     15  OG        28.7970   -3.8460   23.4010 O.3   102  SER102     -0.2179
     16  N         30.5190    0.1270   23.6310 N.am  103  PHE103     -0.1973
     17  CA        31.4090    1.2080   24.0400 C.3   103  PHE103      0.1639
     18  C         31.1610    1.5480   25.4950 C.2   103  PHE103      0.2290
     19  O         30.0740    1.2930   26.0210 O.2   103  PHE103     -0.2864
     20  CB        31.1910    2.4470   23.1550 C.3   103  PHE103      0.0560
     21  CG        29.7840    2.9690   23.1910 C.ar  103  PHE103     -0.0200
     22  CD1       28.8170    2.4470   22.3390 C.ar  103  PHE103     -0.0042
     23  CD2       29.4170    3.9620   24.0970 C.ar  103  PHE103     -0.0042
     24  CE1       27.5110    2.9100   22.3800 C.ar  103  PHE103     -0.0003
     25  CE2       28.1130    4.4310   24.1410 C.ar  103  PHE103     -0.0003
     26  CZ        27.1620    3.9010   23.2800 C.ar  103  PHE103     -0.0000
     27  N         36.7930    1.9970   28.3150 N.3   116  PHE116     -0.1227
     28  CA        37.0670    0.5730   28.4610 C.3   116  PHE116      0.1736
     29  C         37.2040    0.0100   27.0550 C.2   116  PHE116      0.2595
     30  O         36.3420    0.2440   26.2150 O.2   116  PHE116     -0.2718
     31  CB        35.9450   -0.1350   29.1950 C.3   116  PHE116      0.0547
     32  CG        36.3130   -1.5270   29.6130 C.ar  116  PHE116     -0.0202
     33  CD1       37.0040   -1.7400   30.8000 C.ar  116  PHE116     -0.0042
     34  CD2       36.0170   -2.6160   28.7990 C.ar  116  PHE116     -0.0042
     35  CE1       37.3620   -3.0150   31.1920 C.ar  116  PHE116     -0.0003
     36  CE2       36.3710   -3.9000   29.1870 C.ar  116  PHE116     -0.0003
     37  CZ        37.0520   -4.0980   30.3800 C.ar  116  PHE116     -0.0000
     38  N         38.2860   -0.7140   26.7960 N.am  117  TRP117     -0.1962
     39  CA        38.5580   -1.2550   25.4680 C.3   117  TRP117      0.1771
     40  C         39.1710   -2.6440   25.5700 C.2   117  TRP117      0.2620
     41  O         40.2360   -2.8000   26.1550 O.2   117  TRP117     -0.2715
     42  CB        39.5240   -0.3300   24.7490 C.3   117  TRP117      0.0590
     43  CG        39.8110   -0.7220   23.3660 C.ar  117  TRP117      0.0006
     44  CD1       40.9940   -1.1870   22.8710 C.ar  117  TRP117      0.0946
     45  CD2       38.8990   -0.6880   22.2770 C.ar  117  TRP117      0.0152
     46  NE1       40.8760   -1.4380   21.5260 N.ar  117  TRP117     -0.2442
     47  CE2       39.5980   -1.1380   21.1340 C.ar  117  TRP117      0.0810
     48  CE3       37.5530   -0.3220   22.1510 C.ar  117  TRP117      0.0012
     49  CZ2       38.9940   -1.2310   19.8750 C.ar  117  TRP117      0.0191
     50  CZ3       36.9530   -0.4080   20.8960 C.ar  117  TRP117      0.0001
     51  CH2       37.6730   -0.8610   19.7780 C.ar  117  TRP117      0.0015
     52  N         38.4980   -3.6360   24.9900 N.am  118  GLY118     -0.1940
     53  CA        38.9520   -5.0080   25.0370 C.3   118  GLY118      0.2014
     54  C         38.7650   -5.6130   26.4160 C.2   118  GLY118      0.2639
     55  O         37.6880   -6.1090   26.7450 O.2   118  GLY118     -0.2714
     56  N         39.8250   -5.5590   27.2140 N.am  119  THR119     -0.1950
     57  CA        39.8410   -6.1460   28.5550 C.3   119  THR119      0.1897
     58  C         40.2840   -5.1780   29.6450 C.2   119  THR119      0.2313
     59  O         40.4570   -5.5940   30.7900 O.2   119  THR119     -0.2863
     60  CB        40.7940   -7.3640   28.6030 C.3   119  THR119      0.1794
     61  OG1       42.1440   -6.9280   28.3910 O.3   119  THR119     -0.2208
     62  CG2       40.4230   -8.3830   27.5470 C.3   119  THR119      0.0378
     63  N         41.5540    2.3130   29.6780 N.3   122  GLN122     -0.1245
     64  CA        42.6470    2.9930   29.0000 C.3   122  GLN122      0.1566
     65  C         42.3790    4.4910   29.0350 C.2   122  GLN122      0.2260
     66  O         41.2500    4.9170   28.7720 O.2   122  GLN122     -0.2867
     67  CB        42.7450    2.5130   27.5440 C.3   122  GLN122      0.0367
     68  CG        42.8790    1.0010   27.3950 C.3   122  GLN122      0.0905
     69  CD        43.0450    0.5440   25.9540 C.2   122  GLN122      0.2608
     70  OE1       42.9670    1.3320   25.0250 O.2   122  GLN122     -0.2717
     71  NE2       43.2600   -0.7480   25.7720 N.am  122  GLN122     -0.0878
     72  N         36.2640   -8.4880   34.3270 N.3   146  ALA146     -0.1245
     73  CA        35.3650   -9.5230   33.8040 C.3   146  ALA146      0.1562
     74  C         33.9080   -9.0300   33.7650 C.2   146  ALA146      0.2260
     75  O         33.1770   -9.2130   32.7490 O.2   146  ALA146     -0.2867
     76  CB        35.4700  -10.7990   34.6360 C.3   146  ALA146      0.0290
     77  N         33.4930   -6.6110   31.0240 N.3   149  GLN149     -0.1231
     78  CA        33.5440   -7.3620   29.7620 C.3   149  GLN149      0.1698
     79  C         32.2460   -8.1250   29.4620 C.2   149  GLN149      0.2592
     80  O         31.7910   -8.1320   28.3170 O.2   149  GLN149     -0.2718
     81  CB        34.7070   -8.3600   29.7520 C.3   149  GLN149      0.0381
     82  CG        36.0940   -7.7470   29.6270 C.3   149  GLN149      0.0905
     83  CD        37.1730   -8.8130   29.7440 C.2   149  GLN149      0.2608
     84  OE1       37.1920   -9.7480   28.9540 O.2   149  GLN149     -0.2717
     85  NE2       38.0620   -8.6880   30.7310 N.am  149  GLN149     -0.0878
     86  N         31.6900   -8.8050   30.4730 N.am  150  MET150     -0.1979
     87  CA        30.4070   -9.5140   30.3220 C.3   150  MET150      0.1605
     88  C         29.2680   -8.5220   30.0450 C.2   150  MET150      0.2287
     89  O         28.4250   -8.7700   29.1820 O.2   150  MET150     -0.2864
     90  CB        30.0870  -10.3680   31.5590 C.3   150  MET150      0.0413
     91  CG        31.0330  -11.5570   31.7530 C.3   150  MET150      0.0598
     92  SD        30.7700  -12.5790   33.2320 S.3   150  MET150     -0.1393
     93  CE        31.1490  -11.3830   34.5150 C.3   150  MET150      0.0692
     94  N         29.4550   -5.5370   28.5760 N.3   152  LEU152     -0.1231
     95  CA        29.5700   -4.9750   27.2250 C.3   152  LEU152      0.1693
     96  C         29.4300   -6.0140   26.1210 C.2   152  LEU152      0.2592
     97  O         28.6760   -5.7970   25.1810 O.2   152  LEU152     -0.2718
     98  CB        30.8880   -4.2220   27.0460 C.3   152  LEU152      0.0284
     99  CG        31.1060   -3.0050   27.9410 C.3   152  LEU152      0.0019
    100  CD1       32.5540   -2.5510   27.8600 C.3   152  LEU152      0.0001
    101  CD2       30.1630   -1.8730   27.5530 C.3   152  LEU152      0.0001
    102  N         30.1550   -7.1290   26.2230 N.am  153  ASN153     -0.1960
    103  CA        30.1690   -8.1350   25.1470 C.3   153  ASN153      0.1819
    104  C         28.8760   -8.9540   25.0370 C.2   153  ASN153      0.2621
    105  O         28.5180   -9.3870   23.9360 O.2   153  ASN153     -0.2715
    106  CB        31.3460   -9.1100   25.2970 C.3   153  ASN153      0.1195
    107  CG        32.7100   -8.4380   25.2300 C.2   153  ASN153      0.2630
    108  OD1       32.8420   -7.2180   25.3830 O.2   153  ASN153     -0.2716
    109  ND2       33.7460   -9.2570   25.0080 N.am  153  ASN153     -0.0877
    110  N         28.2030   -9.1890   26.1710 N.am  154  ASP154     -0.1971
    111  CA        27.0240  -10.0750   26.2370 C.3   154  ASP154      0.1709
    112  C         25.7450   -9.4020   26.7320 C.2   154  ASP154      0.2293
    113  O         24.7300   -9.4330   26.0410 O.2   154  ASP154     -0.2864
    114  CB        27.3040  -11.2810   27.1470 C.3   154  ASP154      0.1436
    115  CG        28.3250  -12.2340   26.5640 C.2   154  ASP154      0.3671
    116  OD1       29.2970  -11.7570   25.9430 O.co2 154  ASP154     -0.2456
    117  OD2       28.1650  -13.4650   26.7420 O.co2 154  ASP154     -0.2456
@<TRIPOS>BOND
     1     5     6    1
     2     5     2    1
     3     8     7   ar
     4     1     2    1
     5     6     7    1
     6     7     9   ar
     7     2     3    1
     8    51    49   ar
     9    51    50   ar
    10    49    47   ar
    11     4     3    2
    12     3    10   am
    13    50    48   ar
    14    47    46   ar
    15    47    45   ar
    16    10    11    1
    17    46    44   ar
    18    48    45   ar
    19    13    12    2
    20    45    43   ar
    21    22    24   ar
    22    22    21   ar
    23    24    26   ar
    24    11    12    1
    25    11    14    1
    26    12    16   am
    27    44    43   ar
    28    20    21    1
    29    20    17    1
    30    21    23   ar
    31    26    25   ar
    32    43    42    1
    33    15    14    1
    34    16    17    1
    35   105   104    2
    36    17    18    1
    37    23    25   ar
    38    42    39    1
    39    52    53    1
    40    52    40   am
    41   109   107   am
    42    70    69    2
    43   104   103    1
    44   104   110   am
    45    53    54    1
    46   103   106    1
    47   103   102    1
    48    97    96    2
    49   107   106    1
    50   107   108    2
    51    39    40    1
    52    39    38    1
    53    18    19    2
    54    40    41    2
    55    71    69   am
    56   116   115   ar
    57    69    68    1
    58   113   112    2
    59    96   102   am
    60    96    95    1
    61   110   111    1
    62    30    29    2
    63   111   112    1
    64   111   114    1
    65    54    55    2
    66    54    56   am
    67   115   117   ar
    68   115   114    1
    69    38    29   am
    70    98    95    1
    71    98    99    1
    72    29    28    1
    73    56    57    1
    74    95    94    1
    75    68    67    1
    76    67    64    1
    77    62    60    1
    78   101    99    1
    79   100    99    1
    80    27    28    1
    81    80    79    2
    82    61    60    1
    83    28    31    1
    84    57    60    1
    85    57    58    1
    86    66    65    2
    87    34    36   ar
    88    34    32   ar
    89    84    83    2
    90    64    65    1
    91    64    63    1
    92    89    88    2
    93    36    37   ar
    94    31    32    1
    95    79    78    1
    96    79    86   am
    97    32    33   ar
    98    82    83    1
    99    82    81    1
   100    58    59    2
   101    83    85   am
   102    81    78    1
   103    78    77    1
   104    88    87    1
   105    87    86    1
   106    87    90    1
   107    37    35   ar
   108    33    35   ar
   109    90    91    1
   110    91    92    1
   111    75    74    2
   112    92    93    1
   113    74    73    1
   114    73    72    1
   115    73    76    1
