@<TRIPOS>MOLECULE
tmp/5fksA01.pdb
 190 186 0 0 0
SMALL
GASTEIGER

@<TRIPOS>ATOM
      1  N         23.3950   24.2260  -10.0540 N.3    16  GLY16      -0.1210
      2  CA        24.0440   25.5260  -10.2790 C.3    16  GLY16       0.1956
      3  C         23.6600   26.5040   -9.2060 C.2    16  GLY16       0.2611
      4  O         22.9610   26.1440   -8.2360 O.2    16  GLY16      -0.2717
      5  N         24.1110   27.7520   -9.4040 N.am   17  PHE17      -0.1976
      6  CA        23.9610   28.8200   -8.4220 C.3    17  PHE17       0.1639
      7  C         22.6000   29.4450   -8.5280 C.2    17  PHE17       0.2290
      8  O         22.2150   29.8520   -9.6150 O.2    17  PHE17      -0.2864
      9  CB        25.0550   29.8620   -8.6820 C.3    17  PHE17       0.0560
     10  CG        24.9950   31.0700   -7.8190 C.ar   17  PHE17      -0.0200
     11  CD1       24.6810   30.9780   -6.4470 C.ar   17  PHE17      -0.0042
     12  CD2       25.3810   32.3060   -8.3460 C.ar   17  PHE17      -0.0042
     13  CE1       24.6610   32.1140   -5.6590 C.ar   17  PHE17      -0.0003
     14  CE2       25.4150   33.4430   -7.5430 C.ar   17  PHE17      -0.0003
     15  CZ        25.0320   33.3510   -6.1970 C.ar   17  PHE17      -0.0000
     16  N         31.6340   34.7400   -4.9550 N.3   264  TYR264     -0.1227
     17  CA        32.7110   33.8170   -4.6300 C.3   264  TYR264      0.1736
     18  C         33.5990   34.2110   -3.4290 C.2   264  TYR264      0.2595
     19  O         34.3330   33.3720   -2.9060 O.2   264  TYR264     -0.2718
     20  CB        33.6110   33.6410   -5.8480 C.3   264  TYR264      0.0548
     21  CG        32.8890   32.9780   -7.0060 C.ar  264  TYR264     -0.0200
     22  CD1       32.6100   31.6210   -6.9870 C.ar  264  TYR264     -0.0009
     23  CD2       32.4840   33.7210   -8.1130 C.ar  264  TYR264     -0.0009
     24  CE1       31.9410   30.9950   -8.0560 C.ar  264  TYR264      0.0417
     25  CE2       31.8340   33.1200   -9.1810 C.ar  264  TYR264      0.0417
     26  CZ        31.5680   31.7690   -9.1640 C.ar  264  TYR264      0.1957
     27  OH        30.8870   31.2070  -10.2400 O.3   264  TYR264     -0.2866
     28  N         33.5720   35.4590   -3.0180 N.am  265  ASP265     -0.1974
     29  CA        34.5380   35.9430   -2.0140 C.3   265  ASP265      0.1709
     30  C         33.8740   36.7670   -0.9720 C.2   265  ASP265      0.2293
     31  O         32.6360   36.8330   -0.9570 O.2   265  ASP265     -0.2864
     32  CB        35.7190   36.6580   -2.7290 C.3   265  ASP265      0.1436
     33  CG        35.2780   37.8150   -3.6030 C.2   265  ASP265      0.3671
     34  OD1       34.0780   38.2080   -3.6370 O.co2 265  ASP265     -0.2456
     35  OD2       36.1840   38.3850   -4.2660 O.co2 265  ASP265     -0.2456
     36  N         32.1300   35.0200    2.5080 N.3   317  ILE317     -0.1245
     37  CA        31.8840   33.6020    2.3550 C.3   317  ILE317      0.1561
     38  C         32.7830   32.8400    3.2790 C.2   317  ILE317      0.2260
     39  O         33.9310   33.2490    3.5100 O.2   317  ILE317     -0.2867
     40  CB        32.0960   33.1870    0.8770 C.3   317  ILE317      0.0252
     41  CG1       31.7640   31.6900    0.6430 C.3   317  ILE317      0.0019
     42  CG2       33.4940   33.5260    0.3880 C.3   317  ILE317      0.0019
     43  CD1       31.5300   31.4300   -0.8940 C.3   317  ILE317      0.0001
     44  N         34.2690   29.1910    3.2230 N.3   319  TRP319     -0.1227
     45  CA        34.5190   27.9640    2.5340 C.3   319  TRP319      0.1737
     46  C         34.8640   26.7760    3.4630 C.2   319  TRP319      0.2595
     47  O         34.5720   25.6310    3.1500 O.2   319  TRP319     -0.2718
     48  CB        35.6820   28.1870    1.5680 C.3   319  TRP319      0.0564
     49  CG        35.3720   29.0490    0.4140 C.ar  319  TRP319      0.0003
     50  CD1       35.7990   30.3180    0.1980 C.ar  319  TRP319      0.0946
     51  CD2       34.5470   28.7060   -0.7160 C.ar  319  TRP319      0.0152
     52  NE1       35.3180   30.7720   -1.0190 N.ar  319  TRP319     -0.2442
     53  CE2       34.5290   29.8120   -1.5770 C.ar  319  TRP319      0.0810
     54  CE3       33.8100   27.5800   -1.0570 C.ar  319  TRP319      0.0012
     55  CZ2       33.8210   29.8140   -2.7800 C.ar  319  TRP319      0.0191
     56  CZ3       33.1020   27.5710   -2.2570 C.ar  319  TRP319      0.0001
     57  CH2       33.1160   28.6870   -3.0940 C.ar  319  TRP319      0.0015
     58  N         35.4940   27.0390    4.5890 N.am  320  TRP320     -0.1976
     59  CA        36.2020   26.0170    5.3310 C.3   320  TRP320      0.1640
     60  C         35.9410   26.1600    6.8420 C.2   320  TRP320      0.2290
     61  O         36.3050   27.1610    7.4040 O.2   320  TRP320     -0.2864
     62  CB        37.7110   26.1050    5.0640 C.3   320  TRP320      0.0576
     63  CG        38.4820   25.0020    5.7180 C.ar  320  TRP320      0.0006
     64  CD1       39.3770   25.1250    6.7370 C.ar  320  TRP320      0.0946
     65  CD2       38.4000   23.5920    5.4290 C.ar  320  TRP320      0.0152
     66  NE1       39.8690   23.8910    7.1010 N.ar  320  TRP320     -0.2442
     67  CE2       39.2930   22.9370    6.3060 C.ar  320  TRP320      0.0810
     68  CE3       37.7040   22.8330    4.4780 C.ar  320  TRP320      0.0012
     69  CZ2       39.4690   21.5590    6.2910 C.ar  320  TRP320      0.0191
     70  CZ3       37.8570   21.4740    4.4640 C.ar  320  TRP320      0.0001
     71  CH2       38.7610   20.8430    5.3620 C.ar  320  TRP320      0.0015
     72  N         24.6770   15.2420   -4.3090 N.3   361  LEU361     -0.1231
     73  CA        25.1580   16.3600   -3.5390 C.3   361  LEU361      0.1693
     74  C         26.2280   15.9960   -2.4900 C.2   361  LEU361      0.2592
     75  O         26.7880   16.8990   -1.8050 O.2   361  LEU361     -0.2718
     76  CB        24.0040   17.1140   -2.8640 C.3   361  LEU361      0.0284
     77  CG        23.2630   18.0190   -3.8340 C.3   361  LEU361      0.0019
     78  CD1       21.8990   18.4180   -3.2640 C.3   361  LEU361      0.0001
     79  CD2       24.0600   19.2830   -4.1280 C.3   361  LEU361      0.0001
     80  N         26.5370   14.7160   -2.3610 N.am  362  ASN362     -0.1960
     81  CA        27.7820   14.3510   -1.6480 C.3   362  ASN362      0.1819
     82  C         29.0630   14.5130   -2.4420 C.2   362  ASN362      0.2621
     83  O         30.1330   14.2050   -1.9280 O.2   362  ASN362     -0.2715
     84  CB        27.6900   12.9320   -1.0300 C.3   362  ASN362      0.1195
     85  CG        27.8920   11.7910   -2.0630 C.2   362  ASN362      0.2630
     86  OD1       27.7420   11.9640   -3.2720 O.2   362  ASN362     -0.2716
     87  ND2       28.2160   10.6280   -1.5620 N.am  362  ASN362     -0.0877
     88  N         28.9130   14.8610   -3.7260 N.am  363  PHE363     -0.1974
     89  CA        30.0120   15.0310   -4.6660 C.3   363  PHE363      0.1639
     90  C         30.9150   13.8000   -4.7370 C.2   363  PHE363      0.2290
     91  O         32.0980   13.9060   -4.9320 O.2   363  PHE363     -0.2864
     92  CB        30.7350   16.3680   -4.3580 C.3   363  PHE363      0.0560
     93  CG        29.9710   17.5450   -4.8610 C.ar  363  PHE363     -0.0200
     94  CD1       28.9810   18.1110   -4.0890 C.ar  363  PHE363     -0.0042
     95  CD2       30.1420   18.0200   -6.1850 C.ar  363  PHE363     -0.0042
     96  CE1       28.2220   19.1650   -4.5680 C.ar  363  PHE363     -0.0003
     97  CE2       29.3740   19.0530   -6.6640 C.ar  363  PHE363     -0.0003
     98  CZ        28.3940   19.6520   -5.8480 C.ar  363  PHE363     -0.0000
     99  N         31.7640   11.7470   -2.3410 N.3   365  ASN365     -0.1240
    100  CA        32.5020   11.3830   -1.1390 C.3   365  ASN365      0.1653
    101  C         31.6760   11.7680    0.0780 C.2   365  ASN365      0.2266
    102  O         31.5700   12.9260    0.4300 O.2   365  ASN365     -0.2867
    103  CB        33.8730   12.0520   -1.0990 C.3   365  ASN365      0.1155
    104  CG        34.7320   11.5990    0.1100 C.2   365  ASN365      0.2627
    105  OD1       34.3320   10.8390    0.9590 O.2   365  ASN365     -0.2716
    106  ND2       35.9280   12.0820    0.1540 N.am  365  ASN365     -0.0877
    107  N         34.5000   12.9510    3.8510 N.3   368  PRO368     -0.2116
    108  CA        35.7830   13.6850    3.7710 C.3   368  PRO368      0.1372
    109  C         36.3600   13.8010    5.1720 C.2   368  PRO368      0.2244
    110  O         35.6150   13.5920    6.1610 O.2   368  PRO368     -0.2868
    111  CB        35.3640   15.0300    3.2140 C.3   368  PRO368      0.0268
    112  CG        33.9440   15.2010    3.8140 C.3   368  PRO368      0.0207
    113  CD        33.3410   13.8430    3.8780 C.3   368  PRO368      0.0892
    114  N         35.5660   18.7120    7.6680 N.3   372  GLU372     -0.1245
    115  CA        34.5820   18.8320    6.5930 C.3   372  GLU372      0.1567
    116  C         33.5260   17.7570    6.7350 C.2   372  GLU372      0.2260
    117  O         33.8350   16.6840    7.2710 O.2   372  GLU372     -0.2867
    118  CB        35.2600   18.6980    5.2440 C.3   372  GLU372      0.0388
    119  CG        34.3870   19.1540    4.0800 C.3   372  GLU372      0.1160
    120  CD        35.0960   19.0160    2.7390 C.2   372  GLU372      0.3649
    121  OE1       36.2440   18.5770    2.7300 O.co2 372  GLU372     -0.2457
    122  OE2       34.4950   19.3450    1.6880 O.co2 372  GLU372     -0.2457
    123  N         30.0490   16.0150    4.2780 N.3   374  SER374     -0.1217
    124  CA        29.4570   15.9050    2.9450 C.3   374  SER374      0.1889
    125  C         28.1180   15.1970    3.1270 C.2   374  SER374      0.2288
    126  O         28.1120   14.1440    3.7260 O.2   374  SER374     -0.2866
    127  CB        30.3190   15.0190    2.0700 C.3   374  SER374      0.2089
    128  OG        29.7940   14.9560    0.7380 O.3   374  SER374     -0.2183
    129  N         27.8190   19.3110    2.2710 N.3   376  LYS376     -0.1245
    130  CA        28.0460   20.5520    3.0000 C.3   376  LYS376      0.1561
    131  C         26.7460   21.2990    3.2100 C.2   376  LYS376      0.2260
    132  O         25.7500   21.1550    2.4530 O.2   376  LYS376     -0.2867
    133  CB        28.9940   21.4590    2.2340 C.3   376  LYS376      0.0271
    134  CG        30.3930   20.9770    2.3000 C.3   376  LYS376      0.0035
    135  CD        31.3650   21.8740    1.5650 C.3   376  LYS376      0.0206
    136  CE        31.8020   23.0870    2.3590 C.3   376  LYS376      0.1093
    137  NZ        32.7870   23.9360    1.5900 N.3   376  LYS376     -0.1314
    138  N         27.6820   26.9370    0.1920 N.3   379  TRP379     -0.1227
    139  CA        28.6380   27.9430   -0.2310 C.3   379  TRP379      0.1737
    140  C         27.8600   28.8510   -1.1790 C.2   379  TRP379      0.2595
    141  O         26.8710   28.4070   -1.7640 O.2   379  TRP379     -0.2718
    142  CB        29.8870   27.3070   -0.9020 C.3   379  TRP379      0.0564
    143  CG        29.6070   26.5170   -2.0850 C.ar  379  TRP379      0.0003
    144  CD1       29.6150   26.9460   -3.3550 C.ar  379  TRP379      0.0946
    145  CD2       29.3370   25.1120   -2.1360 C.ar  379  TRP379      0.0152
    146  NE1       29.3700   25.9190   -4.2220 N.ar  379  TRP379     -0.2442
    147  CE2       29.1440   24.7820   -3.4990 C.ar  379  TRP379      0.0810
    148  CE3       29.2090   24.1090   -1.1550 C.ar  379  TRP379      0.0012
    149  CZ2       28.8560   23.4920   -3.9380 C.ar  379  TRP379      0.0191
    150  CZ3       28.8850   22.8090   -1.5820 C.ar  379  TRP379      0.0001
    151  CH2       28.7150   22.5080   -2.9620 C.ar  379  TRP379      0.0015
    152  N         28.3030   30.0890   -1.3330 N.am  380  MET380     -0.1979
    153  CA        27.6770   31.1180   -2.1730 C.3   380  MET380      0.1605
    154  C         26.2280   31.2110   -1.7080 C.2   380  MET380      0.2287
    155  O         25.3050   31.2260   -2.5120 O.2   380  MET380     -0.2864
    156  CB        27.7510   30.7860   -3.6910 C.3   380  MET380      0.0413
    157  CG        29.2080   30.6750   -4.2110 C.3   380  MET380      0.0598
    158  SD        29.3750   29.7590   -5.7660 S.3   380  MET380     -0.1393
    159  CE        28.5600   30.8870   -6.9120 C.3   380  MET380      0.0692
    160  N         25.7710   27.3780   -4.4300 N.3   399  GLY399     -0.1210
    161  CA        26.3380   27.1790   -5.7320 C.3   399  GLY399      0.1956
    162  C         25.9120   25.9390   -6.4460 C.2   399  GLY399      0.2611
    163  O         26.2810   25.7850   -7.6120 O.2   399  GLY399     -0.2717
    164  N         25.1470   25.0490   -5.7860 N.am  400  ALA400     -0.1979
    165  CA        24.6430   23.8180   -6.4110 C.3   400  ALA400      0.1597
    166  C         23.1630   23.4830   -6.3320 C.2   400  ALA400      0.2287
    167  O         22.7050   22.5720   -7.0620 O.2   400  ALA400     -0.2864
    168  CB        25.3820   22.6530   -5.8030 C.3   400  ALA400      0.0319
    169  N         30.4280   21.7430  -13.8050 N.3   449  ASP449     -0.1225
    170  CA        30.3670   21.9440  -12.3540 C.3   449  ASP449      0.1805
    171  C         30.0270   20.7310  -11.5120 C.2   449  ASP449      0.2597
    172  O         30.5250   20.6320  -10.4240 O.2   449  ASP449     -0.2718
    173  CB        29.4110   23.0810  -11.9580 C.3   449  ASP449      0.1424
    174  CG        29.8530   24.4650  -12.4930 C.2   449  ASP449      0.3668
    175  OD1       31.0570   24.6320  -12.6670 O.co2 449  ASP449     -0.2456
    176  OD2       29.0110   25.4110  -12.6570 O.co2 449  ASP449     -0.2456
    177  N         29.1450   19.8680  -11.9740 N.am  450  ILE450     -0.1980
    178  CA        28.7750   18.6330  -11.2950 C.3   450  ILE450      0.1595
    179  C         29.0760   17.3700  -12.0700 C.2   450  ILE450      0.2287
    180  O         28.5560   16.2810  -11.7560 O.2   450  ILE450     -0.2864
    181  CB        27.3290   18.6850  -10.8430 C.3   450  ILE450      0.0276
    182  CG1       26.3580   18.7370  -12.0460 C.3   450  ILE450      0.0022
    183  CG2       27.1260   19.9220   -9.9460 C.3   450  ILE450      0.0022
    184  CD1       24.9530   18.4610  -11.5830 C.3   450  ILE450      0.0001
    185  N         35.2300   18.0480  -12.0470 N.3   472  SER472     -0.1217
    186  CA        34.3770   19.1630  -11.6890 C.3   472  SER472      0.1889
    187  C         33.4580   19.4330  -12.9060 C.2   472  SER472      0.2288
    188  O         32.2750   19.5970  -12.7640 O.2   472  SER472     -0.2866
    189  CB        35.2260   20.3950  -11.3420 C.3   472  SER472      0.2089
    190  OG        36.1940   20.6530  -12.3330 O.3   472  SER472     -0.2183
@<TRIPOS>BOND
     1   169   170    1
     2   187   188    2
     3   187   186    1
     4   175   174   ar
     5   176   174   ar
     6   174   173    1
     7   170   173    1
     8   170   171    1
     9   190   189    1
    10   179   180    2
    11   179   178    1
    12   185   186    1
    13   182   184    1
    14   182   181    1
    15   177   171   am
    16   177   178    1
    17   186   189    1
    18   171   172    2
    19   178   181    1
    20   181   183    1
    21     2     1    1
    22     2     3    1
    23    27    26    1
    24     8     7    2
    25     5     3   am
    26     5     6    1
    27     3     4    2
    28    25    26   ar
    29    25    23   ar
    30    26    24   ar
    31     9     6    1
    32     9    10    1
    33     7     6    1
    34    12    10   ar
    35    12    14   ar
    36    23    21   ar
    37    24    22   ar
    38    10    11   ar
    39   163   162    2
    40    14    15   ar
    41   167   166    2
    42    21    22   ar
    43    21    20    1
    44   159   158    1
    45    97    95   ar
    46    97    98   ar
    47    11    13   ar
    48   162   164   am
    49   162   161    1
    50   165   166    1
    51   165   168    1
    52   165   164    1
    53    15    13   ar
    54    95    93   ar
    55    98    96   ar
    56    20    17    1
    57   158   157    1
    58   161   160    1
    59    16    17    1
    60    91    90    2
    61    93    92    1
    62    93    94   ar
    63    90    89    1
    64    89    92    1
    65    89    88    1
    66    17    18    1
    67    96    94   ar
    68    72    73    1
    69    35    33   ar
    70   146   147   ar
    71   146   144   ar
    72   157   156    1
    73    79    77    1
    74   149   147   ar
    75   149   151   ar
    76    77    78    1
    77    77    76    1
    78    88    82   am
    79   156   153    1
    80    34    33   ar
    81    33    32    1
    82    73    76    1
    83    73    74    1
    84   147   145   ar
    85    18    28   am
    86    18    19    2
    87   144   143   ar
    88    86    85    2
    89    57    55   ar
    90    57    56   ar
    91    28    29    1
    92   151   150   ar
    93    55    53   ar
    94    32    29    1
    95   155   154    2
    96    74    80   am
    97    74    75    2
    98    82    83    2
    99    82    81    1
   100    80    81    1
   101    99   100    1
   102    56    54   ar
   103   153   154    1
   104   153   152    1
   105   145   143   ar
   106   145   148   ar
   107   143   142    1
   108    85    87   am
   109    85    84    1
   110    29    30    1
   111   141   140    2
   112    81    84    1
   113   150   148   ar
   114    53    52   ar
   115    53    51   ar
   116   152   140   am
   117   140   139    1
   118   100   103    1
   119   100   101    1
   120   103   104    1
   121    54    51   ar
   122    52    50   ar
   123    30    31    2
   124   142   139    1
   125    43    41    1
   126    51    49   ar
   127   139   138    1
   128   101   102    2
   129   104   106   am
   130   104   105    2
   131    50    49   ar
   132    42    40    1
   133    49    48    1
   134    41    40    1
   135   128   127    1
   136    40    37    1
   137   135   134    1
   138   135   136    1
   139    48    45    1
   140   137   136    1
   141   122   120   ar
   142   127   124    1
   143   133   134    1
   144   133   130    1
   145   129   130    1
   146    37    36    1
   147    37    38    1
   148   132   131    2
   149    45    44    1
   150    45    46    1
   151   121   120   ar
   152   120   119    1
   153   124   125    1
   154   124   123    1
   155   130   131    1
   156   125   126    2
   157    47    46    2
   158   111   108    1
   159   111   112    1
   160    38    39    2
   161    46    58   am
   162   108   107    1
   163   108   109    1
   164   112   113    1
   165   107   113    1
   166   119   118    1
   167    70    68   ar
   168    70    71   ar
   169    68    65   ar
   170    58    59    1
   171    62    59    1
   172    62    63    1
   173   109   110    2
   174   118   115    1
   175    59    60    1
   176    71    69   ar
   177    65    63   ar
   178    65    67   ar
   179    63    64   ar
   180    69    67   ar
   181    67    66   ar
   182   115   116    1
   183   115   114    1
   184   116   117    2
   185    64    66   ar
   186    60    61    2
