@<TRIPOS>MOLECULE
tmp/5fksA00.pdb
 247 237 0 0 0
SMALL
GASTEIGER

@<TRIPOS>ATOM
      1  N         23.3950   24.2260  -10.0540 N.3    16  GLY16      -0.1210
      2  CA        24.0440   25.5260  -10.2790 C.3    16  GLY16       0.1956
      3  C         23.6600   26.5040   -9.2060 C.2    16  GLY16       0.2611
      4  O         22.9610   26.1440   -8.2360 O.2    16  GLY16      -0.2717
      5  N         24.1110   27.7520   -9.4040 N.am   17  PHE17      -0.1976
      6  CA        23.9610   28.8200   -8.4220 C.3    17  PHE17       0.1639
      7  C         22.6000   29.4450   -8.5280 C.2    17  PHE17       0.2290
      8  O         22.2150   29.8520   -9.6150 O.2    17  PHE17      -0.2864
      9  CB        25.0550   29.8620   -8.6820 C.3    17  PHE17       0.0560
     10  CG        24.9950   31.0700   -7.8190 C.ar   17  PHE17      -0.0200
     11  CD1       24.6810   30.9780   -6.4470 C.ar   17  PHE17      -0.0042
     12  CD2       25.3810   32.3060   -8.3460 C.ar   17  PHE17      -0.0042
     13  CE1       24.6610   32.1140   -5.6590 C.ar   17  PHE17      -0.0003
     14  CE2       25.4150   33.4430   -7.5430 C.ar   17  PHE17      -0.0003
     15  CZ        25.0320   33.3510   -6.1970 C.ar   17  PHE17      -0.0000
     16  N         21.2230   32.8800  -12.7870 N.3    36  ASP36      -0.1225
     17  CA        22.1710   33.7090  -13.4680 C.3    36  ASP36       0.1805
     18  C         22.2490   33.4050  -14.9590 C.2    36  ASP36       0.2597
     19  O         22.5290   34.3270  -15.7390 O.2    36  ASP36      -0.2718
     20  CB        23.5060   33.7350  -12.7280 C.3    36  ASP36       0.1424
     21  CG        24.0410   32.3970  -12.3870 C.2    36  ASP36       0.3668
     22  OD1       23.5220   31.4000  -12.9050 O.co2  36  ASP36      -0.2456
     23  OD2       24.9820   32.3250  -11.5720 O.co2  36  ASP36      -0.2456
     24  N         21.9990   32.1550  -15.3440 N.am   37  ILE37      -0.1980
     25  CA        22.0730   31.7600  -16.7690 C.3    37  ILE37       0.1595
     26  C         20.9300   30.9270  -17.2770 C.2    37  ILE37       0.2287
     27  O         20.8960   30.5550  -18.4530 O.2    37  ILE37      -0.2864
     28  CB        23.3830   31.0140  -17.0650 C.3    37  ILE37       0.0276
     29  CG1       23.4940   29.6760  -16.2990 C.3    37  ILE37       0.0022
     30  CG2       24.5490   31.8760  -16.6910 C.3    37  ILE37       0.0022
     31  CD1       24.4220   28.6960  -16.9860 C.3    37  ILE37       0.0001
     32  N         17.3220   32.6060  -29.5370 N.3    59  TRP59      -0.1241
     33  CA        18.7140   32.7060  -30.0470 C.3    59  TRP59       0.1605
     34  C         19.2380   34.1530  -30.0750 C.2    59  TRP59       0.2264
     35  O         20.3630   34.4310  -29.7710 O.2    59  TRP59      -0.2867
     36  CB        18.7420   32.1620  -31.4680 C.3    59  TRP59       0.0550
     37  CG        20.1020   31.8960  -32.0580 C.ar   59  TRP59       0.0003
     38  CD1       20.7620   32.6130  -33.0570 C.ar   59  TRP59       0.0946
     39  CD2       20.9070   30.7480  -31.7970 C.ar   59  TRP59       0.0152
     40  NE1       21.9610   31.9840  -33.3670 N.ar   59  TRP59      -0.2442
     41  CE2       22.0590   30.8340  -32.6270 C.ar   59  TRP59       0.0810
     42  CE3       20.7640   29.6440  -30.9450 C.ar   59  TRP59       0.0012
     43  CZ2       23.0850   29.8850  -32.5690 C.ar   59  TRP59       0.0191
     44  CZ3       21.7670   28.6960  -30.9190 C.ar   59  TRP59       0.0001
     45  CH2       22.9010   28.8030  -31.7380 C.ar   59  TRP59       0.0015
     46  N         19.2750   35.8690  -26.1610 N.3    62  TRP62      -0.1241
     47  CA        19.7280   34.8210  -25.2580 C.3    62  TRP62       0.1605
     48  C         20.1490   35.2970  -23.8920 C.2    62  TRP62       0.2264
     49  O         19.9730   34.5720  -22.8720 O.2    62  TRP62      -0.2867
     50  CB        20.8070   33.9600  -25.9110 C.3    62  TRP62       0.0550
     51  CG        22.0310   34.6740  -26.1930 C.ar   62  TRP62       0.0003
     52  CD1       22.3890   35.2940  -27.4020 C.ar   62  TRP62       0.0946
     53  CD2       23.1110   34.9160  -25.2790 C.ar   62  TRP62       0.0152
     54  NE1       23.6270   35.8730  -27.2660 N.ar   62  TRP62      -0.2442
     55  CE2       24.0950   35.6600  -25.9880 C.ar   62  TRP62       0.0810
     56  CE3       23.3610   34.5550  -23.9430 C.ar   62  TRP62       0.0012
     57  CZ2       25.2580   36.0600  -25.4130 C.ar   62  TRP62       0.0191
     58  CZ3       24.5400   34.9650  -23.3770 C.ar   62  TRP62       0.0001
     59  CH2       25.4580   35.7420  -24.1000 C.ar   62  TRP62       0.0015
     60  N         22.5040   39.2980  -19.2800 N.3    86  MET86      -0.1230
     61  CA        23.4920   38.3930  -18.7000 C.3    86  MET86       0.1702
     62  C         24.8530   39.0040  -18.4340 C.2    86  MET86       0.2592
     63  O         25.4240   38.8270  -17.3320 O.2    86  MET86      -0.2718
     64  CB        23.6150   37.1430  -19.5590 C.3    86  MET86       0.0401
     65  CG        24.2500   35.9560  -18.8420 C.3    86  MET86       0.0596
     66  SD        24.2140   34.3950  -19.7680 S.3    86  MET86      -0.1393
     67  CE        22.4310   34.2100  -19.8830 C.3    86  MET86       0.0692
     68  N         25.3770   39.7320  -19.3780 N.am   87  TYR87      -0.1976
     69  CA        26.7120   40.3160  -19.2090 C.3    87  TYR87       0.1639
     70  C         26.6320   41.8140  -19.4910 C.2    87  TYR87       0.2290
     71  O         25.8000   42.2610  -20.3280 O.2    87  TYR87      -0.2864
     72  CB        27.7860   39.5750  -20.0490 C.3    87  TYR87       0.0560
     73  CG        27.8340   38.0510  -19.8130 C.ar   87  TYR87      -0.0198
     74  CD1       28.3370   37.5230  -18.6220 C.ar   87  TYR87      -0.0009
     75  CD2       27.3650   37.1750  -20.7720 C.ar   87  TYR87      -0.0009
     76  CE1       28.3650   36.1610  -18.3800 C.ar   87  TYR87       0.0417
     77  CE2       27.3830   35.8080  -20.5430 C.ar   87  TYR87       0.0417
     78  CZ        27.9050   35.3100  -19.3250 C.ar   87  TYR87       0.1957
     79  OH        27.9290   33.9520  -19.1200 O.3    87  TYR87      -0.2866
     80  N         31.4770   42.8030  -23.2270 N.3    90  THR90      -0.1203
     81  CA        31.1610   42.5320  -24.6270 C.3    90  THR90       0.1994
     82  C         30.5510   41.1530  -24.8860 C.2    90  THR90       0.2617
     83  O         30.1690   40.8480  -26.0220 O.2    90  THR90      -0.2717
     84  CB        32.4090   42.6480  -25.5280 C.3    90  THR90       0.1784
     85  OG1       33.3220   41.6190  -25.1570 O.3    90  THR90      -0.2211
     86  CG2       33.0810   44.0050  -25.3690 C.3    90  THR90       0.0376
     87  N         30.5200   40.2750  -23.8760 N.am   91  TRP91      -0.1975
     88  CA        30.0480   38.9040  -24.0850 C.3    91  TRP91       0.1640
     89  C         28.5550   38.8240  -24.3770 C.2    91  TRP91       0.2290
     90  O         28.1050   37.8380  -24.9800 O.2    91  TRP91      -0.2864
     91  CB        30.3050   38.0260  -22.8620 C.3    91  TRP91       0.0576
     92  CG        31.7120   37.8180  -22.4410 C.ar   91  TRP91       0.0006
     93  CD1       32.8550   38.1210  -23.1340 C.ar   91  TRP91       0.0946
     94  CD2       32.1270   37.2410  -21.2080 C.ar   91  TRP91       0.0152
     95  NE1       33.9400   37.7780  -22.3860 N.ar   91  TRP91      -0.2442
     96  CE2       33.5260   37.2180  -21.2050 C.ar   91  TRP91       0.0810
     97  CE3       31.4390   36.7060  -20.1160 C.ar   91  TRP91       0.0012
     98  CZ2       34.2650   36.7280  -20.1160 C.ar   91  TRP91       0.0191
     99  CZ3       32.1660   36.2240  -19.0330 C.ar   91  TRP91       0.0001
    100  CH2       33.5600   36.2330  -19.0480 C.ar   91  TRP91       0.0015
    101  N         25.8510   40.7990  -26.3600 N.3    93  PRO93      -0.2116
    102  CA        25.8200   41.9510  -27.2660 C.3    93  PRO93       0.1372
    103  C         24.5900   42.8550  -27.0440 C.2    93  PRO93       0.2244
    104  O         24.5570   43.9280  -27.5950 O.2    93  PRO93      -0.2868
    105  CB        25.8190   41.2970  -28.6490 C.3    93  PRO93       0.0268
    106  CG        25.0640   40.0470  -28.4340 C.3    93  PRO93       0.0207
    107  CD        25.4860   39.5590  -27.0590 C.3    93  PRO93       0.0892
    108  N         24.7950   37.3490  -15.0290 N.3   120  ASN120     -0.1240
    109  CA        25.9290   36.4790  -14.6770 C.3   120  ASN120      0.1653
    110  C         27.2720   37.2060  -14.4670 C.2   120  ASN120      0.2266
    111  O         28.3780   36.6550  -14.7450 O.2   120  ASN120     -0.2867
    112  CB        26.0930   35.3600  -15.7480 C.3   120  ASN120      0.1155
    113  CG        26.8700   34.1280  -15.2180 C.2   120  ASN120      0.2627
    114  OD1       26.8820   33.8280  -14.0030 O.2   120  ASN120     -0.2716
    115  ND2       27.5180   33.4090  -16.1370 N.am  120  ASN120     -0.0877
    116  N         26.1660   39.6200   -8.4460 N.3   124  ARG124     -0.1245
    117  CA        24.7750   39.2330   -8.7970 C.3   124  ARG124      0.1563
    118  C         23.9660   38.6700   -7.6510 C.2   124  ARG124      0.2260
    119  O         22.7640   38.4930   -7.7870 O.2   124  ARG124     -0.2867
    120  CB        24.7340   38.2170   -9.9680 C.3   124  ARG124      0.0307
    121  CG        25.3450   36.8460   -9.6290 C.3   124  ARG124      0.0489
    122  CD        25.5580   36.0590  -10.9120 C.3   124  ARG124      0.2205
    123  NE        26.2830   34.7890  -10.8140 N.pl3 124  ARG124     -0.0865
    124  CZ        27.6110   34.6910  -10.7590 C.cat 124  ARG124      0.5346
    125  NH1       28.3620   35.7720  -10.6990 N.pl3 124  ARG124      0.1354
    126  NH2       28.1920   33.5010  -10.7110 N.pl3 124  ARG124      0.1354
    127  N         41.2150   44.1870  -14.0990 N.3   178  ASP178     -0.1239
    128  CA        41.0920   42.9200  -14.8020 C.3   178  ASP178      0.1674
    129  C         41.3450   43.0630  -16.3010 C.2   178  ASP178      0.2266
    130  O         40.5370   43.6150  -17.0330 O.2   178  ASP178     -0.2867
    131  CB        39.7060   42.3180  -14.5880 C.3   178  ASP178      0.1410
    132  CG        39.5410   40.9800  -15.2830 C.2   178  ASP178      0.3668
    133  OD1       40.6080   40.3620  -15.5510 O.co2 178  ASP178     -0.2456
    134  OD2       38.3710   40.5250  -15.5450 O.co2 178  ASP178     -0.2456
    135  N         40.9070   40.9130  -18.4900 N.3   180  ASN180     -0.1240
    136  CA        39.8780   40.1790  -19.2270 C.3   180  ASN180      0.1653
    137  C         38.5590   40.8690  -19.3180 C.2   180  ASN180      0.2266
    138  O         37.6780   40.3570  -19.9620 O.2   180  ASN180     -0.2867
    139  CB        39.7430   38.7780  -18.6690 C.3   180  ASN180      0.1155
    140  CG        41.1030   38.1340  -18.4810 C.2   180  ASN180      0.2627
    141  OD1       41.4800   37.7720  -17.3740 O.2   180  ASN180     -0.2716
    142  ND2       41.8880   38.1080  -19.5370 N.am  180  ASN180     -0.0877
    143  N         36.1420   41.2580  -17.2800 N.3   182  TYR182     -0.1241
    144  CA        35.0090   40.5990  -16.6250 C.3   182  TYR182      0.1605
    145  C         34.8040   41.1270  -15.1920 C.2   182  TYR182      0.2264
    146  O         33.6660   41.3940  -14.7740 O.2   182  TYR182     -0.2867
    147  CB        35.1000   39.0480  -16.6930 C.3   182  TYR182      0.0534
    148  CG        33.9890   38.3730  -15.9310 C.ar  182  TYR182     -0.0201
    149  CD1       32.6660   38.4160  -16.3940 C.ar  182  TYR182     -0.0009
    150  CD2       34.2550   37.7360  -14.6950 C.ar  182  TYR182     -0.0009
    151  CE1       31.6490   37.8520  -15.6620 C.ar  182  TYR182      0.0417
    152  CE2       33.2230   37.1550  -13.9650 C.ar  182  TYR182      0.0417
    153  CZ        31.9390   37.2070  -14.4630 C.ar  182  TYR182      0.1957
    154  OH        30.9430   36.7080  -13.7110 O.3   182  TYR182     -0.2866
    155  N         31.6340   34.7400   -4.9550 N.3   264  TYR264     -0.1241
    156  CA        32.7110   33.8170   -4.6300 C.3   264  TYR264      0.1605
    157  C         33.5990   34.2110   -3.4290 C.2   264  TYR264      0.2264
    158  O         34.3330   33.3720   -2.9060 O.2   264  TYR264     -0.2867
    159  CB        33.6110   33.6410   -5.8480 C.3   264  TYR264      0.0534
    160  CG        32.8890   32.9780   -7.0060 C.ar  264  TYR264     -0.0201
    161  CD1       32.6100   31.6210   -6.9870 C.ar  264  TYR264     -0.0009
    162  CD2       32.4840   33.7210   -8.1130 C.ar  264  TYR264     -0.0009
    163  CE1       31.9410   30.9950   -8.0560 C.ar  264  TYR264      0.0417
    164  CE2       31.8340   33.1200   -9.1810 C.ar  264  TYR264      0.0417
    165  CZ        31.5680   31.7690   -9.1640 C.ar  264  TYR264      0.1957
    166  OH        30.8870   31.2070  -10.2400 O.3   264  TYR264     -0.2866
    167  N         28.3030   30.0890   -1.3330 N.3   380  MET380     -0.1245
    168  CA        27.6770   31.1180   -2.1730 C.3   380  MET380      0.1570
    169  C         26.2280   31.2110   -1.7080 C.2   380  MET380      0.2261
    170  O         25.3050   31.2260   -2.5120 O.2   380  MET380     -0.2867
    171  CB        27.7510   30.7860   -3.6910 C.3   380  MET380      0.0387
    172  CG        29.2080   30.6750   -4.2110 C.3   380  MET380      0.0595
    173  SD        29.3750   29.7590   -5.7660 S.3   380  MET380     -0.1393
    174  CE        28.5600   30.8870   -6.9120 C.3   380  MET380      0.0692
    175  N         25.7710   27.3780   -4.4300 N.3   399  GLY399     -0.1225
    176  CA        26.3380   27.1790   -5.7320 C.3   399  GLY399      0.1811
    177  C         25.9120   25.9390   -6.4460 C.2   399  GLY399      0.2280
    178  O         26.2810   25.7850   -7.6120 O.2   399  GLY399     -0.2866
    179  N         19.3760   23.5700  -13.9630 N.3   428  GLU428     -0.1231
    180  CA        20.2050   24.7510  -14.2080 C.3   428  GLU428      0.1699
    181  C         21.5700   24.4580  -14.7500 C.2   428  GLU428      0.2593
    182  O         22.3640   25.3600  -14.8680 O.2   428  GLU428     -0.2718
    183  CB        20.3240   25.6550  -12.9470 C.3   428  GLU428      0.0402
    184  CG        20.0410   24.9610  -11.6430 C.3   428  GLU428      0.1161
    185  CD        20.4110   25.7610  -10.3790 C.2   428  GLU428      0.3649
    186  OE1       20.7510   26.9810  -10.4840 O.co2 428  GLU428     -0.2457
    187  OE2       20.4260   25.0870   -9.3030 O.co2 428  GLU428     -0.2457
    188  N         21.8580   23.2250  -15.1170 N.am  429  THR429     -0.1939
    189  CA        23.2290   22.9040  -15.5270 C.3   429  THR429      0.2028
    190  C         23.4740   23.3840  -16.9560 C.2   429  THR429      0.2642
    191  O         22.5470   23.6010  -17.7460 O.2   429  THR429     -0.2714
    192  CB        23.5390   21.4040  -15.4520 C.3   429  THR429      0.1808
    193  OG1       22.4700   20.6170  -16.0320 O.3   429  THR429     -0.2208
    194  CG2       23.7580   20.9970  -13.9730 C.3   429  THR429      0.0379
    195  N         24.7510   23.5040  -17.2430 N.am  430  ALA430     -0.1977
    196  CA        25.2430   23.7030  -18.5560 C.3   430  ALA430      0.1597
    197  C         25.7720   22.3660  -19.1080 C.2   430  ALA430      0.2287
    198  O         26.6040   21.7070  -18.5070 O.2   430  ALA430     -0.2864
    199  CB        26.3170   24.7700  -18.5330 C.3   430  ALA430      0.0319
    200  N         28.8850   20.9380  -16.8930 N.3   448  GLY448     -0.1210
    201  CA        29.6660   21.8450  -16.0870 C.3   448  GLY448      0.1956
    202  C         29.3820   21.6230  -14.6150 C.2   448  GLY448      0.2611
    203  O         28.2580   21.2480  -14.2490 O.2   448  GLY448     -0.2717
    204  N         30.4280   21.7430  -13.8050 N.am  449  ASP449     -0.1973
    205  CA        30.3670   21.9440  -12.3540 C.3   449  ASP449      0.1709
    206  C         30.0270   20.7310  -11.5120 C.2   449  ASP449      0.2293
    207  O         30.5250   20.6320  -10.4240 O.2   449  ASP449     -0.2864
    208  CB        29.4110   23.0810  -11.9580 C.3   449  ASP449      0.1436
    209  CG        29.8530   24.4650  -12.4930 C.2   449  ASP449      0.3671
    210  OD1       31.0570   24.6320  -12.6670 O.co2 449  ASP449     -0.2456
    211  OD2       29.0110   25.4110  -12.6570 O.co2 449  ASP449     -0.2456
    212  N         32.5940   24.6000  -35.8200 N.3   606  ARG606     -0.1245
    213  CA        33.3050   23.8350  -34.8260 C.3   606  ARG606      0.1563
    214  C         32.4810   22.6710  -34.2580 C.2   606  ARG606      0.2260
    215  O         32.7670   22.1650  -33.1720 O.2   606  ARG606     -0.2867
    216  CB        33.7900   24.7600  -33.7480 C.3   606  ARG606      0.0307
    217  CG        32.6480   25.4910  -33.0800 C.3   606  ARG606      0.0489
    218  CD        33.1970   26.2500  -31.9050 C.3   606  ARG606      0.2205
    219  NE        32.1070   26.8510  -31.1520 N.pl3 606  ARG606     -0.0865
    220  CZ        31.4500   26.2670  -30.1600 C.cat 606  ARG606      0.5346
    221  NH1       31.7520   25.0700  -29.7450 N.pl3 606  ARG606      0.1354
    222  NH2       30.4840   26.9180  -29.5560 N.pl3 606  ARG606      0.1354
    223  N         20.7340   30.2210  -25.4420 N.3   701  ASN701     -0.1240
    224  CA        22.0280   29.8190  -26.0560 C.3   701  ASN701      0.1653
    225  C         22.2550   28.3040  -25.9800 C.2   701  ASN701      0.2266
    226  O         23.2980   27.8280  -25.5090 O.2   701  ASN701     -0.2867
    227  CB        23.2090   30.5980  -25.4740 C.3   701  ASN701      0.1155
    228  CG        23.3660   30.4120  -23.9490 C.2   701  ASN701      0.2627
    229  OD1       22.5810   29.7300  -23.3090 O.2   701  ASN701     -0.2716
    230  ND2       24.4180   30.9610  -23.3890 N.am  701  ASN701     -0.0877
    231  N         24.8660   23.4410  -27.6430 N.3   704  GLU704     -0.1245
    232  CA        26.3010   23.1310  -27.6240 C.3   704  GLU704      0.1567
    233  C         26.5120   21.6060  -27.6850 C.2   704  GLU704      0.2260
    234  O         27.4540   21.1540  -28.3180 O.2   704  GLU704     -0.2867
    235  CB        26.9450   23.7720  -26.3550 C.3   704  GLU704      0.0388
    236  CG        28.4050   23.4040  -26.1140 C.3   704  GLU704      0.1160
    237  CD        29.3030   23.9810  -27.2150 C.2   704  GLU704      0.3649
    238  OE1       28.9220   25.0390  -27.8290 O.co2 704  GLU704     -0.2457
    239  OE2       30.3790   23.3560  -27.4510 O.co2 704  GLU704     -0.2457
    240  N         22.6110   25.6650  -22.0070 N.3   721  ASN721     -0.1240
    241  CA        23.5890   26.3140  -21.1870 C.3   721  ASN721      0.1653
    242  C         22.8110   27.0870  -20.0910 C.2   721  ASN721      0.2266
    243  O         22.5330   28.2760  -20.2190 O.2   721  ASN721     -0.2867
    244  CB        24.4690   27.2080  -22.0250 C.3   721  ASN721      0.1155
    245  CG        25.6100   27.8510  -21.2350 C.2   721  ASN721      0.2627
    246  OD1       25.6450   27.8920  -20.0130 O.2   721  ASN721     -0.2716
    247  ND2       26.5370   28.4080  -21.9670 N.am  721  ASN721     -0.0877
@<TRIPOS>BOND
     1   212   213    1
     2   213   214    1
     3   213   216    1
     4   214   215    2
     5   216   217    1
     6    40    38   ar
     7    40    41   ar
     8   217   218    1
     9    38    37   ar
    10    41    43   ar
    11    41    39   ar
    12    43    45   ar
    13    37    39   ar
    14    37    36    1
    15   218   219    1
    16    39    42   ar
    17    45    44   ar
    18    36    33    1
    19   219   220    2
    20    42    44   ar
    21   220   221    1
    22   220   222    1
    23    34    33    1
    24    34    35    2
    25    33    32    1
    26   105   106    1
    27   105   102    1
    28   106   107    1
    29   234   233    2
    30   238   237   ar
    31   233   232    1
    32   231   232    1
    33   232   235    1
    34   104   103    2
    35   239   237   ar
    36    52    54   ar
    37    52    51   ar
    38    54    55   ar
    39   102   103    1
    40   102   101    1
    41   237   236    1
    42   107   101    1
    43   235   236    1
    44    51    50    1
    45    51    53   ar
    46    46    47    1
    47   224   225    1
    48   224   227    1
    49   224   223    1
    50    83    82    2
    51    55    57   ar
    52    55    53   ar
    53   225   226    2
    54    50    47    1
    55    84    86    1
    56    84    85    1
    57    84    81    1
    58   227   228    1
    59    57    59   ar
    60    53    56   ar
    61    47    48    1
    62    90    89    2
    63    82    81    1
    64    82    87   am
    65    81    80    1
    66    89    88    1
    67    59    58   ar
    68    88    87    1
    69    88    91    1
    70   228   230   am
    71   228   229    2
    72    56    58   ar
    73    48    49    2
    74    93    92   ar
    75    93    95   ar
    76    91    92    1
    77    92    94   ar
    78    95    96   ar
    79   244   245    1
    80   244   241    1
    81   240   241    1
    82   247   245   am
    83   245   246    2
    84    94    96   ar
    85    94    97   ar
    86    96    98   ar
    87   241   242    1
    88    75    77   ar
    89    75    73   ar
    90    77    78   ar
    91    71    70    2
    92   243   242    2
    93    97    99   ar
    94    98   100   ar
    95    72    73    1
    96    72    69    1
    97   138   137    2
    98    67    66    1
    99    73    74   ar
   100    66    65    1
   101    64    65    1
   102    64    61    1
   103   142   140   am
   104    70    69    1
   105    68    69    1
   106    68    62   am
   107    78    79    1
   108    78    76   ar
   109   137   136    1
   110    60    61    1
   111   136   139    1
   112   136   135    1
   113   197   196    1
   114   197   198    2
   115   100    99   ar
   116    61    62    1
   117   139   140    1
   118    74    76   ar
   119   196   199    1
   120   196   195    1
   121   140   141    2
   122    27    26    2
   123    62    63    2
   124   191   190    2
   125   143   144    1
   126    26    25    1
   127   195   190   am
   128    28    25    1
   129    28    30    1
   130    28    29    1
   131   130   129    2
   132    31    29    1
   133   190   189    1
   134   200   201    1
   135    25    24    1
   136   147   144    1
   137   147   148    1
   138   144   145    1
   139   149   148   ar
   140   149   151   ar
   141   129   128    1
   142   115   113   am
   143   201   202    1
   144   193   192    1
   145   148   150   ar
   146   112   113    1
   147   112   109    1
   148    19    18    2
   149   151   153   ar
   150   133   132   ar
   151   134   132   ar
   152   189   192    1
   153   189   188    1
   154   192   194    1
   155    24    18   am
   156   132   131    1
   157   113   114    2
   158   145   146    2
   159   188   181   am
   160   108   109    1
   161    18    17    1
   162   182   181    2
   163   128   131    1
   164   128   127    1
   165   181   180    1
   166   111   110    2
   167   150   152   ar
   168   109   110    1
   169   202   203    2
   170   202   204   am
   171   153   152   ar
   172   153   154    1
   173   180   179    1
   174   180   183    1
   175   204   205    1
   176    17    16    1
   177    17    20    1
   178   183   184    1
   179    22    21   ar
   180    20    21    1
   181   210   209   ar
   182   211   209   ar
   183   209   208    1
   184    21    23   ar
   185   205   208    1
   186   205   206    1
   187   184   185    1
   188   206   207    2
   189   122   123    1
   190   122   121    1
   191   123   124    2
   192   124   126    1
   193   124   125    1
   194   186   185   ar
   195   185   187   ar
   196     2     1    1
   197     2     3    1
   198   166   165    1
   199   120   121    1
   200   120   117    1
   201     8     7    2
   202     5     3   am
   203     5     6    1
   204     3     4    2
   205   164   165   ar
   206   164   162   ar
   207   165   163   ar
   208   117   116    1
   209   117   118    1
   210     9     6    1
   211     9    10    1
   212     7     6    1
   213    12    10   ar
   214    12    14   ar
   215   162   160   ar
   216   163   161   ar
   217    10    11   ar
   218   119   118    2
   219   178   177    2
   220    14    15   ar
   221   160   161   ar
   222   160   159    1
   223   174   173    1
   224    11    13   ar
   225   177   176    1
   226    15    13   ar
   227   159   156    1
   228   173   172    1
   229   176   175    1
   230   155   156    1
   231   156   157    1
   232   172   171    1
   233   171   168    1
   234   157   158    2
   235   170   169    2
   236   168   169    1
   237   168   167    1
