@<TRIPOS>MOLECULE
tmp/5fkyB00.pdb
 159 153 0 0 0
SMALL
GASTEIGER

@<TRIPOS>ATOM
      1  N          1.3620  -38.9440   36.1590 N.3   132  GLY132     -0.1210
      2  CA         1.9450  -37.8120   35.4650 C.3   132  GLY132      0.1956
      3  C          1.5800  -36.4770   36.0220 C.2   132  GLY132      0.2612
      4  O          1.7920  -35.4290   35.3730 O.2   132  GLY132     -0.2717
      5  N          1.1060  -36.4880   37.2550 N.am  133  PHE133     -0.1962
      6  CA         0.6140  -35.2630   37.9820 C.3   133  PHE133      0.1771
      7  C          1.7590  -34.4760   38.6720 C.2   133  PHE133      0.2619
      8  O          2.8570  -35.0340   38.8090 O.2   133  PHE133     -0.2715
      9  CB        -0.5060  -35.6690   38.9970 C.3   133  PHE133      0.0574
     10  CG        -0.1040  -36.7080   39.9780 C.ar  133  PHE133     -0.0200
     11  CD1        0.7760  -36.4100   41.0190 C.ar  133  PHE133     -0.0042
     12  CD2       -0.5470  -38.0090   39.8530 C.ar  133  PHE133     -0.0042
     13  CE1        1.1890  -37.3850   41.9150 C.ar  133  PHE133     -0.0003
     14  CE2       -0.1410  -38.9910   40.7490 C.ar  133  PHE133     -0.0003
     15  CZ         0.7180  -38.6690   41.7730 C.ar  133  PHE133     -0.0000
     16  N          1.5140  -33.1800   39.0000 N.am  134  TYR134     -0.1974
     17  CA         2.3000  -32.3700   39.9670 C.3   134  TYR134      0.1639
     18  C          1.8510  -32.6610   41.4280 C.2   134  TYR134      0.2290
     19  O          0.6650  -32.8520   41.6700 O.2   134  TYR134     -0.2864
     20  CB         2.1680  -30.8840   39.6670 C.3   134  TYR134      0.0560
     21  CG         2.6250  -30.5010   38.2950 C.ar  134  TYR134     -0.0198
     22  CD1        3.9590  -30.1180   38.0520 C.ar  134  TYR134     -0.0009
     23  CD2        1.7160  -30.4210   37.2130 C.ar  134  TYR134     -0.0009
     24  CE1        4.3700  -29.6540   36.8080 C.ar  134  TYR134      0.0417
     25  CE2        2.1270  -30.0310   35.9500 C.ar  134  TYR134      0.0417
     26  CZ         3.4710  -29.6860   35.7320 C.ar  134  TYR134      0.1957
     27  OH         3.8930  -29.2980   34.5110 O.3   134  TYR134     -0.2866
     28  N          5.7200  -35.5980   37.9280 N.3   163  LYS163     -0.1245
     29  CA         6.4200  -34.4040   37.5340 C.3   163  LYS163      0.1561
     30  C          7.4720  -34.0190   38.5740 C.2   163  LYS163      0.2260
     31  O          8.5070  -33.4230   38.2230 O.2   163  LYS163     -0.2867
     32  CB         5.4570  -33.2390   37.3300 C.3   163  LYS163      0.0271
     33  CG         4.5930  -33.3250   36.1040 C.3   163  LYS163      0.0035
     34  CD         5.3720  -32.8870   34.8540 C.3   163  LYS163      0.0206
     35  CE         4.4400  -32.7460   33.6280 C.3   163  LYS163      0.1093
     36  NZ         3.9170  -34.0980   33.2430 N.3   163  LYS163     -0.1314
     37  N          5.7480  -31.9570   27.7030 N.3   239  ASP239     -0.1225
     38  CA         4.6090  -31.1300   28.1860 C.3   239  ASP239      0.1805
     39  C          5.0330  -30.1000   29.2660 C.2   239  ASP239      0.2597
     40  O          5.8720  -30.3820   30.1200 O.2   239  ASP239     -0.2718
     41  CB         3.4950  -31.9990   28.7080 C.3   239  ASP239      0.1424
     42  CG         3.9480  -32.9900   29.7690 C.2   239  ASP239      0.3668
     43  OD1        5.1390  -33.4500   29.7300 O.co2 239  ASP239     -0.2456
     44  OD2        3.1560  -33.3110   30.7020 O.co2 239  ASP239     -0.2456
     45  N          4.4280  -28.9300   29.1970 N.am  240  ASP240     -0.1974
     46  CA         4.6170  -27.8820   30.2080 C.3   240  ASP240      0.1709
     47  C          6.0860  -27.4570   30.3690 C.2   240  ASP240      0.2293
     48  O          6.5950  -27.4530   31.4890 O.2   240  ASP240     -0.2864
     49  CB         4.0740  -28.3400   31.6100 C.3   240  ASP240      0.1436
     50  CG         2.5510  -28.5790   31.6530 C.2   240  ASP240      0.3671
     51  OD1        1.8620  -28.2630   30.6750 O.co2 240  ASP240     -0.2456
     52  OD2        2.0530  -29.1420   32.6780 O.co2 240  ASP240     -0.2456
     53  N          4.6410  -37.5750   24.7070 N.3   275  CYS275     -0.1235
     54  CA         3.6460  -36.5150   24.9680 C.3   275  CYS275      0.1677
     55  C          4.1100  -35.2060   24.3420 C.2   275  CYS275      0.2270
     56  O          5.2030  -34.7430   24.6430 O.2   275  CYS275     -0.2867
     57  CB         3.3180  -36.3290   26.4530 C.3   275  CYS275      0.0956
     58  SG         2.0690  -35.0080   26.7340 S.3   275  CYS275     -0.0801
     59  N         -0.3790  -30.1990   23.4430 N.3   279  TYR279     -0.1241
     60  CA        -1.0210  -31.4750   23.7760 C.3   279  TYR279      0.1605
     61  C         -2.5650  -31.4370   23.9120 C.2   279  TYR279      0.2264
     62  O         -3.1620  -32.4170   24.3110 O.2   279  TYR279     -0.2867
     63  CB        -0.4180  -32.0370   25.0410 C.3   279  TYR279      0.0534
     64  CG        -0.4760  -31.2190   26.3000 C.ar  279  TYR279     -0.0201
     65  CD1       -1.6530  -31.1180   27.0510 C.ar  279  TYR279     -0.0009
     66  CD2        0.6730  -30.5580   26.7860 C.ar  279  TYR279     -0.0009
     67  CE1       -1.6960  -30.4040   28.2370 C.ar  279  TYR279      0.0417
     68  CE2        0.6390  -29.7840   27.9720 C.ar  279  TYR279      0.0417
     69  CZ        -0.5180  -29.7120   28.7150 C.ar  279  TYR279      0.1957
     70  OH        -0.5390  -28.9900   29.9170 O.3   279  TYR279     -0.2866
     71  N         -4.6980  -34.6900   25.2710 N.3   307  THR307     -0.1218
     72  CA        -5.6500  -34.5300   26.4230 C.3   307  THR307      0.1862
     73  C         -7.0300  -34.0380   26.0060 C.2   307  THR307      0.2287
     74  O         -7.8960  -33.8420   26.8680 O.2   307  THR307     -0.2866
     75  CB        -5.0750  -33.6140   27.5310 C.3   307  THR307      0.1770
     76  OG1       -5.0820  -32.2700   27.0710 O.3   307  THR307     -0.2211
     77  CG2       -3.6660  -33.9500   27.8680 C.3   307  THR307      0.0375
     78  N         -6.7560  -28.5230   28.1210 N.3   311  VAL311     -0.1231
     79  CA        -5.9100  -29.2270   29.0850 C.3   311  VAL311      0.1692
     80  C         -6.6950  -30.2790   29.8550 C.2   311  VAL311      0.2591
     81  O         -6.2610  -31.4230   30.0000 O.2   311  VAL311     -0.2718
     82  CB        -5.2660  -28.2240   30.1290 C.3   311  VAL311      0.0266
     83  CG1       -4.4320  -28.9990   31.1420 C.3   311  VAL311      0.0020
     84  CG2       -4.4270  -27.1650   29.4300 C.3   311  VAL311      0.0020
     85  N         -7.8570  -29.8810   30.3680 N.am  312  ILE312     -0.1980
     86  CA        -8.7680  -30.7800   31.0800 C.3   312  ILE312      0.1595
     87  C        -10.0290  -30.8430   30.2160 C.2   312  ILE312      0.2287
     88  O        -10.7330  -29.8170   30.0340 O.2   312  ILE312     -0.2864
     89  CB        -9.2060  -30.2640   32.4680 C.3   312  ILE312      0.0276
     90  CG1       -8.0390  -29.5830   33.2200 C.3   312  ILE312      0.0022
     91  CG2       -9.8250  -31.4230   33.2470 C.3   312  ILE312      0.0022
     92  CD1       -6.9400  -30.5610   33.5620 C.3   312  ILE312      0.0001
     93  N         -4.4980  -38.9330   26.8990 N.3   334  TRP334     -0.1241
     94  CA        -4.1510  -38.6520   28.3040 C.3   334  TRP334      0.1605
     95  C         -5.3430  -37.8460   28.8910 C.2   334  TRP334      0.2264
     96  O         -5.5240  -36.6940   28.5860 O.2   334  TRP334     -0.2867
     97  CB        -2.8540  -37.8700   28.3220 C.3   334  TRP334      0.0550
     98  CG        -2.3400  -37.2960   29.6470 C.ar  334  TRP334      0.0003
     99  CD1       -3.0680  -36.8100   30.7040 C.ar  334  TRP334      0.0946
    100  CD2       -0.9520  -37.1180   29.9910 C.ar  334  TRP334      0.0152
    101  NE1       -2.1860  -36.3500   31.6830 N.ar  334  TRP334     -0.2442
    102  CE2       -0.9000  -36.5390   31.2630 C.ar  334  TRP334      0.0810
    103  CE3        0.2580  -37.4720   29.3550 C.ar  334  TRP334      0.0012
    104  CZ2        0.3050  -36.3030   31.9390 C.ar  334  TRP334      0.0191
    105  CZ3        1.4900  -37.1910   30.0180 C.ar  334  TRP334      0.0001
    106  CH2        1.4780  -36.5730   31.2820 C.ar  334  TRP334      0.0015
    107  N         -7.3300  -36.1550   31.7890 N.3   336  ASN336     -0.1240
    108  CA        -7.0960  -35.5240   33.0790 C.3   336  ASN336      0.1653
    109  C         -8.2270  -35.5780   34.0570 C.2   336  ASN336      0.2266
    110  O         -8.7290  -34.5740   34.4290 O.2   336  ASN336     -0.2867
    111  CB        -6.6120  -34.0950   32.8400 C.3   336  ASN336      0.1155
    112  CG        -5.2000  -34.0990   32.3670 C.2   336  ASN336      0.2627
    113  OD1       -4.3490  -34.7530   33.0120 O.2   336  ASN336     -0.2716
    114  ND2       -4.9350  -33.5110   31.1900 N.am  336  ASN336     -0.0877
    115  N         -7.2740  -36.3380   38.1800 N.3   339  VAL339     -0.1245
    116  CA        -6.1520  -35.5180   38.6260 C.3   339  VAL339      0.1561
    117  C         -6.6540  -34.2460   39.3130 C.2   339  VAL339      0.2260
    118  O         -7.5030  -33.5680   38.7820 O.2   339  VAL339     -0.2867
    119  CB        -5.1800  -35.1710   37.4800 C.3   339  VAL339      0.0252
    120  CG1       -5.9060  -34.5130   36.2860 C.3   339  VAL339      0.0019
    121  CG2       -4.0170  -34.2970   37.9840 C.3   339  VAL339      0.0019
    122  N         -4.4240  -31.8340   40.8510 N.3   341  ASP341     -0.1225
    123  CA        -3.1710  -31.1220   41.1560 C.3   341  ASP341      0.1805
    124  C         -3.2910  -29.6180   40.9610 C.2   341  ASP341      0.2597
    125  O         -2.4790  -28.8500   41.4240 O.2   341  ASP341     -0.2718
    126  CB        -1.9780  -31.8120   40.4290 C.3   341  ASP341      0.1424
    127  CG        -2.0250  -31.6740   38.9620 C.2   341  ASP341      0.3668
    128  OD1       -2.8850  -30.8990   38.4720 O.co2 341  ASP341     -0.2456
    129  OD2       -1.1000  -32.3060   38.3200 O.co2 341  ASP341     -0.2456
    130  N         -4.4030  -29.1740   40.3890 N.am  342  TYR342     -0.1976
    131  CA        -4.7040  -27.7290   40.2700 C.3   342  TYR342      0.1639
    132  C         -5.9480  -27.3350   41.1420 C.2   342  TYR342      0.2290
    133  O         -6.3570  -26.1680   41.1840 O.2   342  TYR342     -0.2864
    134  CB        -4.9060  -27.3320   38.8040 C.3   342  TYR342      0.0560
    135  CG        -6.0400  -28.0830   38.1420 C.ar  342  TYR342     -0.0198
    136  CD1       -5.8910  -29.4050   37.7840 C.ar  342  TYR342     -0.0009
    137  CD2       -7.3090  -27.5150   37.9840 C.ar  342  TYR342     -0.0009
    138  CE1       -6.9110  -30.1410   37.2100 C.ar  342  TYR342      0.0417
    139  CE2       -8.3540  -28.2500   37.3610 C.ar  342  TYR342      0.0417
    140  CZ        -8.1760  -29.5510   37.0110 C.ar  342  TYR342      0.1957
    141  OH        -9.1880  -30.3010   36.3970 O.3   342  TYR342     -0.2866
    142  N         -4.9310  -39.7220   34.1490 N.3   369  ASN369     -0.1240
    143  CA        -4.0510  -39.0130   35.0670 C.3   369  ASN369      0.1653
    144  C         -4.7940  -38.8170   36.3980 C.2   369  ASN369      0.2266
    145  O         -5.8320  -38.1400   36.4330 O.2   369  ASN369     -0.2867
    146  CB        -3.6100  -37.7090   34.4530 C.3   369  ASN369      0.1155
    147  CG        -2.4680  -37.0340   35.2450 C.2   369  ASN369      0.2627
    148  OD1       -1.6680  -37.7030   35.9490 O.2   369  ASN369     -0.2716
    149  ND2       -2.4000  -35.7500   35.1470 N.am  369  ASN369     -0.0877
    150  N         -8.8700  -24.0060   34.7880 N.3   430  HIS430     -0.1241
    151  CA        -9.1200  -24.8800   33.6200 C.3   430  HIS430      0.1621
    152  C        -10.5710  -24.9710   33.1920 C.2   430  HIS430      0.2264
    153  O        -10.8590  -25.6230   32.1870 O.2   430  HIS430     -0.2867
    154  CB        -8.5630  -26.2700   33.8670 C.3   430  HIS430      0.0745
    155  CG        -7.0750  -26.3000   33.8980 C.ar  430  HIS430      0.0817
    156  ND1       -6.3030  -25.5240   33.0570 N.ar  430  HIS430     -0.2268
    157  CD2       -6.2110  -27.0290   34.6410 C.ar  430  HIS430      0.1154
    158  CE1       -5.0220  -25.7550   33.3070 C.ar  430  HIS430      0.1986
    159  NE2       -4.9400  -26.6570   34.2680 N.ar  430  HIS430     -0.2212
@<TRIPOS>BOND
     1    59    60    1
     2    60    61    1
     3    60    63    1
     4    61    62    2
     5    55    56    2
     6    55    54    1
     7    53    54    1
     8    54    57    1
     9    63    64    1
    10    71    72    1
    11    73    72    1
    12    73    74    2
    13    64    66   ar
    14    64    65   ar
    15    72    75    1
    16    57    58    1
    17    66    68   ar
    18    93    94    1
    19    65    67   ar
    20    76    75    1
    21    75    77    1
    22    37    38    1
    23    68    69   ar
    24    78    79    1
    25    38    41    1
    26    38    39    1
    27    67    69   ar
    28    94    97    1
    29    94    95    1
    30    97    98    1
    31    96    95    2
    32    41    42    1
    33    69    70    1
    34    79    80    1
    35    79    82    1
    36    45    39   am
    37    45    46    1
    38    39    40    2
    39   103   100   ar
    40   103   105   ar
    41    84    82    1
    42    98   100   ar
    43    98    99   ar
    44    43    42   ar
    45    42    44   ar
    46    80    81    2
    47    80    85   am
    48   100   102   ar
    49   105   106   ar
    50    88    87    2
    51    82    83    1
    52    46    47    1
    53    46    49    1
    54    87    86    1
    55    85    86    1
    56    47    48    2
    57    51    50   ar
    58    99   101   ar
    59    86    89    1
    60   114   112   am
    61   102   101   ar
    62   102   104   ar
    63   106   104   ar
    64    49    50    1
    65    50    52   ar
    66   107   108    1
    67   153   152    2
    68   112   111    1
    69   112   113    2
    70    89    90    1
    71    89    91    1
    72   111   108    1
    73   156   158   ar
    74   156   155   ar
    75   108   109    1
    76   152   151    1
    77    90    92    1
    78    36    35    1
    79   158   159   ar
    80   151   154    1
    81   151   150    1
    82    35    34    1
    83   154   155    1
    84   155   157   ar
    85   109   110    2
    86   142   143    1
    87   159   157   ar
    88   146   143    1
    89   146   147    1
    90    27    26    1
    91    34    33    1
    92   143   144    1
    93   149   147   am
    94   147   148    2
    95     4     3    2
    96     2     3    1
    97     2     1    1
    98    26    25   ar
    99    26    24   ar
   100    25    23   ar
   101     3     5   am
   102    33    32    1
   103   120   119    1
   104   141   140    1
   105   144   145    2
   106    24    22   ar
   107   140   138   ar
   108   140   139   ar
   109   138   136   ar
   110    23    21   ar
   111     5     6    1
   112    32    29    1
   113   139   137   ar
   114   119   121    1
   115   119   116    1
   116    29    28    1
   117    29    30    1
   118   136   135   ar
   119     6     7    1
   120     6     9    1
   121   137   135   ar
   122    22    21   ar
   123   135   134    1
   124   115   116    1
   125    31    30    2
   126    21    20    1
   127   129   127   ar
   128   128   127   ar
   129   116   117    1
   130     7     8    2
   131     7    16   am
   132   118   117    2
   133   134   131    1
   134   127   126    1
   135     9    10    1
   136    16    17    1
   137    20    17    1
   138    12    10   ar
   139    12    14   ar
   140    17    18    1
   141    10    11   ar
   142   131   130    1
   143   131   132    1
   144   130   124   am
   145   126   123    1
   146    14    15   ar
   147   122   123    1
   148   124   123    1
   149   124   125    2
   150    11    13   ar
   151   132   133    2
   152    18    19    2
   153    15    13   ar
