@<TRIPOS>MOLECULE
tmp/5fl1A00.pdb
 181 177 0 0 0
SMALL
GASTEIGER

@<TRIPOS>ATOM
      1  N         30.3200   44.3330  244.9410 N.3   127  GLY127     -0.1210
      2  CA        30.9410   45.6070  245.2470 C.3   127  GLY127      0.1956
      3  C         30.6940   46.1400  246.6390 C.2   127  GLY127      0.2612
      4  O         30.8200   47.3500  246.8720 O.2   127  GLY127     -0.2717
      5  N         30.3400   45.2540  247.5630 N.am  128  PHE128     -0.1962
      6  CA        29.8880   45.6650  248.8840 C.3   128  PHE128      0.1771
      7  C         31.0460   45.6950  249.8660 C.2   128  PHE128      0.2619
      8  O         32.1060   45.1120  249.6330 O.2   128  PHE128     -0.2715
      9  CB        28.7680   44.7350  249.4160 C.3   128  PHE128      0.0574
     10  CG        29.1080   43.2770  249.3190 C.ar  128  PHE128     -0.0200
     11  CD1       30.0190   42.7180  250.1810 C.ar  128  PHE128     -0.0042
     12  CD2       28.5680   42.4840  248.3210 C.ar  128  PHE128     -0.0042
     13  CE1       30.3710   41.3830  250.0840 C.ar  128  PHE128     -0.0003
     14  CE2       28.9110   41.1520  248.2210 C.ar  128  PHE128     -0.0003
     15  CZ        29.8140   40.6020  249.1110 C.ar  128  PHE128     -0.0000
     16  N         30.8180   46.3890  250.9810 N.am  129  TYR129     -0.1974
     17  CA        31.6130   46.2190  252.1950 C.3   129  TYR129      0.1639
     18  C         31.1550   45.0060  252.9940 C.2   129  TYR129      0.2290
     19  O         29.9530   44.7310  253.1090 O.2   129  TYR129     -0.2864
     20  CB        31.4930   47.4690  253.0530 C.3   129  TYR129      0.0560
     21  CG        32.0090   48.7270  252.3960 C.ar  129  TYR129     -0.0198
     22  CD1       33.3740   49.0460  252.4130 C.ar  129  TYR129     -0.0009
     23  CD2       31.1530   49.5930  251.7560 C.ar  129  TYR129     -0.0009
     24  CE1       33.8410   50.2140  251.8300 C.ar  129  TYR129      0.0417
     25  CE2       31.6130   50.7540  251.1640 C.ar  129  TYR129      0.0417
     26  CZ        32.9720   51.0480  251.2060 C.ar  129  TYR129      0.1957
     27  OH        33.4200   52.2020  250.6160 O.3   129  TYR129     -0.2866
     28  N         34.9070   45.4110  248.3990 N.3   158  LYS158     -0.1245
     29  CA        35.6420   46.5260  249.0000 C.3   158  LYS158      0.1561
     30  C         36.6940   46.0650  249.9990 C.2   158  LYS158      0.2260
     31  O         37.7240   46.7410  250.1730 O.2   158  LYS158     -0.2867
     32  CB        34.6730   47.4740  249.6870 C.3   158  LYS158      0.0271
     33  CG        33.8910   48.3350  248.7160 C.3   158  LYS158      0.0035
     34  CD        34.7420   49.5060  248.2580 C.3   158  LYS158      0.0206
     35  CE        33.9070   50.4960  247.4610 C.3   158  LYS158      0.1093
     36  NZ        33.3870   49.8810  246.2100 N.3   158  LYS158     -0.1314
     37  N         35.2440   55.1630  243.7760 N.3   234  ASP234     -0.1225
     38  CA        34.1290   55.4500  244.6670 C.3   234  ASP234      0.1805
     39  C         34.5840   55.4360  246.1260 C.2   234  ASP234      0.2597
     40  O         35.4750   54.6690  246.5130 O.2   234  ASP234     -0.2718
     41  CB        32.9890   54.4490  244.4330 C.3   234  ASP234      0.1424
     42  CG        33.4160   52.9910  244.5930 C.2   234  ASP234      0.3668
     43  OD1       34.5360   52.6520  244.2230 O.co2 234  ASP234     -0.2456
     44  OD2       32.6120   52.1550  245.0550 O.co2 234  ASP234     -0.2456
     45  N         34.0020   56.3370  246.9220 N.am  235  ASP235     -0.1974
     46  CA        34.1840   56.3520  248.3790 C.3   235  ASP235      0.1709
     47  C         35.6410   56.6230  248.7730 C.2   235  ASP235      0.2293
     48  O         36.2210   55.9230  249.6040 O.2   235  ASP235     -0.2864
     49  CB        33.7070   55.0380  248.9940 C.3   235  ASP235      0.1436
     50  CG        32.1910   54.8810  248.9710 C.2   235  ASP235      0.3671
     51  OD1       31.4670   55.8080  248.5270 O.co2 235  ASP235     -0.2456
     52  OD2       31.7290   53.8230  249.4530 O.co2 235  ASP235     -0.2456
     53  N         34.0800   53.5650  237.6610 N.3   270  CYS270     -0.1235
     54  CA        33.0080   54.1290  238.4540 C.3   270  CYS270      0.1677
     55  C         33.5220   55.4130  239.0920 C.2   270  CYS270      0.2270
     56  O         34.6390   55.4290  239.6290 O.2   270  CYS270     -0.2867
     57  CB        32.4720   53.1050  239.5000 C.3   270  CYS270      0.0956
     58  SG        33.2160   53.1140  241.0980 S.3   270  CYS270     -0.0801
     59  N         29.1460   59.6640  242.0700 N.3   274  TYR274     -0.1241
     60  CA        28.4630   58.5590  241.4090 C.3   274  TYR274      0.1605
     61  C         26.9420   58.5800  241.5800 C.2   274  TYR274      0.2264
     62  O         26.2740   57.6320  241.1500 O.2   274  TYR274     -0.2867
     63  CB        29.0190   57.2200  241.8840 C.3   274  TYR274      0.0534
     64  CG        28.9970   56.9560  243.3660 C.ar  274  TYR274     -0.0201
     65  CD1       27.8330   56.6010  244.0220 C.ar  274  TYR274     -0.0009
     66  CD2       30.1620   57.0180  244.0950 C.ar  274  TYR274     -0.0009
     67  CE1       27.8340   56.3290  245.4010 C.ar  274  TYR274      0.0417
     68  CE2       30.1780   56.7530  245.4540 C.ar  274  TYR274      0.0417
     69  CZ        29.0160   56.4130  246.1010 C.ar  274  TYR274      0.1957
     70  OH        29.0690   56.1600  247.4560 O.3   274  TYR274     -0.2866
     71  N         29.8450   54.1970  235.5980 N.3   300  MET300     -0.1230
     72  CA        28.8130   53.6430  236.4590 C.3   300  MET300      0.1702
     73  C         28.1130   54.7380  237.2460 C.2   300  MET300      0.2592
     74  O         28.6350   55.8360  237.4430 O.2   300  MET300     -0.2718
     75  CB        29.3960   52.5910  237.3990 C.3   300  MET300      0.0401
     76  CG        30.1530   51.4990  236.6350 C.3   300  MET300      0.0596
     77  SD        30.5670   50.0080  237.5810 S.3   300  MET300     -0.1393
     78  CE        28.9880   49.1190  237.5490 C.3   300  MET300      0.0692
     79  N         26.8930   54.4290  237.6810 N.am  301  TRP301     -0.1962
     80  CA        26.0070   55.4380  238.2370 C.3   301  TRP301      0.1771
     81  C         24.9650   54.7220  239.0860 C.2   301  TRP301      0.2620
     82  O         24.4510   53.6880  238.6510 O.2   301  TRP301     -0.2715
     83  CB        25.3460   56.2250  237.0990 C.3   301  TRP301      0.0590
     84  CG        24.5450   57.3910  237.5260 C.ar  301  TRP301      0.0006
     85  CD1       23.1800   57.5260  237.4930 C.ar  301  TRP301      0.0946
     86  CD2       25.0600   58.6080  238.0450 C.ar  301  TRP301      0.0152
     87  NE1       22.8220   58.7670  237.9530 N.ar  301  TRP301     -0.2442
     88  CE2       23.9610   59.4520  238.2980 C.ar  301  TRP301      0.0810
     89  CE3       26.3500   59.0740  238.3100 C.ar  301  TRP301      0.0012
     90  CZ2       24.1130   60.7340  238.8140 C.ar  301  TRP301      0.0191
     91  CZ3       26.5000   60.3450  238.8160 C.ar  301  TRP301      0.0001
     92  CH2       25.3800   61.1640  239.0660 C.ar  301  TRP301      0.0015
     93  N         24.7030   55.2300  240.3020 N.am  302  THR302     -0.1951
     94  CA        23.7510   54.6090  241.2220 C.3   302  THR302      0.1897
     95  C         22.3960   55.2990  241.2520 C.2   302  THR302      0.2313
     96  O         21.5180   54.8660  242.0070 O.2   302  THR302     -0.2863
     97  CB        24.3030   54.5570  242.6620 C.3   302  THR302      0.1794
     98  OG1       24.3260   55.8710  243.2440 O.3   302  THR302     -0.2208
     99  CG2       25.6940   53.9720  242.7020 C.3   302  THR302      0.0378
    100  N         22.7860   57.7670  246.5320 N.3   306  VAL306     -0.1231
    101  CA        23.6290   56.5820  246.7220 C.3   306  VAL306      0.1692
    102  C         22.7930   55.3110  246.6120 C.2   306  VAL306      0.2591
    103  O         23.2080   54.3310  245.9750 O.2   306  VAL306     -0.2718
    104  CB        24.3590   56.6450  248.0810 C.3   306  VAL306      0.0266
    105  CG1       25.1650   55.3810  248.3100 C.3   306  VAL306      0.0020
    106  CG2       25.2700   57.8660  248.1720 C.3   306  VAL306      0.0020
    107  N         21.6250   55.2960  247.2780 N.am  307  ILE307     -0.1980
    108  CA        20.6560   54.2000  247.2120 C.3   307  ILE307      0.1595
    109  C         19.4020   54.7730  246.5640 C.2   307  ILE307      0.2287
    110  O         18.6980   55.6060  247.1610 O.2   307  ILE307     -0.2864
    111  CB        20.3190   53.6080  248.5940 C.3   307  ILE307      0.0276
    112  CG1       21.5580   53.4510  249.4870 C.3   307  ILE307      0.0022
    113  CG2       19.6090   52.2550  248.4300 C.3   307  ILE307      0.0022
    114  CD1       22.5610   52.4060  249.0230 C.3   307  ILE307      0.0001
    115  N         24.7840   50.9370  238.3990 N.3   329  TRP329     -0.1241
    116  CA        25.1410   50.1980  239.6140 C.3   329  TRP329      0.1605
    117  C         23.9750   50.3960  240.5780 C.2   329  TRP329      0.2264
    118  O         23.8640   51.4540  241.2020 O.2   329  TRP329     -0.2867
    119  CB        26.4500   50.7310  240.1900 C.3   329  TRP329      0.0550
    120  CG        26.9060   50.2070  241.5320 C.ar  329  TRP329      0.0003
    121  CD1       26.1610   50.0040  242.6700 C.ar  329  TRP329      0.0946
    122  CD2       28.2520   49.8650  241.8730 C.ar  329  TRP329      0.0152
    123  NE1       26.9720   49.5460  243.6900 N.ar  329  TRP329     -0.2442
    124  CE2       28.2580   49.4480  243.2250 C.ar  329  TRP329      0.0810
    125  CE3       29.4530   49.8610  241.1560 C.ar  329  TRP329      0.0012
    126  CZ2       29.4280   49.0300  243.8760 C.ar  329  TRP329      0.0191
    127  CZ3       30.6080   49.4500  241.7990 C.ar  329  TRP329      0.0001
    128  CH2       30.5910   49.0410  243.1440 C.ar  329  TRP329      0.0015
    129  N         21.9840   49.7430  243.9020 N.3   331  ASN331     -0.1240
    130  CA        22.3110   49.3320  245.2670 C.3   331  ASN331      0.1653
    131  C         21.1160   48.6700  245.9510 C.2   331  ASN331      0.2266
    132  O         20.6030   49.1160  246.9890 O.2   331  ASN331     -0.2867
    133  CB        22.8350   50.5260  246.0540 C.3   331  ASN331      0.1155
    134  CG        24.3350   50.7630  245.8120 C.2   331  ASN331      0.2627
    135  OD1       25.1260   49.8240  245.8400 O.2   331  ASN331     -0.2716
    136  ND2       24.7130   52.0100  245.5630 N.am  331  ASN331     -0.0877
    137  N         21.9750   45.1810  248.3530 N.3   334  VAL334     -0.1245
    138  CA        23.1060   45.3570  249.2710 C.3   334  VAL334      0.1561
    139  C         22.6080   45.8330  250.6340 C.2   334  VAL334      0.2260
    140  O         21.7630   46.7320  250.7330 O.2   334  VAL334     -0.2867
    141  CB        24.1420   46.3290  248.6770 C.3   334  VAL334      0.0252
    142  CG1       23.5130   47.6510  248.2520 C.3   334  VAL334      0.0019
    143  CG2       25.2960   46.5710  249.6770 C.3   334  VAL334      0.0019
    144  N         24.9710   46.2930  253.3990 N.3   336  ASP336     -0.1225
    145  CA        26.1670   46.4830  254.2060 C.3   336  ASP336      0.1805
    146  C         26.0910   47.7160  255.1040 C.2   336  ASP336      0.2597
    147  O         26.9960   47.9410  255.9120 O.2   336  ASP336     -0.2718
    148  CB        27.3970   46.5120  253.2810 C.3   336  ASP336      0.1424
    149  CG        27.3910   47.6530  252.2680 C.2   336  ASP336      0.3668
    150  OD1       26.7060   48.6600  252.5050 O.co2 336  ASP336     -0.2456
    151  OD2       28.1520   47.5690  251.2540 O.co2 336  ASP336     -0.2456
    152  N         25.0210   48.4950  255.0070 N.am  337  TYR337     -0.1976
    153  CA        24.7520   49.5910  255.9150 C.3   337  TYR337      0.1639
    154  C         23.5340   49.3160  256.7810 C.2   337  TYR337      0.2290
    155  O         23.1520   50.1770  257.5760 O.2   337  TYR337     -0.2864
    156  CB        24.5550   50.8940  255.1340 C.3   337  TYR337      0.0560
    157  CG        23.4130   50.8510  254.1490 C.ar  337  TYR337     -0.0198
    158  CD1       23.5550   50.2290  252.9170 C.ar  337  TYR337     -0.0009
    159  CD2       22.2010   51.4340  254.4480 C.ar  337  TYR337     -0.0009
    160  CE1       22.5160   50.1770  252.0270 C.ar  337  TYR337      0.0417
    161  CE2       21.1680   51.4050  253.5510 C.ar  337  TYR337      0.0417
    162  CZ        21.3260   50.7720  252.3430 C.ar  337  TYR337      0.1957
    163  OH        20.2820   50.7260  251.4570 O.3   337  TYR337     -0.2866
    164  N         24.2740   45.3490  243.0550 N.3   364  ASN364     -0.1240
    165  CA        25.1880   45.1590  244.1730 C.3   364  ASN364      0.1653
    166  C         24.4450   44.3620  245.2430 C.2   364  ASN364      0.2266
    167  O         23.4550   44.8640  245.7950 O.2   364  ASN364     -0.2867
    168  CB        25.6280   46.5200  244.6950 C.3   364  ASN364      0.1155
    169  CG        26.7290   46.4540  245.7470 C.2   364  ASN364      0.2627
    170  OD1       27.4820   45.4800  245.8520 O.2   364  ASN364     -0.2716
    171  ND2       26.8370   47.5300  246.5220 N.am  364  ASN364     -0.0877
    172  N         20.6180   56.5160  254.6330 N.3   425  HIS425     -0.1241
    173  CA        20.3490   56.7350  253.2170 C.3   425  HIS425      0.1621
    174  C         18.8850   57.0040  252.9250 C.2   425  HIS425      0.2264
    175  O         18.5610   57.4100  251.8040 O.2   425  HIS425     -0.2867
    176  CB        20.7830   55.5190  252.4110 C.3   425  HIS425      0.0745
    177  CG        22.2620   55.3280  252.3600 C.ar  425  HIS425      0.0817
    178  ND1       23.1340   56.3620  252.0900 N.ar  425  HIS425     -0.2268
    179  CD2       23.0270   54.2220  252.5240 C.ar  425  HIS425      0.1154
    180  CE1       24.3760   55.8990  252.0830 C.ar  425  HIS425      0.1986
    181  NE2       24.3390   54.6040  252.3450 N.ar  425  HIS425     -0.2212
@<TRIPOS>BOND
     1    71    72    1
     2    72    73    1
     3    72    75    1
     4    76    75    1
     5    76    77    1
     6    83    84    1
     7    83    80    1
     8    73    74    2
     9    73    79   am
    10    85    84   ar
    11    85    87   ar
    12    84    86   ar
    13    78    77    1
    14    53    54    1
    15    79    80    1
    16    87    88   ar
    17    86    88   ar
    18    86    89   ar
    19    80    81    1
    20    88    90   ar
    21    89    91   ar
    22   115   116    1
    23    54    55    1
    24    54    57    1
    25    82    81    2
    26    90    92   ar
    27    91    92   ar
    28    81    93   am
    29    55    56    2
    30    57    58    1
    31   116   119    1
    32   116   117    1
    33   119   120    1
    34    93    94    1
    35   117   118    2
    36    62    61    2
    37   125   127   ar
    38   125   122   ar
    39    94    95    1
    40    94    97    1
    41    95    96    2
    42    60    61    1
    43    60    63    1
    44    60    59    1
    45   120   122   ar
    46   120   121   ar
    47   127   128   ar
    48   122   124   ar
    49    63    64    1
    50    97    99    1
    51    97    98    1
    52   121   123   ar
    53   164   165    1
    54   128   126   ar
    55   124   123   ar
    56   124   126   ar
    57    64    65   ar
    58    64    66   ar
    59    37    38    1
    60   129   130    1
    61    65    67   ar
    62    66    68   ar
    63   165   168    1
    64   165   166    1
    65    43    42   ar
    66    41    42    1
    67    41    38    1
    68    42    44   ar
    69    38    39    1
    70   168   169    1
    71     1     2    1
    72   166   167    2
    73     2     3    1
    74   130   131    1
    75   130   133    1
    76    67    69   ar
    77    68    69   ar
    78   136   134   am
    79   169   170    2
    80   169   171   am
    81   134   135    2
    82   134   133    1
    83   131   132    2
    84   103   102    2
    85    69    70    1
    86    39    40    2
    87    39    45   am
    88    36    35    1
    89   100   101    1
    90   109   110    2
    91   109   108    1
    92   102   101    1
    93   102   107   am
    94     3     4    2
    95     3     5   am
    96   101   104    1
    97    45    46    1
    98   108   107    1
    99   108   111    1
   100    35    34    1
   101     5     6    1
   102   104   106    1
   103   104   105    1
   104    14    12   ar
   105    14    15   ar
   106   142   141    1
   107    34    33    1
   108    12    10   ar
   109   137   138    1
   110    46    47    1
   111    46    49    1
   112    28    29    1
   113   113   111    1
   114    51    50   ar
   115   111   112    1
   116   141   138    1
   117   141   143    1
   118    33    32    1
   119    47    48    2
   120     6     9    1
   121     6     7    1
   122    50    49    1
   123    50    52   ar
   124    29    32    1
   125    29    30    1
   126   114   112    1
   127    15    13   ar
   128   138   139    1
   129    10     9    1
   130    10    11   ar
   131     8     7    2
   132     7    16   am
   133    30    31    2
   134    13    11   ar
   135    27    26    1
   136   139   140    2
   137    16    17    1
   138    25    26   ar
   139    25    23   ar
   140    26    24   ar
   141   151   149   ar
   142   163   162    1
   143    23    21   ar
   144   175   174    2
   145    24    22   ar
   146   160   162   ar
   147   160   158   ar
   148   180   178   ar
   149   180   181   ar
   150   178   177   ar
   151    17    18    1
   152    17    20    1
   153   149   150   ar
   154   149   148    1
   155   162   161   ar
   156   181   179   ar
   157   177   176    1
   158   177   179   ar
   159    21    22   ar
   160    21    20    1
   161   176   173    1
   162   158   157   ar
   163   174   173    1
   164    18    19    2
   165   173   172    1
   166   148   145    1
   167   144   145    1
   168   161   159   ar
   169   157   159   ar
   170   157   156    1
   171   145   146    1
   172   152   146   am
   173   152   153    1
   174   146   147    2
   175   156   153    1
   176   153   154    1
   177   154   155    2
