@<TRIPOS>MOLECULE
tmp/5fl3A00.pdb
 144 137 0 0 0
SMALL
GASTEIGER

@<TRIPOS>ATOM
      1  N         28.1150   30.6010   23.4540 N.3    16  SER16      -0.1217
      2  CA        27.6530   29.2660   23.7560 C.3    16  SER16       0.1889
      3  C         26.6660   28.7780   22.6940 C.2    16  SER16       0.2288
      4  O         26.5790   27.5800   22.4090 O.2    16  SER16      -0.2866
      5  CB        27.0060   29.2490   25.1270 C.3    16  SER16       0.2089
      6  OG        26.0230   30.2500   25.1820 O.3    16  SER16      -0.2183
      7  N         27.4570   34.5530   27.9240 N.3    31  ASP31      -0.1225
      8  CA        27.1810   34.6290   29.3650 C.3    31  ASP31       0.1805
      9  C         25.6830   34.5770   29.6710 C.2    31  ASP31       0.2598
     10  O         25.1980   35.3260   30.5200 O.2    31  ASP31      -0.2718
     11  CB        27.7880   35.9050   29.9790 C.3    31  ASP31       0.1424
     12  CG        29.3080   35.9590   29.8460 C.2    31  ASP31       0.3668
     13  OD1       29.9520   34.8860   29.9480 O.co2  31  ASP31      -0.2456
     14  OD2       29.8490   37.0730   29.6160 O.co2  31  ASP31      -0.2456
     15  N         24.9590   33.7090   28.9660 N.am   32  GLY32      -0.1957
     16  CA        23.5490   33.4700   29.2260 C.3    32  GLY32       0.1869
     17  C         22.6260   34.4080   28.4820 C.2    32  GLY32       0.2309
     18  O         21.4290   34.1510   28.3880 O.2    32  GLY32      -0.2863
     19  N         38.2500   29.1860   38.2600 N.3   108  ALA108     -0.1231
     20  CA        37.4830   29.8920   37.2310 C.3   108  ALA108      0.1694
     21  C         35.9680   29.8380   37.4760 C.2   108  ALA108      0.2591
     22  O         35.2680   30.8190   37.2660 O.2   108  ALA108     -0.2718
     23  CB        37.7990   29.3300   35.8670 C.3   108  ALA108      0.0304
     24  N         35.4710   28.6940   37.9350 N.am  109  LEU109     -0.1980
     25  CA        34.0310   28.4990   38.0930 C.3   109  LEU109      0.1596
     26  C         33.5040   29.0410   39.4080 C.2   109  LEU109      0.2287
     27  O         32.2940   29.0740   39.6230 O.2   109  LEU109     -0.2864
     28  CB        33.6760   27.0090   37.9780 C.3   109  LEU109      0.0297
     29  CG        33.9990   26.4250   36.6040 C.3   109  LEU109      0.0022
     30  CD1       33.5490   24.9740   36.4890 C.3   109  LEU109      0.0001
     31  CD2       33.3860   27.3020   35.5170 C.3   109  LEU109      0.0001
     32  N         17.8330   25.4210   34.2410 N.3   133  THR133     -0.1203
     33  CA        18.6320   25.6590   33.0350 C.3   133  THR133      0.1994
     34  C         19.4490   26.9270   33.1330 C.2   133  THR133      0.2618
     35  O         18.9240   27.9620   33.5120 O.2   133  THR133     -0.2717
     36  CB        17.7650   25.7790   31.7830 C.3   133  THR133      0.1784
     37  OG1       17.1040   24.5370   31.5490 O.3   133  THR133     -0.2211
     38  CG2       18.6300   26.1270   30.5760 C.3   133  THR133      0.0376
     39  N         20.7300   26.8430   32.7940 N.am  134  GLY134     -0.1942
     40  CA        21.5660   28.0210   32.7380 C.3   134  GLY134      0.2014
     41  C         22.2470   28.3370   34.0460 C.2   134  GLY134      0.2640
     42  O         22.7220   29.4500   34.2460 O.2   134  GLY134     -0.2714
     43  N         22.3180   27.3530   34.9330 N.am  135  SER135     -0.1935
     44  CA        22.9110   27.5510   36.2500 C.3   135  SER135      0.2055
     45  C         24.3600   27.0910   36.3280 C.2   135  SER135      0.2644
     46  O         24.9820   27.1910   37.3860 O.2   135  SER135     -0.2714
     47  CB        22.0980   26.8140   37.3070 C.3   135  SER135      0.2130
     48  OG        20.8090   27.4010   37.4270 O.3   135  SER135     -0.2179
     49  N         24.8880   26.5680   35.2240 N.am  136  GLY136     -0.1939
     50  CA        26.2440   26.0450   35.2020 C.3   136  GLY136      0.2014
     51  C         26.3990   24.6350   35.7500 C.2   136  GLY136      0.2639
     52  O         27.4690   24.2700   36.2460 O.2   136  GLY136     -0.2714
     53  N         25.3380   23.8350   35.6490 N.am  137  LYS137     -0.1963
     54  CA        25.3520   22.4730   36.1660 C.3   137  LYS137      0.1728
     55  C         26.2510   21.5850   35.3110 C.2   137  LYS137      0.2617
     56  O         27.0870   20.8630   35.8550 O.2   137  LYS137     -0.2715
     57  CB        23.9320   21.9150   36.2470 C.3   137  LYS137      0.0311
     58  CG        23.0200   22.7210   37.1720 C.3   137  LYS137      0.0038
     59  CD        21.7440   21.9920   37.4800 C.3   137  LYS137      0.0206
     60  CE        20.9430   21.7090   36.2310 C.3   137  LYS137      0.1093
     61  NZ        20.5610   22.9920   35.5540 N.3   137  LYS137     -0.1314
     62  N         26.0980   21.6670   33.9840 N.am  138  SER138     -0.1936
     63  CA        26.9470   20.9360   33.0320 C.3   138  SER138      0.2055
     64  C         28.4310   21.2130   33.2570 C.2   138  SER138      0.2644
     65  O         29.2880   20.3360   33.0950 O.2   138  SER138     -0.2714
     66  CB        26.6010   21.3230   31.5890 C.3   138  SER138      0.2130
     67  OG        25.2380   21.1180   31.3210 O.3   138  SER138     -0.2179
     68  N         28.7090   22.4630   33.6070 N.am  139  THR139     -0.1936
     69  CA        30.0650   22.9580   33.7300 C.3   139  THR139      0.2028
     70  C         30.6790   22.4870   35.0290 C.2   139  THR139      0.2642
     71  O         31.8210   22.0360   35.0690 O.2   139  THR139     -0.2714
     72  CB        30.0940   24.4930   33.6530 C.3   139  THR139      0.1808
     73  OG1       29.4500   24.9200   32.4410 O.3   139  THR139     -0.2208
     74  CG2       31.4980   24.9710   33.6380 C.3   139  THR139      0.0379
     75  N         29.9190   22.5760   36.1060 N.am  140  THR140     -0.1950
     76  CA        30.4370   22.0620   37.3460 C.3   140  THR140      0.1897
     77  C         30.7550   20.5830   37.1730 C.2   140  THR140      0.2313
     78  O         31.8490   20.1290   37.5590 O.2   140  THR140     -0.2863
     79  CB        29.4730   22.2910   38.4650 C.3   140  THR140      0.1794
     80  OG1       29.4340   23.6980   38.7270 O.3   140  THR140     -0.2208
     81  CG2       29.9210   21.5440   39.7120 C.3   140  THR140      0.0378
     82  N         27.7020   18.1210   26.3210 N.3   164  GLU164     -0.1231
     83  CA        28.0230   19.5450   26.3750 C.3   164  GLU164      0.1699
     84  C         29.5320   19.7700   26.3440 C.2   164  GLU164      0.2592
     85  O         30.0120   20.7370   25.7640 O.2   164  GLU164     -0.2718
     86  CB        27.4140   20.1980   27.6310 C.3   164  GLU164      0.0402
     87  CG        25.8620   20.1850   27.7200 C.3   164  GLU164      0.1161
     88  CD        25.1960   21.1350   26.7280 C.2   164  GLU164      0.3649
     89  OE1       25.9420   21.8760   26.0300 O.co2 164  GLU164     -0.2457
     90  OE2       23.9320   21.1330   26.6320 O.co2 164  GLU164     -0.2457
     91  N         30.2700   18.8630   26.9680 N.am  165  PHE165     -0.1976
     92  CA        31.7310   18.9080   27.0000 C.3   165  PHE165      0.1639
     93  C         32.3250   17.6030   26.4950 C.2   165  PHE165      0.2290
     94  O         31.8270   16.5250   26.8350 O.2   165  PHE165     -0.2864
     95  CB        32.2260   19.1750   28.4150 C.3   165  PHE165      0.0560
     96  CG        31.9740   20.5640   28.8780 C.ar  165  PHE165     -0.0200
     97  CD1       32.8980   21.5670   28.6270 C.ar  165  PHE165     -0.0042
     98  CD2       30.8100   20.8780   29.5570 C.ar  165  PHE165     -0.0042
     99  CE1       32.6650   22.8540   29.0500 C.ar  165  PHE165     -0.0003
    100  CE2       30.5700   22.1610   29.9800 C.ar  165  PHE165     -0.0003
    101  CZ        31.4940   23.1530   29.7260 C.ar  165  PHE165     -0.0000
    102  N         23.0520   25.5900   42.5160 N.3   267  GLN267     -0.1245
    103  CA        23.7410   26.6780   41.8600 C.3   267  GLN267      0.1566
    104  C         22.7890   27.6990   41.2720 C.2   267  GLN267      0.2260
    105  O         21.6960   27.3630   40.8290 O.2   267  GLN267     -0.2867
    106  CB        24.6500   26.1280   40.7660 C.3   267  GLN267      0.0367
    107  CG        25.7690   25.2800   41.3200 C.3   267  GLN267      0.0905
    108  CD        26.7420   24.8390   40.2650 C.2   267  GLN267      0.2608
    109  OE1       26.6860   25.2820   39.1150 O.2   267  GLN267     -0.2717
    110  NE2       27.6400   23.9650   40.6420 N.am  267  GLN267     -0.0878
    111  N         23.4510   31.3840   38.7880 N.3   269  LEU269     -0.1245
    112  CA        24.4100   32.2930   38.1590 C.3   269  LEU269      0.1561
    113  C         23.8770   33.7200   38.1510 C.2   269  LEU269      0.2260
    114  O         22.9000   34.0090   37.4600 O.2   269  LEU269     -0.2867
    115  CB        24.7200   31.8620   36.7280 C.3   269  LEU269      0.0270
    116  CG        25.6540   30.6700   36.6180 C.3   269  LEU269      0.0019
    117  CD1       25.8080   30.2370   35.1750 C.3   269  LEU269      0.0001
    118  CD2       26.9820   31.0650   37.2110 C.3   269  LEU269      0.0001
    119  N         29.2110   36.8150   34.7220 N.3   278  ARG278     -0.1231
    120  CA        28.4130   36.2820   35.8220 C.3   278  ARG278      0.1694
    121  C         29.2620   35.5990   36.8790 C.2   278  ARG278      0.2592
    122  O         30.4340   35.2990   36.6670 O.2   278  ARG278     -0.2718
    123  CB        27.3650   35.3020   35.3000 C.3   278  ARG278      0.0321
    124  CG        26.3260   35.9430   34.4200 C.3   278  ARG278      0.0489
    125  CD        25.1810   35.0060   34.1370 C.3   278  ARG278      0.2205
    126  NE        25.5940   33.8670   33.3220 N.pl3 278  ARG278     -0.0865
    127  CZ        24.7640   32.9090   32.9150 C.cat 278  ARG278      0.5346
    128  NH1       23.4770   32.9720   33.2420 N.pl3 278  ARG278      0.1354
    129  NH2       25.2140   31.9010   32.1700 N.pl3 278  ARG278      0.1354
    130  N         28.6470   35.3600   38.0270 N.am  279  VAL279     -0.1966
    131  CA        29.3290   34.7710   39.1690 C.3   279  VAL279      0.1727
    132  C         28.4220   33.6910   39.7840 C.2   279  VAL279      0.2616
    133  O         27.1850   33.7720   39.6880 O.2   279  VAL279     -0.2715
    134  CB        29.7080   35.8730   40.1970 C.3   279  VAL279      0.0290
    135  CG1       28.4840   36.6620   40.5960 C.3   279  VAL279      0.0023
    136  CG2       30.3970   35.2940   41.4070 C.3   279  VAL279      0.0023
    137  N         29.0330   32.6670   40.3770 N.am  280  LEU280     -0.1977
    138  CA        28.2760   31.5480   40.9060 C.3   280  LEU280      0.1596
    139  C         27.8870   31.7530   42.3690 C.2   280  LEU280      0.2287
    140  O         28.7300   32.0050   43.2350 O.2   280  LEU280     -0.2864
    141  CB        29.0700   30.2450   40.7420 C.3   280  LEU280      0.0297
    142  CG        28.4440   28.9380   41.2590 C.3   280  LEU280      0.0022
    143  CD1       27.1090   28.6440   40.6000 C.3   280  LEU280      0.0001
    144  CD2       29.3910   27.7650   41.0410 C.3   280  LEU280      0.0001
@<TRIPOS>BOND
     1     4     3    2
     2     3     2    1
     3     1     2    1
     4     2     5    1
     5     5     6    1
     6    85    84    2
     7    89    88   ar
     8    82    83    1
     9    84    83    1
    10    84    91   am
    11    83    86    1
    12    93    94    2
    13    93    92    1
    14    90    88   ar
    15    88    87    1
    16    91    92    1
    17    92    95    1
    18    86    87    1
    19     7     8    1
    20    18    17    2
    21    95    96    1
    22    17    16    1
    23    97    96   ar
    24    97    99   ar
    25    96    98   ar
    26    15    16    1
    27    15     9   am
    28    99   101   ar
    29     8     9    1
    30     8    11    1
    31    98   100   ar
    32    14    12   ar
    33     9    10    2
    34   101   100   ar
    35    12    13   ar
    36    12    11    1
    37    38    36    1
    38    67    66    1
    39    37    36    1
    40    66    63    1
    41    36    33    1
    42   129   127    1
    43    73    72    1
    44    40    39    1
    45    40    41    1
    46    39    34   am
    47   127   128    1
    48   127   126    2
    49    63    64    1
    50    63    62    1
    51    33    34    1
    52    33    32    1
    53    65    64    2
    54    34    35    2
    55    64    68   am
    56   126   125    1
    57    68    69    1
    58    74    72    1
    59    72    69    1
    60    69    70    1
    61    62    55   am
    62    41    42    2
    63    41    43   am
    64   125   124    1
    65   124   123    1
    66   119   120    1
    67    43    44    1
    68    70    71    2
    69    70    75   am
    70   117   116    1
    71    50    49    1
    72    50    51    1
    73    49    45   am
    74   123   120    1
    75    55    56    2
    76    55    54    1
    77    31    29    1
    78    61    60    1
    79    53    51   am
    80    53    54    1
    81    51    52    2
    82   120   121    1
    83    23    20    1
    84    75    76    1
    85    54    57    1
    86    60    59    1
    87    57    58    1
    88    44    45    1
    89    44    47    1
    90    45    46    2
    91    30    29    1
    92    29    28    1
    93   116   115    1
    94   116   118    1
    95   122   121    2
    96   115   112    1
    97   121   130   am
    98    58    59    1
    99    77    76    1
   100    77    78    2
   101    20    21    1
   102    20    19    1
   103    22    21    2
   104    47    48    1
   105    76    79    1
   106   114   113    2
   107    21    24   am
   108    24    25    1
   109    28    25    1
   110   130   131    1
   111    25    26    1
   112   113   112    1
   113   112   111    1
   114    79    80    1
   115    79    81    1
   116   109   108    2
   117   131   132    1
   118   131   134    1
   119    26    27    2
   120   133   132    2
   121   132   137   am
   122   134   135    1
   123   134   136    1
   124   108   110   am
   125   108   107    1
   126   137   138    1
   127   143   142    1
   128   141   138    1
   129   141   142    1
   130   106   107    1
   131   106   103    1
   132   105   104    2
   133   138   139    1
   134   144   142    1
   135   104   103    1
   136   103   102    1
   137   139   140    2
