@<TRIPOS>MOLECULE
tmp/5fl4B00.pdb
 142 138 0 0 0
SMALL
GASTEIGER

@<TRIPOS>ATOM
      1  N         20.7340  -28.4520   90.5650 N.3    83  LEU83      -0.1231
      2  CA        22.1780  -28.6040   90.7620 C.3    83  LEU83       0.1693
      3  C         22.6150  -28.2940   92.1730 C.2    83  LEU83       0.2591
      4  O         23.4370  -29.0300   92.7530 O.2    83  LEU83      -0.2718
      5  CB        22.9460  -27.6810   89.8320 C.3    83  LEU83       0.0284
      6  CG        22.6650  -27.7710   88.3480 C.3    83  LEU83       0.0019
      7  CD1       23.5000  -26.7170   87.6340 C.3    83  LEU83       0.0001
      8  CD2       22.9980  -29.1620   87.8410 C.3    83  LEU83       0.0001
      9  N         22.0800  -27.1960   92.7190 N.am   84  GLN84      -0.1979
     10  CA        22.4970  -26.6460   93.9940 C.3    84  GLN84       0.1601
     11  C         21.4560  -25.6490   94.5040 C.2    84  GLN84       0.2287
     12  O         20.5780  -25.2000   93.7430 O.2    84  GLN84      -0.2864
     13  CB        23.8600  -25.9630   93.8750 C.3    84  GLN84       0.0394
     14  CG        23.9240  -24.8970   92.7840 C.3    84  GLN84       0.0908
     15  CD        23.9570  -23.4640   93.2610 C.2    84  GLN84       0.2608
     16  OE1       23.5090  -23.1180   94.3610 O.2    84  GLN84      -0.2717
     17  NE2       24.4590  -22.5930   92.3940 N.am   84  GLN84      -0.0878
     18  N         21.3820  -22.1110   97.3710 N.3    86  HIS86      -0.1241
     19  CA        22.1610  -21.2360   98.2110 C.3    86  HIS86       0.1621
     20  C         21.2600  -20.0700   98.6440 C.2    86  HIS86       0.2264
     21  O         20.0790  -19.9990   98.2660 O.2    86  HIS86      -0.2867
     22  CB        23.3910  -20.7490   97.4520 C.3    86  HIS86       0.0745
     23  CG        23.0360  -19.9480   96.2440 C.ar   86  HIS86       0.0817
     24  ND1       22.8170  -20.5250   95.0120 N.ar   86  HIS86      -0.2268
     25  CD2       22.7710  -18.6290   96.0980 C.ar   86  HIS86       0.1154
     26  CE1       22.4410  -19.5980   94.1530 C.ar   86  HIS86       0.1986
     27  NE2       22.4050  -18.4430   94.7890 N.ar   86  HIS86      -0.2212
     28  N         20.7160  -15.8060  100.1100 N.3    88  HIS88      -0.1241
     29  CA        21.0850  -14.4000  100.1490 C.3    88  HIS88       0.1621
     30  C         20.4260  -13.7880  101.3620 C.2    88  HIS88       0.2264
     31  O         19.2500  -14.0000  101.5790 O.2    88  HIS88      -0.2867
     32  CB        20.6050  -13.6900   98.8930 C.3    88  HIS88       0.0745
     33  CG        21.2630  -14.1970   97.6530 C.ar   88  HIS88       0.0817
     34  ND1       22.4960  -13.7470   97.2460 N.ar   88  HIS88      -0.2268
     35  CD2       20.9090  -15.1620   96.7780 C.ar   88  HIS88       0.1154
     36  CE1       22.8590  -14.3750   96.1480 C.ar   88  HIS88       0.1986
     37  NE2       21.9240  -15.2470   95.8500 N.ar   88  HIS88      -0.2212
     38  N         17.6460  -19.6140   96.6100 N.3   111  HIS111     -0.1241
     39  CA        17.7100  -19.9140   95.2000 C.3   111  HIS111      0.1621
     40  C         18.0640  -21.3600   94.9860 C.2   111  HIS111      0.2264
     41  O         19.0590  -21.8230   95.5270 O.2   111  HIS111     -0.2867
     42  CB        18.7770  -19.0550   94.5480 C.3   111  HIS111      0.0745
     43  CG        18.4180  -17.6090   94.4980 C.ar  111  HIS111      0.0817
     44  ND1       19.3480  -16.6320   94.2400 N.ar  111  HIS111     -0.2268
     45  CD2       17.2450  -16.9680   94.7210 C.ar  111  HIS111      0.1154
     46  CE1       18.7640  -15.4500   94.2800 C.ar  111  HIS111      0.1986
     47  NE2       17.4920  -15.6280   94.5820 N.ar  111  HIS111     -0.2212
     48  N         18.9670  -23.6230   91.9530 N.3   113  VAL113     -0.1245
     49  CA        19.4510  -23.4520   90.5910 C.3   113  VAL113      0.1561
     50  C         19.3440  -24.7730   89.8040 C.2   113  VAL113      0.2260
     51  O         19.7770  -25.8500   90.2900 O.2   113  VAL113     -0.2867
     52  CB        20.9120  -22.9460   90.6030 C.3   113  VAL113      0.0252
     53  CG1       21.4140  -22.6700   89.1980 C.3   113  VAL113      0.0019
     54  CG2       21.0430  -21.6910   91.4620 C.3   113  VAL113      0.0019
     55  N         26.4500  -26.9490   82.4380 N.3   122  VAL122     -0.1231
     56  CA        26.1430  -25.5570   82.7790 C.3   122  VAL122      0.1692
     57  C         26.8110  -24.6060   81.7990 C.2   122  VAL122      0.2592
     58  O         26.1830  -23.6400   81.3480 O.2   122  VAL122     -0.2718
     59  CB        26.5600  -25.2110   84.2330 C.3   122  VAL122      0.0266
     60  CG1       26.5200  -23.7120   84.5020 C.3   122  VAL122      0.0020
     61  CG2       25.6690  -25.9290   85.2400 C.3   122  VAL122      0.0020
     62  N         28.0740  -24.8650   81.4230 N.am  123  ASP123     -0.1974
     63  CA        28.7470  -23.9210   80.5250 C.3   123  ASP123      0.1709
     64  C         28.1170  -23.7820   79.1350 C.2   123  ASP123      0.2293
     65  O         28.1830  -22.7110   78.5510 O.2   123  ASP123     -0.2864
     66  CB        30.2770  -24.1030   80.5030 C.3   123  ASP123      0.1436
     67  CG        30.7190  -25.4360   79.9920 C.2   123  ASP123      0.3671
     68  OD1       29.9070  -26.2160   79.4610 O.co2 123  ASP123     -0.2456
     69  OD2       31.9420  -25.7120   80.1220 O.co2 123  ASP123     -0.2456
     70  N         24.8490  -21.4550   79.8420 N.3   126  LEU126     -0.1245
     71  CA        25.0900  -20.0520   80.1860 C.3   126  LEU126      0.1561
     72  C         24.8600  -19.1750   78.9720 C.2   126  LEU126      0.2260
     73  O         25.4190  -19.4230   77.9050 O.2   126  LEU126     -0.2867
     74  CB        26.5130  -19.8200   80.7210 C.3   126  LEU126      0.0270
     75  CG        26.8140  -20.3430   82.1330 C.3   126  LEU126      0.0019
     76  CD1       28.3090  -20.4470   82.3880 C.3   126  LEU126      0.0001
     77  CD2       26.1750  -19.4850   83.2060 C.3   126  LEU126      0.0001
     78  N         19.3170  -22.1800   82.0900 N.3   132  LEU132     -0.1245
     79  CA        19.2540  -22.2560   83.5250 C.3   132  LEU132      0.1561
     80  C         17.9080  -21.7120   84.0060 C.2   132  LEU132      0.2260
     81  O         17.3720  -20.7500   83.4190 O.2   132  LEU132     -0.2867
     82  CB        20.3760  -21.4350   84.1410 C.3   132  LEU132      0.0270
     83  CG        21.7940  -21.9010   83.8040 C.3   132  LEU132      0.0019
     84  CD1       22.7540  -20.9720   84.5020 C.3   132  LEU132      0.0001
     85  CD2       22.0190  -23.3420   84.2320 C.3   132  LEU132      0.0001
     86  N         16.0610  -20.7440   87.8340 N.3   134  VAL134     -0.1245
     87  CA        16.2140  -20.6260   89.2790 C.3   134  VAL134      0.1561
     88  C         14.8320  -20.4980   89.9410 C.2   134  VAL134      0.2260
     89  O         14.0080  -19.7100   89.4980 O.2   134  VAL134     -0.2867
     90  CB        17.1030  -19.4440   89.6600 C.3   134  VAL134      0.0252
     91  CG1       17.3310  -19.4130   91.1630 C.3   134  VAL134      0.0019
     92  CG2       18.4370  -19.5100   88.9200 C.3   134  VAL134      0.0019
     93  N         21.9850  -14.3280   85.9280 N.3   191  LEU191     -0.1231
     94  CA        22.6030  -14.6480   87.1970 C.3   191  LEU191      0.1693
     95  C         22.7890  -13.3220   87.9420 C.2   191  LEU191      0.2593
     96  O         23.0980  -12.3020   87.3210 O.2   191  LEU191     -0.2718
     97  CB        23.9640  -15.3350   87.0010 C.3   191  LEU191      0.0284
     98  CG        23.9940  -16.6400   86.2000 C.3   191  LEU191      0.0019
     99  CD1       25.4400  -17.1010   86.0540 C.3   191  LEU191      0.0001
    100  CD2       23.1710  -17.7070   86.8890 C.3   191  LEU191      0.0001
    101  N         22.5890  -13.3360   89.2570 N.am  192  THR192     -0.1939
    102  CA        22.7320  -12.1160   90.0860 C.3   192  THR192      0.2028
    103  C         24.1500  -11.8980   90.5910 C.2   192  THR192      0.2643
    104  O         24.4050  -10.9720   91.3750 O.2   192  THR192     -0.2714
    105  CB        21.7760  -12.1250   91.3040 C.3   192  THR192      0.1808
    106  OG1       22.1100  -13.2140   92.1940 O.3   192  THR192     -0.2208
    107  CG2       20.3500  -12.2250   90.8590 C.3   192  THR192      0.0379
    108  N         25.0850  -12.7610   90.1830 N.am  193  THR193     -0.1937
    109  CA        26.4980  -12.5070   90.3800 C.3   193  THR193      0.2013
    110  C         27.2250  -12.6720   89.0560 C.2   193  THR193      0.2484
    111  O         26.6550  -13.2090   88.1060 O.2   193  THR193     -0.2729
    112  CB        27.1450  -13.4600   91.4030 C.3   193  THR193      0.1807
    113  OG1       27.3310  -14.7550   90.8250 O.3   193  THR193     -0.2208
    114  CG2       26.3160  -13.5530   92.6900 C.3   193  THR193      0.0379
    115  N         28.4840  -12.2030   88.9760 N.am  194  PRO194     -0.2715
    116  CA        29.2710  -12.5420   87.8070 C.3   194  PRO194      0.1521
    117  C         29.2500  -14.0530   87.6070 C.2   194  PRO194      0.2440
    118  O         29.2460  -14.7780   88.5900 O.2   194  PRO194     -0.2731
    119  CB        30.6750  -12.0390   88.1650 C.3   194  PRO194      0.0310
    120  CG        30.4190  -10.9070   89.0780 C.3   194  PRO194      0.0237
    121  CD        29.2460  -11.3540   89.9060 C.3   194  PRO194      0.0939
    122  N         29.2040  -14.5450   86.3730 N.am  195  PRO195     -0.2727
    123  CA        29.3670  -13.7500   85.1550 C.3   195  PRO195      0.1402
    124  C         28.1160  -13.0390   84.6140 C.2   195  PRO195      0.2269
    125  O         28.1540  -12.5230   83.4930 O.2   195  PRO195     -0.2865
    126  CB        29.8890  -14.7920   84.1610 C.3   195  PRO195      0.0296
    127  CG        29.1930  -16.0500   84.5780 C.3   195  PRO195      0.0237
    128  CD        29.0330  -15.9800   86.0710 C.3   195  PRO195      0.0939
    129  N         13.7030  -16.9880   85.8260 N.3   202  TRP202     -0.1241
    130  CA        13.4710  -16.7400   87.2340 C.3   202  TRP202      0.1605
    131  C         12.0040  -16.9750   87.5750 C.2   202  TRP202      0.2264
    132  O         11.1020  -16.4660   86.8840 O.2   202  TRP202     -0.2867
    133  CB        13.8510  -15.3110   87.5900 C.3   202  TRP202      0.0550
    134  CG        15.2870  -15.1530   87.7250 C.ar  202  TRP202      0.0003
    135  CD1       16.1670  -14.7350   86.7530 C.ar  202  TRP202      0.0946
    136  CD2       16.0690  -15.4410   88.8810 C.ar  202  TRP202      0.0152
    137  NE1       17.4310  -14.7330   87.2470 N.ar  202  TRP202     -0.2442
    138  CE2       17.4100  -15.1750   88.5470 C.ar  202  TRP202      0.0810
    139  CE3       15.7670  -15.9080   90.1790 C.ar  202  TRP202      0.0012
    140  CZ2       18.4560  -15.3420   89.4590 C.ar  202  TRP202      0.0191
    141  CZ3       16.8100  -16.0570   91.0940 C.ar  202  TRP202      0.0001
    142  CH2       18.1350  -15.7840   90.7260 C.ar  202  TRP202      0.0015
@<TRIPOS>BOND
     1    73    72    2
     2    65    64    2
     3    72    71    1
     4    64    63    1
     5    68    67   ar
     6    70    71    1
     7    67    69   ar
     8    67    66    1
     9    71    74    1
    10    66    63    1
    11    63    62    1
    12    74    75    1
    13    58    57    2
    14    62    57   am
    15    57    56    1
    16    78    79    1
    17    75    76    1
    18    75    77    1
    19    55    56    1
    20    56    59    1
    21    81    80    2
    22   125   124    2
    23    79    80    1
    24    79    82    1
    25    83    82    1
    26    83    85    1
    27    83    84    1
    28   126   127    1
    29   126   123    1
    30    59    60    1
    31    59    61    1
    32   127   128    1
    33   124   123    1
    34   123   122    1
    35   129   130    1
    36    93    94    1
    37    99    98    1
    38   128   122    1
    39    98   100    1
    40    98    97    1
    41   122   117   am
    42   135   137   ar
    43   135   134   ar
    44   132   131    2
    45    97    94    1
    46    94    95    1
    47   130   131    1
    48   130   133    1
    49   137   138   ar
    50    96    95    2
    51   133   134    1
    52   117   116    1
    53   117   118    2
    54     7     6    1
    55   134   136   ar
    56   116   119    1
    57   116   115    1
    58    86    87    1
    59     8     6    1
    60    95   101   am
    61   111   110    2
    62   119   120    1
    63     6     5    1
    64   138   136   ar
    65   138   140   ar
    66   136   139   ar
    67    92    90    1
    68   115   110   am
    69   115   121    1
    70   110   109    1
    71   120   121    1
    72    53    52    1
    73   101   102    1
    74    87    90    1
    75    87    88    1
    76   140   142   ar
    77    89    88    2
    78    90    91    1
    79    50    51    2
    80    50    49    1
    81     5     2    1
    82   102   103    1
    83   102   105    1
    84   139   141   ar
    85   108   109    1
    86   108   103   am
    87   109   112    1
    88     1     2    1
    89    49    52    1
    90    49    48    1
    91   103   104    2
    92    52    54    1
    93   142   141   ar
    94     2     3    1
    95   113   112    1
    96   107   105    1
    97   105   106    1
    98   112   114    1
    99     3     9   am
   100     3     4    2
   101    17    15   am
   102     9    10    1
   103    14    15    1
   104    14    13    1
   105    15    16    2
   106    12    11    2
   107    13    10    1
   108    10    11    1
   109    26    27   ar
   110    26    24   ar
   111    44    46   ar
   112    44    43   ar
   113    46    47   ar
   114    43    42    1
   115    43    45   ar
   116    42    39    1
   117    47    45   ar
   118    27    25   ar
   119    40    39    1
   120    40    41    2
   121    24    23   ar
   122    39    38    1
   123    37    36   ar
   124    37    35   ar
   125    25    23   ar
   126    36    34   ar
   127    23    22    1
   128    35    33   ar
   129    34    33   ar
   130    18    19    1
   131    22    19    1
   132    33    32    1
   133    19    20    1
   134    21    20    2
   135    32    29    1
   136    28    29    1
   137    29    30    1
   138    30    31    2
