@<TRIPOS>MOLECULE
tmp/5fl5C00.pdb
 142 138 0 0 0
SMALL
GASTEIGER

@<TRIPOS>ATOM
      1  N        -46.8510  -16.3800  -27.9270 N.3    83  LEU83      -0.1231
      2  CA       -48.3110  -16.2200  -27.7480 C.3    83  LEU83       0.1693
      3  C        -48.7870  -16.5280  -26.3350 C.2    83  LEU83       0.2591
      4  O        -49.6080  -15.8110  -25.7800 O.2    83  LEU83      -0.2718
      5  CB       -49.0700  -17.1380  -28.7060 C.3    83  LEU83       0.0284
      6  CG       -48.7080  -16.9770  -30.1740 C.3    83  LEU83       0.0019
      7  CD1      -49.3660  -18.0750  -30.9720 C.3    83  LEU83       0.0001
      8  CD2      -49.1000  -15.6120  -30.6810 C.3    83  LEU83       0.0001
      9  N        -48.2940  -17.6310  -25.7920 N.am   84  GLN84      -0.1979
     10  CA       -48.7450  -18.1430  -24.5130 C.3    84  GLN84       0.1601
     11  C        -47.7700  -19.1710  -24.0190 C.2    84  GLN84       0.2287
     12  O        -46.9880  -19.7100  -24.8050 O.2    84  GLN84      -0.2864
     13  CB       -50.1170  -18.8270  -24.6690 C.3    84  GLN84       0.0394
     14  CG       -50.1530  -19.8900  -25.7700 C.3    84  GLN84       0.0908
     15  CD       -50.2490  -21.3190  -25.2830 C.2    84  GLN84       0.2608
     16  OE1      -49.7840  -21.6800  -24.1960 O.2    84  GLN84      -0.2717
     17  NE2      -50.8550  -22.1650  -26.1180 N.am   84  GLN84      -0.0878
     18  N        -47.8490  -22.7120  -21.1800 N.3    86  HIS86      -0.1241
     19  CA       -48.6410  -23.6040  -20.3640 C.3    86  HIS86       0.1621
     20  C        -47.7840  -24.7730  -19.9480 C.2    86  HIS86       0.2264
     21  O        -46.6150  -24.8710  -20.3480 O.2    86  HIS86      -0.2867
     22  CB       -49.8500  -24.1050  -21.1660 C.3    86  HIS86       0.0745
     23  CG       -49.4550  -24.8640  -22.3800 C.ar   86  HIS86       0.0817
     24  ND1      -49.2280  -24.2350  -23.5760 N.ar   86  HIS86      -0.2268
     25  CD2      -49.1750  -26.1680  -22.5740 C.ar   86  HIS86       0.1154
     26  CE1      -48.8370  -25.1220  -24.4650 C.ar   86  HIS86       0.1986
     27  NE2      -48.8010  -26.3040  -23.8850 N.ar   86  HIS86      -0.2212
     28  N        -47.4980  -29.1380  -18.5770 N.3    88  HIS88      -0.1241
     29  CA       -47.9150  -30.5190  -18.4830 C.3    88  HIS88       0.1621
     30  C        -47.2650  -31.1480  -17.2630 C.2    88  HIS88       0.2264
     31  O        -46.0920  -30.9220  -16.9960 O.2    88  HIS88      -0.2867
     32  CB       -47.5010  -31.2930  -19.7320 C.3    88  HIS88       0.0745
     33  CG       -48.0460  -30.6990  -20.9810 C.ar   88  HIS88       0.0817
     34  ND1      -49.2960  -31.0230  -21.4690 N.ar   88  HIS88      -0.2268
     35  CD2      -47.5590  -29.7350  -21.7950 C.ar   88  HIS88       0.1154
     36  CE1      -49.5410  -30.3070  -22.5470 C.ar   88  HIS88       0.1986
     37  NE2      -48.5000  -29.5290  -22.7720 N.ar   88  HIS88      -0.2212
     38  N        -44.1370  -25.3390  -21.8630 N.3   111  HIS111     -0.1241
     39  CA       -44.1820  -25.0690  -23.2920 C.3   111  HIS111      0.1621
     40  C        -44.4720  -23.5990  -23.5000 C.2   111  HIS111      0.2264
     41  O        -45.4220  -23.0890  -22.9360 O.2   111  HIS111     -0.2867
     42  CB       -45.2690  -25.9050  -23.9480 C.3   111  HIS111      0.0745
     43  CG       -44.9410  -27.3550  -24.0280 C.ar  111  HIS111      0.0817
     44  ND1      -45.8900  -28.3220  -24.2770 N.ar  111  HIS111     -0.2268
     45  CD2      -43.7630  -28.0050  -23.9390 C.ar  111  HIS111      0.1154
     46  CE1      -45.3140  -29.5020  -24.3460 C.ar  111  HIS111      0.1986
     47  NE2      -44.0210  -29.3370  -24.1460 N.ar  111  HIS111     -0.2212
     48  N        -45.3560  -21.2380  -26.5690 N.3   113  VAL113     -0.1245
     49  CA       -45.8050  -21.3830  -27.9570 C.3   113  VAL113      0.1561
     50  C        -45.5920  -20.0660  -28.7160 C.2   113  VAL113      0.2260
     51  O        -45.9930  -18.9980  -28.2300 O.2   113  VAL113     -0.2867
     52  CB       -47.3120  -21.8160  -28.0080 C.3   113  VAL113      0.0252
     53  CG1      -47.7630  -22.1080  -29.4310 C.3   113  VAL113      0.0019
     54  CG2      -47.5400  -23.0440  -27.1340 C.3   113  VAL113      0.0019
     55  N        -52.3200  -17.0560  -35.9520 N.3   122  VAL122     -0.1231
     56  CA       -52.0270  -18.4430  -35.6100 C.3   122  VAL122      0.1692
     57  C        -52.6980  -19.4010  -36.5860 C.2   122  VAL122      0.2592
     58  O        -52.1040  -20.3830  -37.0020 O.2   122  VAL122     -0.2718
     59  CB       -52.5040  -18.8340  -34.1830 C.3   122  VAL122      0.0266
     60  CG1      -52.1250  -20.2770  -33.8630 C.3   122  VAL122      0.0020
     61  CG2      -51.8930  -17.9320  -33.1470 C.3   122  VAL122      0.0020
     62  N        -53.9390  -19.1160  -36.9590 N.am  123  ASP123     -0.1974
     63  CA       -54.6760  -20.0760  -37.7940 C.3   123  ASP123      0.1709
     64  C        -54.1110  -20.2400  -39.2160 C.2   123  ASP123      0.2293
     65  O        -54.1960  -21.3250  -39.7730 O.2   123  ASP123     -0.2864
     66  CB       -56.1960  -19.8790  -37.7350 C.3   123  ASP123      0.1436
     67  CG       -56.6530  -18.5020  -38.1090 C.2   123  ASP123      0.3671
     68  OD1      -55.9940  -17.7730  -38.8370 O.co2 123  ASP123     -0.2456
     69  OD2      -57.7440  -18.1440  -37.6910 O.co2 123  ASP123     -0.2456
     70  N        -51.0390  -22.8690  -38.6260 N.3   126  LEU126     -0.1245
     71  CA       -51.3540  -24.2850  -38.3480 C.3   126  LEU126      0.1561
     72  C        -51.1420  -25.1460  -39.5660 C.2   126  LEU126      0.2260
     73  O        -51.7000  -24.8340  -40.5980 O.2   126  LEU126     -0.2867
     74  CB       -52.8170  -24.4380  -37.9300 C.3   126  LEU126      0.0270
     75  CG       -53.0980  -24.0620  -36.4810 C.3   126  LEU126      0.0019
     76  CD1      -54.5870  -23.8260  -36.2350 C.3   126  LEU126      0.0001
     77  CD2      -52.5520  -25.1270  -35.5510 C.3   126  LEU126      0.0001
     78  N        -45.5370  -22.6570  -36.4990 N.3   132  LEU132     -0.1245
     79  CA       -45.4740  -22.5760  -35.0620 C.3   132  LEU132      0.1561
     80  C        -44.1820  -23.1550  -34.5670 C.2   132  LEU132      0.2260
     81  O        -43.6570  -24.0920  -35.1540 O.2   132  LEU132     -0.2867
     82  CB       -46.6260  -23.3630  -34.4330 C.3   132  LEU132      0.0270
     83  CG       -48.0100  -22.8460  -34.8220 C.3   132  LEU132      0.0019
     84  CD1      -49.0600  -23.7160  -34.1420 C.3   132  LEU132      0.0001
     85  CD2      -48.1760  -21.3880  -34.4280 C.3   132  LEU132      0.0001
     86  N        -42.4800  -24.2030  -30.6340 N.3   134  VAL134     -0.1245
     87  CA       -42.6000  -24.3260  -29.1930 C.3   134  VAL134      0.1561
     88  C        -41.2090  -24.5100  -28.5720 C.2   134  VAL134      0.2260
     89  O        -40.3990  -25.3070  -29.0780 O.2   134  VAL134     -0.2867
     90  CB       -43.5250  -25.4970  -28.7780 C.3   134  VAL134      0.0252
     91  CG1      -43.8230  -25.4290  -27.2880 C.3   134  VAL134      0.0019
     92  CG2      -44.8330  -25.4670  -29.5560 C.3   134  VAL134      0.0019
     93  N        -48.5960  -30.2900  -32.6830 N.3   191  LEU191     -0.1231
     94  CA       -49.2390  -29.9870  -31.4170 C.3   191  LEU191      0.1693
     95  C        -49.4480  -31.3430  -30.6850 C.2   191  LEU191      0.2593
     96  O        -49.6170  -32.3930  -31.3230 O.2   191  LEU191     -0.2718
     97  CB       -50.5540  -29.2410  -31.6340 C.3   191  LEU191      0.0284
     98  CG       -50.4890  -27.9110  -32.4160 C.3   191  LEU191      0.0019
     99  CD1      -51.8770  -27.2950  -32.5720 C.3   191  LEU191      0.0001
    100  CD2      -49.5700  -26.9080  -31.7200 C.3   191  LEU191      0.0001
    101  N        -49.3390  -31.3260  -29.3600 N.am  192  THR192     -0.1939
    102  CA       -49.4970  -32.5360  -28.5700 C.3   192  THR192      0.2028
    103  C        -50.9270  -32.7010  -28.0490 C.2   192  THR192      0.2643
    104  O        -51.1640  -33.6090  -27.2830 O.2   192  THR192     -0.2714
    105  CB       -48.5180  -32.5730  -27.3570 C.3   192  THR192      0.1808
    106  OG1      -48.8730  -31.5580  -26.4220 O.3   192  THR192     -0.2208
    107  CG2      -47.0780  -32.3850  -27.8170 C.3   192  THR192      0.0379
    108  N        -51.8390  -31.8010  -28.4090 N.am  193  THR193     -0.1937
    109  CA       -53.2690  -31.9670  -28.1860 C.3   193  THR193      0.2013
    110  C        -53.9660  -31.7540  -29.5230 C.2   193  THR193      0.2484
    111  O        -53.3560  -31.2250  -30.4530 O.2   193  THR193     -0.2729
    112  CB       -53.8770  -30.9300  -27.2150 C.3   193  THR193      0.1807
    113  OG1      -53.9710  -29.6640  -27.8570 O.3   193  THR193     -0.2208
    114  CG2      -53.0860  -30.8010  -25.9330 C.3   193  THR193      0.0379
    115  N        -55.2580  -32.1410  -29.6190 N.am  194  PRO194     -0.2715
    116  CA       -56.0250  -31.7720  -30.8070 C.3   194  PRO194      0.1521
    117  C        -56.0050  -30.2670  -30.9580 C.2   194  PRO194      0.2440
    118  O        -56.0390  -29.5720  -29.9450 O.2   194  PRO194     -0.2731
    119  CB       -57.4180  -32.3010  -30.4920 C.3   194  PRO194      0.0310
    120  CG       -57.1330  -33.5290  -29.7040 C.3   194  PRO194      0.0237
    121  CD       -56.0140  -33.0900  -28.7810 C.3   194  PRO194      0.0939
    122  N        -55.8960  -29.7510  -32.1820 N.am  195  PRO195     -0.2727
    123  CA       -56.0650  -30.5110  -33.4330 C.3   195  PRO195      0.1402
    124  C        -54.8190  -31.2280  -33.9940 C.2   195  PRO195      0.2269
    125  O        -54.8460  -31.6470  -35.1560 O.2   195  PRO195     -0.2865
    126  CB       -56.5290  -29.4170  -34.3990 C.3   195  PRO195      0.0296
    127  CG       -55.7740  -28.2080  -33.9430 C.3   195  PRO195      0.0237
    128  CD       -55.7170  -28.3140  -32.4400 C.3   195  PRO195      0.0939
    129  N        -40.1860  -28.0200  -32.7260 N.3   202  TRP202     -0.1241
    130  CA       -39.9550  -28.2620  -31.2950 C.3   202  TRP202      0.1605
    131  C        -38.4920  -28.0650  -30.9720 C.2   202  TRP202      0.2264
    132  O        -37.6270  -28.6590  -31.6110 O.2   202  TRP202     -0.2867
    133  CB       -40.3900  -29.6770  -30.8810 C.3   202  TRP202      0.0550
    134  CG       -41.8400  -29.7800  -30.7900 C.ar  202  TRP202      0.0003
    135  CD1      -42.6970  -30.1470  -31.7810 C.ar  202  TRP202      0.0946
    136  CD2      -42.6490  -29.4760  -29.6440 C.ar  202  TRP202      0.0152
    137  NE1      -43.9970  -30.0800  -31.3270 N.ar  202  TRP202     -0.2442
    138  CE2      -43.9980  -29.6750  -30.0220 C.ar  202  TRP202      0.0810
    139  CE3      -42.3620  -29.0640  -28.3370 C.ar  202  TRP202      0.0012
    140  CZ2      -45.0490  -29.4790  -29.1570 C.ar  202  TRP202      0.0191
    141  CZ3      -43.4100  -28.8510  -27.4650 C.ar  202  TRP202      0.0001
    142  CH2      -44.7540  -29.0750  -27.8760 C.ar  202  TRP202      0.0015
@<TRIPOS>BOND
     1    73    72    2
     2    65    64    2
     3    72    71    1
     4    64    63    1
     5    68    67   ar
     6    70    71    1
     7    71    74    1
     8    67    66    1
     9    67    69   ar
    10    74    75    1
    11    63    66    1
    12    63    62    1
    13    58    57    2
    14    62    57   am
    15    57    56    1
    16    78    79    1
    17    75    76    1
    18    75    77    1
    19    55    56    1
    20    56    59    1
    21   125   124    2
    22    81    80    2
    23    79    80    1
    24    79    82    1
    25    83    82    1
    26    83    85    1
    27    83    84    1
    28   126   127    1
    29   126   123    1
    30    59    60    1
    31    59    61    1
    32   124   123    1
    33   127   128    1
    34   123   122    1
    35   129   130    1
    36    93    94    1
    37    99    98    1
    38   128   122    1
    39    98   100    1
    40    98    97    1
    41   122   117   am
    42   135   137   ar
    43   135   134   ar
    44    97    94    1
    45   132   131    2
    46    94    95    1
    47   137   138   ar
    48    96    95    2
    49   130   131    1
    50   130   133    1
    51     7     6    1
    52   117   116    1
    53   117   118    2
    54   133   134    1
    55   116   119    1
    56   116   115    1
    57   134   136   ar
    58    95   101   am
    59     8     6    1
    60    86    87    1
    61   119   120    1
    62   111   110    2
    63     6     5    1
    64   138   136   ar
    65   138   140   ar
    66   120   121    1
    67   136   139   ar
    68   115   110   am
    69   115   121    1
    70    92    90    1
    71   110   109    1
    72    53    52    1
    73   101   102    1
    74    87    90    1
    75    87    88    1
    76   140   142   ar
    77    89    88    2
    78    90    91    1
    79    50    51    2
    80    50    49    1
    81     5     2    1
    82   102   103    1
    83   102   105    1
    84   108   109    1
    85   108   103   am
    86   139   141   ar
    87   109   112    1
    88   103   104    2
    89    52    49    1
    90    52    54    1
    91    49    48    1
    92     1     2    1
    93   142   141   ar
    94   113   112    1
    95   107   105    1
    96     2     3    1
    97   105   106    1
    98   112   114    1
    99     3     9   am
   100     3     4    2
   101    17    15   am
   102     9    10    1
   103    14    15    1
   104    14    13    1
   105    15    16    2
   106    12    11    2
   107    13    10    1
   108    10    11    1
   109    26    27   ar
   110    26    24   ar
   111    46    44   ar
   112    46    47   ar
   113    44    43   ar
   114    47    45   ar
   115    43    42    1
   116    43    45   ar
   117    42    39    1
   118    27    25   ar
   119    24    23   ar
   120    40    39    1
   121    40    41    2
   122    39    38    1
   123    37    36   ar
   124    37    35   ar
   125    25    23   ar
   126    36    34   ar
   127    23    22    1
   128    35    33   ar
   129    34    33   ar
   130    18    19    1
   131    22    19    1
   132    33    32    1
   133    19    20    1
   134    21    20    2
   135    32    29    1
   136    28    29    1
   137    29    30    1
   138    30    31    2
