@<TRIPOS>MOLECULE
tmp/5fl6C00.pdb
 142 138 0 0 0
SMALL
GASTEIGER

@<TRIPOS>ATOM
      1  N        -47.1560  -16.2100  -27.9950 N.3    83  LEU83      -0.1231
      2  CA       -48.6000  -16.0180  -27.7920 C.3    83  LEU83       0.1693
      3  C        -49.0610  -16.3100  -26.3830 C.2    83  LEU83       0.2591
      4  O        -49.8680  -15.5780  -25.8170 O.2    83  LEU83      -0.2718
      5  CB       -49.3750  -16.9430  -28.7320 C.3    83  LEU83       0.0284
      6  CG       -49.0730  -16.7100  -30.1970 C.3    83  LEU83       0.0019
      7  CD1      -49.7710  -17.7830  -30.9820 C.3    83  LEU83       0.0001
      8  CD2      -49.5130  -15.3350  -30.6630 C.3    83  LEU83       0.0001
      9  N        -48.5540  -17.4000  -25.8260 N.am   84  GLN84      -0.1979
     10  CA       -49.0340  -17.9070  -24.5470 C.3    84  GLN84       0.1601
     11  C        -48.0790  -18.9580  -24.0320 C.2    84  GLN84       0.2287
     12  O        -47.2920  -19.5080  -24.7900 O.2    84  GLN84      -0.2864
     13  CB       -50.4340  -18.5350  -24.7140 C.3    84  GLN84       0.0394
     14  CG       -50.5370  -19.6040  -25.8010 C.3    84  GLN84       0.0908
     15  CD       -50.5880  -21.0490  -25.2940 C.2    84  GLN84       0.2608
     16  OE1      -50.1750  -21.3670  -24.1760 O.2    84  GLN84      -0.2717
     17  NE2      -51.1030  -21.9410  -26.1390 N.am   84  GLN84      -0.0878
     18  N        -48.1820  -22.4600  -21.1110 N.3    86  HIS86      -0.1241
     19  CA       -49.0010  -23.3180  -20.2610 C.3    86  HIS86       0.1621
     20  C        -48.1450  -24.4920  -19.8290 C.2    86  HIS86       0.2264
     21  O        -47.0090  -24.6690  -20.3080 O.2    86  HIS86      -0.2867
     22  CB       -50.2440  -23.7880  -21.0370 C.3    86  HIS86       0.0745
     23  CG       -49.9030  -24.5540  -22.2600 C.ar   86  HIS86       0.0817
     24  ND1      -49.7420  -23.9500  -23.4810 N.ar   86  HIS86      -0.2268
     25  CD2      -49.5900  -25.8570  -22.4370 C.ar   86  HIS86       0.1154
     26  CE1      -49.3620  -24.8500  -24.3660 C.ar   86  HIS86       0.1986
     27  NE2      -49.2870  -26.0210  -23.7610 N.ar   86  HIS86      -0.2212
     28  N        -47.8320  -28.7820  -18.3730 N.3    88  HIS88      -0.1241
     29  CA       -48.2590  -30.1620  -18.3190 C.3    88  HIS88       0.1621
     30  C        -47.6680  -30.8380  -17.0940 C.2    88  HIS88       0.2264
     31  O        -46.4890  -30.6730  -16.7990 O.2    88  HIS88      -0.2867
     32  CB       -47.8150  -30.8800  -19.5670 C.3    88  HIS88       0.0745
     33  CG       -48.4230  -30.3160  -20.8040 C.ar   88  HIS88       0.0817
     34  ND1      -49.6690  -30.6960  -21.2470 N.ar   88  HIS88      -0.2268
     35  CD2      -47.9820  -29.3780  -21.6670 C.ar   88  HIS88       0.1154
     36  CE1      -49.9620  -30.0320  -22.3440 C.ar   88  HIS88       0.1986
     37  NE2      -48.9550  -29.2270  -22.6170 N.ar   88  HIS88      -0.2212
     38  N        -44.5370  -25.1070  -21.7910 N.3   111  HIS111     -0.1241
     39  CA       -44.6090  -24.8520  -23.2240 C.3   111  HIS111      0.1621
     40  C        -44.8670  -23.3950  -23.4570 C.2   111  HIS111      0.2264
     41  O        -45.7980  -22.8410  -22.8910 O.2   111  HIS111     -0.2867
     42  CB       -45.7230  -25.6780  -23.8640 C.3   111  HIS111      0.0745
     43  CG       -45.4290  -27.1390  -23.9270 C.ar  111  HIS111      0.0817
     44  ND1      -46.4030  -28.0800  -24.1780 N.ar  111  HIS111     -0.2268
     45  CD2      -44.2670  -27.8270  -23.7780 C.ar  111  HIS111      0.1154
     46  CE1      -45.8570  -29.2830  -24.1850 C.ar  111  HIS111      0.1986
     47  NE2      -44.5620  -29.1570  -23.9500 N.ar  111  HIS111     -0.2212
     48  N        -45.6420  -21.0060  -26.5620 N.3   113  VAL113     -0.1245
     49  CA       -46.1420  -21.2010  -27.9210 C.3   113  VAL113      0.1561
     50  C        -45.9810  -19.8910  -28.6930 C.2   113  VAL113      0.2260
     51  O        -46.3730  -18.8280  -28.2020 O.2   113  VAL113     -0.2867
     52  CB       -47.6310  -21.6540  -27.9010 C.3   113  VAL113      0.0252
     53  CG1      -48.1640  -21.8360  -29.3140 C.3   113  VAL113      0.0019
     54  CG2      -47.8150  -22.9450  -27.0940 C.3   113  VAL113      0.0019
     55  N        -52.7820  -17.1500  -35.9720 N.3   122  VAL122     -0.1231
     56  CA       -52.5030  -18.5400  -35.6170 C.3   122  VAL122      0.1692
     57  C        -53.1920  -19.5180  -36.5820 C.2   122  VAL122      0.2592
     58  O        -52.5890  -20.5260  -36.9650 O.2   122  VAL122     -0.2718
     59  CB       -52.9630  -18.8430  -34.1800 C.3   122  VAL122      0.0266
     60  CG1      -52.8590  -20.3280  -33.8510 C.3   122  VAL122      0.0020
     61  CG2      -52.1020  -18.0890  -33.2030 C.3   122  VAL122      0.0020
     62  N        -54.4470  -19.2300  -36.9690 N.am  123  ASP123     -0.1974
     63  CA       -55.1890  -20.1900  -37.8150 C.3   123  ASP123      0.1709
     64  C        -54.6040  -20.4010  -39.2160 C.2   123  ASP123      0.2293
     65  O        -54.6600  -21.5050  -39.7320 O.2   123  ASP123     -0.2864
     66  CB       -56.7040  -19.9440  -37.8390 C.3   123  ASP123      0.1436
     67  CG       -57.1010  -18.5860  -38.3340 C.2   123  ASP123      0.3671
     68  OD1      -56.2850  -17.8120  -38.8540 O.co2 123  ASP123     -0.2456
     69  OD2      -58.2820  -18.2760  -38.1680 O.co2 123  ASP123     -0.2456
     70  N        -51.5360  -22.9330  -38.6830 N.3   126  LEU126     -0.1245
     71  CA       -51.8520  -24.3250  -38.3330 C.3   126  LEU126      0.1561
     72  C        -51.6950  -25.1830  -39.5460 C.2   126  LEU126      0.2260
     73  O        -52.2430  -24.8660  -40.5990 O.2   126  LEU126     -0.2867
     74  CB       -53.2840  -24.4750  -37.8000 C.3   126  LEU126      0.0270
     75  CG       -53.4640  -23.9390  -36.3720 C.3   126  LEU126      0.0019
     76  CD1      -54.9130  -23.6390  -36.0200 C.3   126  LEU126      0.0001
     77  CD2      -52.8720  -24.8960  -35.3610 C.3   126  LEU126      0.0001
     78  N        -45.9780  -22.5690  -36.4250 N.3   132  LEU132     -0.1245
     79  CA       -45.8910  -22.4760  -34.9750 C.3   132  LEU132      0.1561
     80  C        -44.5800  -23.0920  -34.5110 C.2   132  LEU132      0.2260
     81  O        -44.0580  -24.0370  -35.1290 O.2   132  LEU132     -0.2867
     82  CB       -47.0560  -23.2130  -34.2950 C.3   132  LEU132      0.0270
     83  CG       -48.4570  -22.7770  -34.6840 C.3   132  LEU132      0.0019
     84  CD1      -49.5030  -23.5830  -33.8990 C.3   132  LEU132      0.0001
     85  CD2      -48.6420  -21.2750  -34.5000 C.3   132  LEU132      0.0001
     86  N        -42.7800  -24.1420  -30.6040 N.3   134  VAL134     -0.1245
     87  CA       -42.9840  -24.2600  -29.1670 C.3   134  VAL134      0.1561
     88  C        -41.6230  -24.4610  -28.5290 C.2   134  VAL134      0.2260
     89  O        -40.8260  -25.2930  -28.9880 O.2   134  VAL134     -0.2867
     90  CB       -43.9650  -25.4020  -28.7850 C.3   134  VAL134      0.0252
     91  CG1      -44.2440  -25.3910  -27.2810 C.3   134  VAL134      0.0019
     92  CG2      -45.2700  -25.2570  -29.5590 C.3   134  VAL134      0.0019
     93  N        -49.1810  -30.1610  -32.5410 N.3   191  LEU191     -0.1231
     94  CA       -49.8590  -29.8520  -31.2960 C.3   191  LEU191      0.1693
     95  C        -50.0940  -31.1960  -30.5500 C.2   191  LEU191      0.2593
     96  O        -50.3190  -32.2630  -31.1930 O.2   191  LEU191     -0.2718
     97  CB       -51.1910  -29.1390  -31.5700 C.3   191  LEU191      0.0284
     98  CG       -51.1950  -27.8160  -32.3610 C.3   191  LEU191      0.0019
     99  CD1      -52.6030  -27.2410  -32.4210 C.3   191  LEU191      0.0001
    100  CD2      -50.2450  -26.7950  -31.7640 C.3   191  LEU191      0.0001
    101  N        -49.9810  -31.1530  -29.2190 N.am  192  THR192     -0.1939
    102  CA       -50.0870  -32.3550  -28.3870 C.3   192  THR192      0.2028
    103  C        -51.4910  -32.5390  -27.8310 C.2   192  THR192      0.2643
    104  O        -51.7080  -33.4570  -27.0450 O.2   192  THR192     -0.2714
    105  CB       -49.0490  -32.3930  -27.2190 C.3   192  THR192      0.1808
    106  OG1      -49.3440  -31.3740  -26.2720 O.3   192  THR192     -0.2208
    107  CG2      -47.6340  -32.2270  -27.7240 C.3   192  THR192      0.0379
    108  N        -52.4150  -31.6460  -28.1970 N.am  193  THR193     -0.1937
    109  CA       -53.8460  -31.8380  -27.9990 C.3   193  THR193      0.2013
    110  C        -54.5330  -31.6920  -29.3550 C.2   193  THR193      0.2484
    111  O        -53.9080  -31.2330  -30.3340 O.2   193  THR193     -0.2729
    112  CB       -54.4520  -30.7860  -27.0440 C.3   193  THR193      0.1807
    113  OG1      -54.4260  -29.4910  -27.6580 O.3   193  THR193     -0.2208
    114  CG2      -53.6980  -30.7490  -25.7000 C.3   193  THR193      0.0379
    115  N        -55.8180  -32.0750  -29.4370 N.am  194  PRO194     -0.2715
    116  CA       -56.5700  -31.7220  -30.6370 C.3   194  PRO194      0.1521
    117  C        -56.5600  -30.2000  -30.8310 C.2   194  PRO194      0.2440
    118  O        -56.5750  -29.4740  -29.8380 O.2   194  PRO194     -0.2731
    119  CB       -57.9800  -32.2510  -30.3350 C.3   194  PRO194      0.0310
    120  CG       -57.7310  -33.4200  -29.4450 C.3   194  PRO194      0.0237
    121  CD       -56.5990  -32.9560  -28.5540 C.3   194  PRO194      0.0939
    122  N        -56.4960  -29.7010  -32.0640 N.am  195  PRO195     -0.2727
    123  CA       -56.6570  -30.4870  -33.2950 C.3   195  PRO195      0.1402
    124  C        -55.4030  -31.2000  -33.8290 C.2   195  PRO195      0.2269
    125  O        -55.4350  -31.6860  -34.9680 O.2   195  PRO195     -0.2865
    126  CB       -57.1530  -29.4270  -34.2900 C.3   195  PRO195      0.0296
    127  CG       -56.4740  -28.1810  -33.8390 C.3   195  PRO195      0.0237
    128  CD       -56.5220  -28.2560  -32.3340 C.3   195  PRO195      0.0939
    129  N        -40.7100  -28.0440  -32.6940 N.3   202  TRP202     -0.1241
    130  CA       -40.5060  -28.2580  -31.2460 C.3   202  TRP202      0.1605
    131  C        -39.0370  -28.1000  -30.8930 C.2   202  TRP202      0.2264
    132  O        -38.1740  -28.7570  -31.4820 O.2   202  TRP202     -0.2867
    133  CB       -40.9580  -29.6660  -30.8320 C.3   202  TRP202      0.0550
    134  CG       -42.3840  -29.7430  -30.6970 C.ar  202  TRP202      0.0003
    135  CD1      -43.2870  -30.1080  -31.6610 C.ar  202  TRP202      0.0946
    136  CD2      -43.1360  -29.4360  -29.5370 C.ar  202  TRP202      0.0152
    137  NE1      -44.5580  -30.0390  -31.1600 N.ar  202  TRP202     -0.2442
    138  CE2      -44.5010  -29.6360  -29.8580 C.ar  202  TRP202      0.0810
    139  CE3      -42.8020  -29.0030  -28.2480 C.ar  202  TRP202      0.0012
    140  CZ2      -45.5120  -29.4040  -28.9530 C.ar  202  TRP202      0.0191
    141  CZ3      -43.8100  -28.7910  -27.3470 C.ar  202  TRP202      0.0001
    142  CH2      -45.1510  -28.9910  -27.6940 C.ar  202  TRP202      0.0015
@<TRIPOS>BOND
     1    73    72    2
     2    65    64    2
     3    72    71    1
     4    64    63    1
     5    68    67   ar
     6    70    71    1
     7    67    69   ar
     8    67    66    1
     9    71    74    1
    10    66    63    1
    11    63    62    1
    12    74    75    1
    13    62    57   am
    14    58    57    2
    15    57    56    1
    16    78    79    1
    17    75    76    1
    18    75    77    1
    19    55    56    1
    20    56    59    1
    21    81    80    2
    22    79    80    1
    23    79    82    1
    24   125   124    2
    25    83    85    1
    26    83    82    1
    27    83    84    1
    28   126   127    1
    29   126   123    1
    30    59    60    1
    31    59    61    1
    32   127   128    1
    33   124   123    1
    34   123   122    1
    35   129   130    1
    36    93    94    1
    37    99    98    1
    38    98   100    1
    39    98    97    1
    40   128   122    1
    41   122   117   am
    42   135   137   ar
    43   135   134   ar
    44    97    94    1
    45   132   131    2
    46    94    95    1
    47   130   131    1
    48   130   133    1
    49    96    95    2
    50   137   138   ar
    51     7     6    1
    52   133   134    1
    53   117   116    1
    54   117   118    2
    55   134   136   ar
    56     8     6    1
    57   116   119    1
    58   116   115    1
    59    86    87    1
    60    95   101   am
    61   119   120    1
    62   111   110    2
    63     6     5    1
    64   138   136   ar
    65   138   140   ar
    66    92    90    1
    67   136   139   ar
    68   120   121    1
    69   115   110   am
    70   115   121    1
    71   110   109    1
    72    53    52    1
    73   101   102    1
    74    87    90    1
    75    87    88    1
    76    89    88    2
    77   140   142   ar
    78    90    91    1
    79     5     2    1
    80    50    51    2
    81    50    49    1
    82   102   103    1
    83   102   105    1
    84   139   141   ar
    85   108   109    1
    86   108   103   am
    87   109   112    1
    88     1     2    1
    89    49    52    1
    90    49    48    1
    91    52    54    1
    92   103   104    2
    93     2     3    1
    94   107   105    1
    95   142   141   ar
    96   113   112    1
    97   105   106    1
    98   112   114    1
    99     3     9   am
   100     3     4    2
   101    17    15   am
   102     9    10    1
   103    14    15    1
   104    14    13    1
   105    15    16    2
   106    12    11    2
   107    13    10    1
   108    10    11    1
   109    26    27   ar
   110    26    24   ar
   111    46    44   ar
   112    46    47   ar
   113    44    43   ar
   114    47    45   ar
   115    43    42    1
   116    43    45   ar
   117    42    39    1
   118    27    25   ar
   119    24    23   ar
   120    40    39    1
   121    40    41    2
   122    39    38    1
   123    37    36   ar
   124    37    35   ar
   125    25    23   ar
   126    36    34   ar
   127    23    22    1
   128    35    33   ar
   129    34    33   ar
   130    18    19    1
   131    22    19    1
   132    33    32    1
   133    21    20    2
   134    19    20    1
   135    32    29    1
   136    28    29    1
   137    29    30    1
   138    30    31    2
