@<TRIPOS>MOLECULE
tmp/5flfD02.pdb
 98 97 0 0 0
SMALL
GASTEIGER

@<TRIPOS>ATOM
      1  N        -23.9470  -75.6820  -40.4940 N.3     5  PRO5       -0.2102
      2  CA       -22.6470  -76.2130  -40.9260 C.3     5  PRO5        0.1504
      3  C        -22.3940  -76.0290  -42.4200 C.2     5  PRO5        0.2576
      4  O        -21.2420  -76.0040  -42.8530 O.2     5  PRO5       -0.2718
      5  CB       -22.7410  -77.7020  -40.5690 C.3     5  PRO5        0.0282
      6  CG       -24.2050  -77.9920  -40.5360 C.3     5  PRO5        0.0208
      7  CD       -24.8360  -76.7450  -39.9950 C.3     5  PRO5        0.0893
      8  N        -23.4670  -75.8940  -43.1920 N.am    6  ARG6       -0.1966
      9  CA       -23.3650  -75.6930  -44.6320 C.3     6  ARG6        0.1729
     10  C        -22.7530  -74.3360  -44.9760 C.2     6  ARG6        0.2616
     11  O        -22.2710  -74.1270  -46.0900 O.2     6  ARG6       -0.2715
     12  CB       -24.7460  -75.8270  -45.2770 C.3     6  ARG6        0.0348
     13  CG       -25.3610  -77.2090  -45.1250 C.3     6  ARG6        0.0492
     14  CD       -26.8810  -77.1580  -45.0630 C.3     6  ARG6        0.2205
     15  NE       -27.4690  -76.4340  -46.1870 N.pl3   6  ARG6       -0.0865
     16  CZ       -28.1690  -75.3100  -46.0650 C.cat   6  ARG6        0.5346
     17  NH1      -28.3730  -74.7800  -44.8660 N.pl3   6  ARG6        0.1354
     18  NH2      -28.6700  -74.7180  -47.1410 N.pl3   6  ARG6        0.1354
     19  N        -22.7680  -73.4200  -44.0120 N.am    7  TRP7       -0.1960
     20  CA       -22.2820  -72.0650  -44.2370 C.3     7  TRP7        0.1771
     21  C        -21.1690  -71.6750  -43.2730 C.2     7  TRP7        0.2620
     22  O        -20.4400  -70.7120  -43.5140 O.2     7  TRP7       -0.2715
     23  CB       -23.4340  -71.0640  -44.1190 C.3     7  TRP7        0.0590
     24  CG       -24.4030  -71.1330  -45.2530 C.ar    7  TRP7        0.0006
     25  CD1      -25.6340  -71.7230  -45.2480 C.ar    7  TRP7        0.0946
     26  CD2      -24.2190  -70.5990  -46.5670 C.ar    7  TRP7        0.0152
     27  NE1      -26.2310  -71.5820  -46.4770 N.ar    7  TRP7       -0.2442
     28  CE2      -25.3810  -70.8970  -47.3060 C.ar    7  TRP7        0.0810
     29  CE3      -23.1830  -69.8950  -47.1920 C.ar    7  TRP7        0.0012
     30  CZ2      -25.5380  -70.5160  -48.6380 C.ar    7  TRP7        0.0191
     31  CZ3      -23.3400  -69.5180  -48.5130 C.ar    7  TRP7        0.0001
     32  CH2      -24.5080  -69.8290  -49.2220 C.ar    7  TRP7        0.0015
     33  N        -21.0380  -72.4240  -42.1840 N.am    8  GLU8       -0.1963
     34  CA       -20.0920  -72.0720  -41.1320 C.3     8  GLU8        0.1733
     35  C        -18.6400  -72.2000  -41.5820 C.2     8  GLU8        0.2616
     36  O        -18.1990  -73.2650  -42.0130 O.2     8  GLU8       -0.2715
     37  CB       -20.3240  -72.9400  -39.8940 C.3     8  GLU8        0.0429
     38  CG       -19.6220  -72.4320  -38.6460 C.3     8  GLU8        0.1163
     39  CD       -20.2390  -71.1540  -38.1090 C.2     8  GLU8        0.3649
     40  OE1      -21.4230  -70.8900  -38.4110 O.co2   8  GLU8       -0.2457
     41  OE2      -19.5430  -70.4150  -37.3810 O.co2   8  GLU8       -0.2457
     42  N        -17.9060  -71.0980  -41.4770 N.am    9  LEU9       -0.1964
     43  CA       -16.4750  -71.0920  -41.7410 C.3     9  LEU9        0.1713
     44  C        -15.7240  -70.9290  -40.4250 C.2     9  LEU9        0.2458
     45  O        -16.0800  -70.0770  -39.6110 O.2     9  LEU9       -0.2730
     46  CB       -16.1050  -69.9650  -42.7100 C.3     9  LEU9        0.0310
     47  CG       -14.6430  -69.8860  -43.1600 C.3     9  LEU9        0.0022
     48  CD1      -14.3450  -70.9490  -44.2050 C.3     9  LEU9        0.0001
     49  CD2      -14.3080  -68.5010  -43.6860 C.3     9  LEU9        0.0001
     50  N        -14.6950  -71.7590  -40.2000 N.am   10  PRO10      -0.2727
     51  CA       -13.8760  -71.6160  -38.9900 C.3    10  PRO10       0.1402
     52  C        -13.1740  -70.2620  -38.9640 C.2    10  PRO10       0.2269
     53  O        -12.7150  -69.7920  -40.0050 O.2    10  PRO10      -0.2865
     54  CB       -12.8680  -72.7660  -39.1050 C.3    10  PRO10       0.0296
     55  CG       -13.5090  -73.7470  -40.0420 C.3    10  PRO10       0.0237
     56  CD       -14.2820  -72.9130  -41.0160 C.3    10  PRO10       0.0939
     57  N         -9.2740  -71.3150  -48.2070 N.3    35  GLY35      -0.1210
     58  CA        -9.9830  -72.5220  -48.5860 C.3    35  GLY35       0.1956
     59  C        -11.4880  -72.4530  -48.4110 C.2    35  GLY35       0.2611
     60  O        -12.0570  -73.1870  -47.6030 O.2    35  GLY35      -0.2717
     61  N        -12.1350  -71.5650  -49.1600 N.am   36  LEU36      -0.1979
     62  CA       -13.5920  -71.5520  -49.2310 C.3    36  LEU36       0.1596
     63  C        -14.0370  -72.7680  -50.0270 C.2    36  LEU36       0.2287
     64  O        -14.7920  -73.6080  -49.5390 O.2    36  LEU36      -0.2864
     65  CB       -14.1080  -70.2660  -49.8790 C.3    36  LEU36       0.0297
     66  CG       -13.9510  -68.9690  -49.0860 C.3    36  LEU36       0.0022
     67  CD1      -14.4330  -67.7870  -49.9090 C.3    36  LEU36       0.0001
     68  CD2      -14.7070  -69.0530  -47.7680 C.3    36  LEU36       0.0001
     69  N        -13.3130  -76.2020  -51.0010 N.3    38  LYS38      -0.1245
     70  CA       -12.5150  -77.2500  -50.3690 C.3    38  LYS38       0.1561
     71  C        -11.7840  -78.1340  -51.3770 C.2    38  LYS38       0.2260
     72  O        -10.9720  -78.9790  -50.9910 O.2    38  LYS38      -0.2867
     73  CB       -13.3850  -78.1230  -49.4590 C.3    38  LYS38       0.0271
     74  CG       -13.1150  -77.8900  -47.9830 C.3    38  LYS38       0.0035
     75  CD       -11.9370  -78.7290  -47.4990 C.3    38  LYS38       0.0206
     76  CE       -11.9420  -78.9050  -45.9870 C.3    38  LYS38       0.1093
     77  NZ       -11.6260  -77.6330  -45.2730 N.3    38  LYS38      -0.1314
     78  N        -27.9910  -67.7290  -55.2220 N.3    76  LYS76      -0.1245
     79  CA       -27.0480  -67.0200  -56.0790 C.3    76  LYS76       0.1561
     80  C        -27.6780  -66.4410  -57.3410 C.2    76  LYS76       0.2260
     81  O        -28.5190  -67.0670  -57.9850 O.2    76  LYS76      -0.2867
     82  CB       -25.8860  -67.9390  -56.4700 C.3    76  LYS76       0.0271
     83  CG       -25.1850  -68.5880  -55.2900 C.3    76  LYS76       0.0035
     84  CD       -24.0130  -69.4490  -55.7380 C.3    76  LYS76       0.0206
     85  CE       -23.0580  -69.7110  -54.5800 C.3    76  LYS76       0.1093
     86  NZ       -21.6280  -69.6550  -54.9960 N.3    76  LYS76      -0.1314
     87  N        -20.8770  -65.9230  -49.0500 N.3    84  LEU84      -0.1231
     88  CA       -19.7810  -66.8840  -49.1120 C.3    84  LEU84       0.1693
     89  C        -19.6630  -67.7290  -47.8500 C.2    84  LEU84       0.2592
     90  O        -19.2160  -68.8740  -47.9090 O.2    84  LEU84      -0.2718
     91  CB       -18.4600  -66.1620  -49.3780 C.3    84  LEU84       0.0284
     92  CG       -18.3370  -65.5930  -50.7910 C.3    84  LEU84       0.0019
     93  CD1      -16.9790  -64.9520  -51.0010 C.3    84  LEU84       0.0001
     94  CD2      -18.5800  -66.6880  -51.8160 C.3    84  LEU84       0.0001
     95  N        -20.0570  -67.1720  -46.7090 N.am   85  GLY85      -0.1957
     96  CA       -20.0060  -67.9320  -45.4720 C.3    85  GLY85       0.1869
     97  C        -20.3430  -67.1220  -44.2380 C.2    85  GLY85       0.2309
     98  O        -20.7600  -65.9720  -44.3430 O.2    85  GLY85      -0.2863
@<TRIPOS>BOND
     1    81    80    2
     2    80    79    1
     3    82    79    1
     4    82    83    1
     5    79    78    1
     6    84    83    1
     7    84    85    1
     8    86    85    1
     9    94    92    1
    10    71    72    2
    11    71    70    1
    12    69    70    1
    13    93    92    1
    14    92    91    1
    15    70    73    1
    16    63    64    2
    17    63    62    1
    18    67    66    1
    19    65    62    1
    20    65    66    1
    21    73    74    1
    22    91    88    1
    23    62    61    1
    24    32    30   ar
    25    32    31   ar
    26    61    59   am
    27    88    87    1
    28    88    89    1
    29    66    68    1
    30    30    28   ar
    31    58    59    1
    32    58    57    1
    33    31    29   ar
    34    59    60    2
    35    74    75    1
    36    90    89    2
    37    89    95   am
    38    75    76    1
    39    28    26   ar
    40    28    27   ar
    41    29    26   ar
    42    18    16    1
    43    95    96    1
    44    26    24   ar
    45    27    25   ar
    46    15    16    2
    47    15    14    1
    48    11    10    2
    49    16    17    1
    50    76    77    1
    51    96    97    1
    52    12    13    1
    53    12     9    1
    54    24    25   ar
    55    24    23    1
    56    13    14    1
    57    10     9    1
    58    10    19   am
    59     9     8    1
    60    98    97    2
    61    20    23    1
    62    20    19    1
    63    20    21    1
    64    48    47    1
    65    49    47    1
    66    22    21    2
    67    21    33   am
    68     8     3   am
    69    47    46    1
    70     4     3    2
    71    46    43    1
    72     3     2    1
    73    33    34    1
    74    36    35    2
    75    43    42    1
    76    43    44    1
    77    35    42   am
    78    35    34    1
    79    34    37    1
    80    56    50    1
    81    56    55    1
    82     2     5    1
    83     2     1    1
    84     5     6    1
    85     6     7    1
    86     1     7    1
    87    44    50   am
    88    44    45    2
    89    50    51    1
    90    55    54    1
    91    53    52    2
    92    37    38    1
    93    54    51    1
    94    51    52    1
    95    38    39    1
    96    40    39   ar
    97    39    41   ar
