@<TRIPOS>MOLECULE
tmp/5flfC00.pdb
 104 102 0 0 0
SMALL
GASTEIGER

@<TRIPOS>ATOM
      1  N        -28.7530  -36.0410  -11.8510 N.3   132  GLU132     -0.1245
      2  CA       -29.6450  -35.7710  -10.7260 C.3   132  GLU132      0.1567
      3  C        -30.6680  -34.7230  -11.1380 C.2   132  GLU132      0.2260
      4  O        -31.8780  -34.8720  -10.8970 O.2   132  GLU132     -0.2867
      5  CB       -28.8590  -35.2970   -9.4990 C.3   132  GLU132      0.0388
      6  CG       -29.7220  -35.0490   -8.2650 C.3   132  GLU132      0.1160
      7  CD       -28.9450  -34.4240   -7.1180 C.2   132  GLU132      0.3649
      8  OE1      -27.8970  -33.7950   -7.3780 O.co2 132  GLU132     -0.2457
      9  OE2      -29.3840  -34.5610   -5.9560 O.co2 132  GLU132     -0.2457
     10  N        -33.2260  -36.2480  -13.5600 N.3   135  ALA135     -0.1231
     11  CA       -34.2010  -37.0600  -12.8500 C.3   135  ALA135      0.1694
     12  C        -35.1940  -36.1950  -12.0830 C.2   135  ALA135      0.2592
     13  O        -36.3650  -36.5540  -11.9580 O.2   135  ALA135     -0.2718
     14  CB       -33.4980  -38.0210  -11.9090 C.3   135  ALA135      0.0304
     15  N        -34.7310  -35.0580  -11.5710 N.am  136  SER136     -0.1952
     16  CA       -35.6380  -34.1310  -10.8950 C.3   136  SER136      0.1924
     17  C        -36.6650  -33.5650  -11.8760 C.2   136  SER136      0.2314
     18  O        -37.7860  -33.2290  -11.4950 O.2   136  SER136     -0.2863
     19  CB       -34.8620  -32.9910  -10.2330 C.3   136  SER136      0.2116
     20  OG       -34.3450  -32.0980  -11.2030 O.3   136  SER136     -0.2180
     21  N        -35.3940  -44.0840  -14.3410 N.3   199  HIS199     -0.1226
     22  CA       -34.1940  -43.3730  -13.9160 C.3   199  HIS199      0.1752
     23  C        -33.1510  -44.3760  -13.4230 C.2   199  HIS199      0.2595
     24  O        -31.9440  -44.1290  -13.4740 O.2   199  HIS199     -0.2718
     25  CB       -34.5270  -42.3560  -12.8220 C.3   199  HIS199      0.0759
     26  CG       -35.5720  -41.3590  -13.2190 C.ar  199  HIS199      0.0818
     27  ND1      -35.3080  -40.2980  -14.0580 N.ar  199  HIS199     -0.2268
     28  CD2      -36.8800  -41.2570  -12.8850 C.ar  199  HIS199      0.1154
     29  CE1      -36.4090  -39.5880  -14.2280 C.ar  199  HIS199      0.1986
     30  NE2      -37.3780  -40.1490  -13.5270 N.ar  199  HIS199     -0.2212
     31  N        -33.6460  -45.5190  -12.9630 N.am  200  GLN200     -0.1979
     32  CA       -32.8260  -46.6060  -12.4410 C.3   200  GLN200      0.1601
     33  C        -31.9080  -47.1930  -13.5240 C.2   200  GLN200      0.2287
     34  O        -30.7120  -47.4520  -13.2960 O.2   200  GLN200     -0.2864
     35  CB       -33.7530  -47.6730  -11.8490 C.3   200  GLN200      0.0394
     36  CG       -34.9120  -47.0450  -11.0600 C.3   200  GLN200      0.0908
     37  CD       -36.0020  -48.0250  -10.6620 C.2   200  GLN200      0.2608
     38  OE1      -35.7450  -49.0240   -9.9980 O.2   200  GLN200     -0.2717
     39  NE2      -37.2340  -47.7300  -11.0620 N.am  200  GLN200     -0.0878
     40  N        -29.2440  -45.0010  -14.1420 N.3   203  VAL203     -0.1245
     41  CA       -28.2190  -45.2220  -13.1270 C.3   203  VAL203      0.1561
     42  C        -27.2870  -46.3660  -13.5390 C.2   203  VAL203      0.2260
     43  O        -26.0630  -46.2640  -13.3830 O.2   203  VAL203     -0.2867
     44  CB       -28.8420  -45.5150  -11.7440 C.3   203  VAL203      0.0252
     45  CG1      -27.8100  -46.1030  -10.7940 C.3   203  VAL203      0.0019
     46  CG2      -29.4470  -44.2450  -11.1620 C.3   203  VAL203      0.0019
     47  N        -33.6020  -53.2920  -10.2430 N.3   261  PRO261     -0.2102
     48  CA       -33.5650  -51.8450  -10.4850 C.3   261  PRO261      0.1504
     49  C        -33.8020  -51.0040   -9.2280 C.2   261  PRO261      0.2576
     50  O        -33.1320  -49.9890   -9.0390 O.2   261  PRO261     -0.2718
     51  CB       -34.6950  -51.6360  -11.4990 C.3   261  PRO261      0.0282
     52  CG       -34.8080  -52.9400  -12.2050 C.3   261  PRO261      0.0208
     53  CD       -34.5240  -53.9810  -11.1640 C.3   261  PRO261      0.0893
     54  N        -34.7390  -51.4240   -8.3830 N.am  262  SER262     -0.1953
     55  CA       -35.1030  -50.6540   -7.1960 C.3   262  SER262      0.1924
     56  C        -34.0320  -50.7080   -6.1080 C.2   262  SER262      0.2314
     57  O        -34.1290  -50.0100   -5.0990 O.2   262  SER262     -0.2863
     58  CB       -36.4340  -51.1510   -6.6290 C.3   262  SER262      0.2116
     59  OG       -36.3250  -52.4900   -6.1770 O.3   262  SER262     -0.2180
     60  N        -30.7460  -50.2600   -6.8140 N.3   264  ARG264     -0.1231
     61  CA       -29.6590  -49.3830   -7.2270 C.3   264  ARG264      0.1679
     62  C        -29.7670  -48.0380   -6.5170 C.2   264  ARG264      0.2434
     63  O        -30.8610  -47.6220   -6.1390 O.2   264  ARG264     -0.2733
     64  CB       -29.6760  -49.1900   -8.7440 C.3   264  ARG264      0.0321
     65  CG       -29.6560  -50.4860   -9.5290 C.3   264  ARG264      0.0489
     66  CD       -30.0530  -50.2640  -10.9760 C.3   264  ARG264      0.2205
     67  NE       -30.2690  -51.5320  -11.6650 N.pl3 264  ARG264     -0.0865
     68  CZ       -30.9100  -51.6550  -12.8220 C.cat 264  ARG264      0.5346
     69  NH1      -31.4080  -50.5840  -13.4250 N.pl3 264  ARG264      0.1354
     70  NH2      -31.0610  -52.8510  -13.3720 N.pl3 264  ARG264      0.1354
     71  N        -28.6290  -47.3560   -6.3210 N.am  265  PRO265     -0.2718
     72  CA       -28.6750  -46.0150   -5.7290 C.3   265  PRO265      0.1535
     73  C        -29.3350  -45.0060   -6.6620 C.2   265  PRO265      0.2599
     74  O        -29.2930  -45.1850   -7.8780 O.2   265  PRO265     -0.2715
     75  CB       -27.1970  -45.6740   -5.5160 C.3   265  PRO265      0.0310
     76  CG       -26.4700  -46.5100   -6.5170 C.3   265  PRO265      0.0237
     77  CD       -27.2500  -47.7890   -6.6080 C.3   265  PRO265      0.0939
     78  N        -29.9440  -43.9670   -6.0980 N.am  266  THR266     -0.1937
     79  CA       -30.4690  -42.8720   -6.9040 C.3   266  THR266      0.2028
     80  C        -29.3360  -41.9260   -7.2720 C.2   266  THR266      0.2642
     81  O        -28.2590  -41.9840   -6.6810 O.2   266  THR266     -0.2714
     82  CB       -31.5760  -42.0900   -6.1710 C.3   266  THR266      0.1808
     83  OG1      -31.0210  -41.4190   -5.0340 O.3   266  THR266     -0.2208
     84  CG2      -32.6880  -43.0260   -5.7200 C.3   266  THR266      0.0379
     85  N        -29.5740  -41.0580   -8.2490 N.am  267  PHE267     -0.1959
     86  CA       -28.5520  -40.1020   -8.6570 C.3   267  PHE267      0.1771
     87  C        -28.2530  -39.1150   -7.5350 C.2   267  PHE267      0.2619
     88  O        -27.1620  -38.5590   -7.4660 O.2   267  PHE267     -0.2715
     89  CB       -28.9730  -39.3620   -9.9260 C.3   267  PHE267      0.0574
     90  CG       -28.7140  -40.1360  -11.1850 C.ar  267  PHE267     -0.0200
     91  CD1      -27.4220  -40.4880  -11.5410 C.ar  267  PHE267     -0.0042
     92  CD2      -29.7580  -40.5140  -12.0120 C.ar  267  PHE267     -0.0042
     93  CE1      -27.1750  -41.2040  -12.6960 C.ar  267  PHE267     -0.0003
     94  CE2      -29.5190  -41.2290  -13.1710 C.ar  267  PHE267     -0.0003
     95  CZ       -28.2250  -41.5740  -13.5130 C.ar  267  PHE267     -0.0000
     96  N        -29.2280  -38.9100   -6.6550 N.am  268  LYS268     -0.1977
     97  CA       -29.0460  -38.0870   -5.4640 C.3   268  LYS268      0.1596
     98  C        -27.9520  -38.6650   -4.5590 C.2   268  LYS268      0.2287
     99  O        -26.9560  -37.9940   -4.2380 O.2   268  LYS268     -0.2864
    100  CB       -30.3750  -37.9790   -4.7120 C.3   268  LYS268      0.0298
    101  CG       -30.3250  -37.2250   -3.3980 C.3   268  LYS268      0.0038
    102  CD       -31.7070  -37.1990   -2.7570 C.3   268  LYS268      0.0206
    103  CE       -31.6770  -36.5540   -1.3830 C.3   268  LYS268      0.1093
    104  NZ       -31.2140  -35.1420   -1.4440 N.3   268  LYS268     -0.1314
@<TRIPOS>BOND
     1    21    22    1
     2    29    27   ar
     3    29    30   ar
     4    40    41    1
     5    27    26   ar
     6    22    23    1
     7    22    25    1
     8    10    11    1
     9    42    43    2
    10    42    41    1
    11    30    28   ar
    12    33    34    2
    13    33    32    1
    14    95    94   ar
    15    95    93   ar
    16    24    23    2
    17    69    68    1
    18    23    31   am
    19    70    68    1
    20    26    28   ar
    21    26    25    1
    22    94    92   ar
    23    41    44    1
    24    31    32    1
    25    11    12    1
    26    11    14    1
    27    68    67    2
    28    93    91   ar
    29    32    35    1
    30    52    51    1
    31    52    53    1
    32    12    13    2
    33    12    15   am
    34    92    90   ar
    35    17    18    2
    36    17    16    1
    37     1     2    1
    38    35    36    1
    39    44    46    1
    40    44    45    1
    41    67    66    1
    42    15    16    1
    43    91    90   ar
    44    51    48    1
    45    20    19    1
    46    90    89    1
    47    53    47    1
    48     3     4    2
    49     3     2    1
    50    39    37   am
    51    36    37    1
    52    66    65    1
    53    16    19    1
    54     2     5    1
    55    37    38    2
    56    48    47    1
    57    48    49    1
    58    89    86    1
    59    65    64    1
    60     5     6    1
    61    49    50    2
    62    49    54   am
    63    64    61    1
    64    86    85    1
    65    86    87    1
    66    54    55    1
    67     6     7    1
    68    85    80   am
    69    74    73    2
    70    87    88    2
    71    87    96   am
    72     8     7   ar
    73    80    79    1
    74    80    81    2
    75    61    60    1
    76    61    62    1
    77    55    58    1
    78    55    56    1
    79     7     9   ar
    80    79    82    1
    81    79    78    1
    82    73    78   am
    83    73    72    1
    84    96    97    1
    85    58    59    1
    86    77    76    1
    87    77    71    1
    88    76    75    1
    89    62    71   am
    90    62    63    2
    91    71    72    1
    92    82    84    1
    93    82    83    1
    94    56    57    2
    95    72    75    1
    96    97   100    1
    97    97    98    1
    98   100   101    1
    99    98    99    2
   100   101   102    1
   101   102   103    1
   102   104   103    1
