@<TRIPOS>MOLECULE
tmp/5flgA00.pdb
 144 141 0 0 0
SMALL
GASTEIGER

@<TRIPOS>ATOM
      1  N        -10.5340   49.5610   74.3680 N.3   165  ARG165     -0.1231
      2  CA        -9.4330   48.8420   73.7430 C.3   165  ARG165      0.1694
      3  C         -8.2300   49.7880   73.5560 C.2   165  ARG165      0.2591
      4  O         -7.0630   49.3650   73.6930 O.2   165  ARG165     -0.2718
      5  CB        -9.8590   48.3030   72.3640 C.3   165  ARG165      0.0321
      6  CG       -10.4750   46.9190   72.3770 C.3   165  ARG165      0.0489
      7  CD       -10.4960   46.3230   70.9790 C.3   165  ARG165      0.2205
      8  NE       -10.9790   44.9320   70.9470 N.pl3 165  ARG165     -0.0865
      9  CZ       -12.2150   44.5880   70.6010 C.cat 165  ARG165      0.5346
     10  NH1      -13.1060   45.5350   70.3550 N.pl3 165  ARG165      0.1354
     11  NH2      -12.5980   43.3150   70.5680 N.pl3 165  ARG165      0.1354
     12  N         -8.5080   50.9980   73.0740 N.am  166  ILE166     -0.1980
     13  CA        -7.4220   51.9140   72.6880 C.3   166  ILE166      0.1595
     14  C         -6.7790   52.4870   73.9390 C.2   166  ILE166      0.2287
     15  O         -5.5370   52.4930   74.0850 O.2   166  ILE166     -0.2864
     16  CB        -7.9060   53.0430   71.7760 C.3   166  ILE166      0.0276
     17  CG1       -8.3570   52.4840   70.4350 C.3   166  ILE166      0.0022
     18  CG2       -6.8250   54.0960   71.5960 C.3   166  ILE166      0.0022
     19  CD1       -9.2450   53.4360   69.6490 C.3   166  ILE166      0.0001
     20  N         -6.5550   50.9500   76.8220 N.3   168  GLU168     -0.1231
     21  CA        -5.7560   49.8860   77.3740 C.3   168  GLU168      0.1699
     22  C         -4.4780   49.6620   76.5840 C.2   168  GLU168      0.2592
     23  O         -3.4080   49.6290   77.1560 O.2   168  GLU168     -0.2718
     24  CB        -6.5760   48.5930   77.4970 C.3   168  GLU168      0.0402
     25  CG        -7.6150   48.6510   78.6200 C.3   168  GLU168      0.1161
     26  CD        -8.8070   47.6740   78.4530 C.2   168  GLU168      0.3649
     27  OE1       -8.8340   46.8270   77.5260 O.co2 168  GLU168     -0.2457
     28  OE2       -9.7360   47.7510   79.2700 O.co2 168  GLU168     -0.2457
     29  N         -4.5810   49.6320   75.2630 N.am  169  ALA169     -0.1980
     30  CA        -3.4490   49.3360   74.4500 C.3   169  ALA169      0.1597
     31  C         -2.4350   50.4610   74.5410 C.2   169  ALA169      0.2287
     32  O         -1.2220   50.2170   74.5630 O.2   169  ALA169     -0.2864
     33  CB        -3.8790   49.1440   73.0210 C.3   169  ALA169      0.0319
     34  N          1.8460   44.4250   67.7630 N.3   187  CYS187     -0.1221
     35  CA         0.6420   43.9810   68.4270 C.3   187  CYS187      0.1808
     36  C         -0.5330   43.8620   67.4660 C.2   187  CYS187      0.2601
     37  O         -0.7480   44.7330   66.6140 O.2   187  CYS187     -0.2717
     38  CB         0.2620   44.9440   69.5340 C.3   187  CYS187      0.0970
     39  SG        -1.4300   44.6600   70.1780 S.3   187  CYS187     -0.0800
     40  N         -1.2820   42.7700   67.5800 N.am  188  TRP188     -0.1962
     41  CA        -2.6910   42.7870   67.1480 C.3   188  TRP188      0.1771
     42  C         -3.5140   41.8300   67.9830 C.2   188  TRP188      0.2620
     43  O         -2.9820   41.0840   68.8010 O.2   188  TRP188     -0.2715
     44  CB        -2.8250   42.5500   65.6250 C.3   188  TRP188      0.0590
     45  CG        -2.3830   41.1840   65.1360 C.ar  188  TRP188      0.0006
     46  CD1       -3.1630   40.0680   64.9950 C.ar  188  TRP188      0.0946
     47  CD2       -1.0830   40.8200   64.6590 C.ar  188  TRP188      0.0152
     48  NE1       -2.3840   39.0020   64.5890 N.ar  188  TRP188     -0.2442
     49  CE2       -1.1400   39.4650   64.2710 C.ar  188  TRP188      0.0810
     50  CE3        0.1240   41.5140   64.5080 C.ar  188  TRP188      0.0012
     51  CZ2       -0.0140   38.7700   63.8240 C.ar  188  TRP188      0.0191
     52  CZ3        1.2100   40.8460   64.0080 C.ar  188  TRP188      0.0001
     53  CH2        1.1430   39.4900   63.6740 C.ar  188  TRP188      0.0015
     54  N         -4.8310   41.9990   67.9050 N.am  189  SER189     -0.1936
     55  CA        -5.7340   41.4100   68.8390 C.3   189  SER189      0.2055
     56  C         -5.8750   39.9220   68.5880 C.2   189  SER189      0.2643
     57  O         -5.9050   39.4820   67.4410 O.2   189  SER189     -0.2714
     58  CB        -7.1420   42.0710   68.7120 C.3   189  SER189      0.2130
     59  OG        -7.9510   41.6280   69.7900 O.3   189  SER189     -0.2179
     60  N         -6.1340   39.1670   69.6430 N.am  190  ASP190     -0.1957
     61  CA        -6.6150   37.7920   69.4950 C.3   190  ASP190      0.1840
     62  C         -8.1740   37.7350   69.5390 C.2   190  ASP190      0.2622
     63  O         -8.7400   36.6500   69.5100 O.2   190  ASP190     -0.2715
     64  CB        -6.0360   36.8780   70.5770 C.3   190  ASP190      0.1450
     65  CG        -6.3030   37.4070   72.0070 C.2   190  ASP190      0.3671
     66  OD1       -6.6680   38.6000   72.1450 O.co2 190  ASP190     -0.2456
     67  OD2       -6.1510   36.6340   72.9860 O.co2 190  ASP190     -0.2456
     68  N         -8.8410   38.8730   69.4490 N.am  191  ASP191     -0.1971
     69  CA       -10.3320   38.8720   69.3290 C.3   191  ASP191      0.1709
     70  C        -10.7810   38.6300   67.8640 C.2   191  ASP191      0.2293
     71  O        -10.2730   39.2690   66.9480 O.2   191  ASP191     -0.2864
     72  CB       -10.8990   40.2110   69.7730 C.3   191  ASP191      0.1436
     73  CG       -10.5690   40.5710   71.2300 C.2   191  ASP191      0.3671
     74  OD1       -9.9400   39.7860   71.9870 O.co2 191  ASP191     -0.2456
     75  OD2      -10.8750   41.7260   71.5960 O.co2 191  ASP191     -0.2456
     76  N        -12.0000   42.1880   65.9910 N.3   194  TYR194     -0.1241
     77  CA       -11.2120   43.4270   65.9800 C.3   194  TYR194      0.1605
     78  C         -9.8730   43.2490   65.2840 C.2   194  TYR194      0.2264
     79  O         -9.0450   42.4210   65.7090 O.2   194  TYR194     -0.2867
     80  CB       -11.0000   43.8920   67.4050 C.3   194  TYR194      0.0534
     81  CG       -10.5970   45.3290   67.5000 C.ar  194  TYR194     -0.0201
     82  CD1      -11.5430   46.3460   67.3910 C.ar  194  TYR194     -0.0009
     83  CD2       -9.2460   45.6850   67.6050 C.ar  194  TYR194     -0.0009
     84  CE1      -11.1770   47.6780   67.4850 C.ar  194  TYR194      0.0417
     85  CE2       -8.8600   47.0140   67.6130 C.ar  194  TYR194      0.0417
     86  CZ        -9.8160   48.0060   67.5550 C.ar  194  TYR194      0.1957
     87  OH        -9.4320   49.3160   67.6700 O.3   194  TYR194     -0.2866
     88  N         -7.7730   45.8260   63.9190 N.3   196  THR196     -0.1203
     89  CA        -6.7530   46.8670   64.0900 C.3   196  THR196      0.1994
     90  C         -5.6790   46.4600   65.0570 C.2   196  THR196      0.2618
     91  O         -5.9410   45.7340   66.0220 O.2   196  THR196     -0.2717
     92  CB        -7.3590   48.1650   64.5730 C.3   196  THR196      0.1784
     93  OG1       -8.3480   48.5870   63.6350 O.3   196  THR196     -0.2211
     94  CG2       -6.3130   49.2400   64.7070 C.3   196  THR196      0.0376
     95  N         -4.4290   46.7450   64.6750 N.am  197  GLY197     -0.1942
     96  CA        -3.2960   46.5260   65.5610 C.3   197  GLY197      0.2014
     97  C         -2.3720   47.7220   65.5160 C.2   197  GLY197      0.2638
     98  O         -2.7860   48.8150   65.1270 O.2   197  GLY197     -0.2714
     99  N         -1.1040   47.5330   65.9160 N.am  198  TYR198     -0.1973
    100  CA        -0.1880   48.6390   65.9460 C.3   198  TYR198      0.1639
    101  C          1.2600   48.1730   66.0780 C.2   198  TYR198      0.2290
    102  O          1.5400   47.0070   66.3200 O.2   198  TYR198     -0.2864
    103  CB        -0.4880   49.6050   67.1030 C.3   198  TYR198      0.0560
    104  CG        -0.2110   49.0540   68.5150 C.ar  198  TYR198     -0.0198
    105  CD1        1.0480   49.1290   69.0770 C.ar  198  TYR198     -0.0009
    106  CD2       -1.2300   48.4720   69.2740 C.ar  198  TYR198     -0.0009
    107  CE1        1.3000   48.6500   70.3200 C.ar  198  TYR198      0.0417
    108  CE2       -1.0040   48.0810   70.5740 C.ar  198  TYR198      0.0417
    109  CZ         0.2990   48.0970   71.0580 C.ar  198  TYR198      0.1957
    110  OH         0.5780   47.7010   72.3450 O.3   198  TYR198     -0.2866
    111  N          3.0350   55.6320   68.5430 N.3   206  TYR206     -0.1241
    112  CA         2.0080   54.5640   68.4520 C.3   206  TYR206      0.1605
    113  C          1.3500   54.6150   67.0880 C.2   206  TYR206      0.2264
    114  O          0.5440   55.5130   66.7960 O.2   206  TYR206     -0.2867
    115  CB         0.9650   54.7720   69.5340 C.3   206  TYR206      0.0534
    116  CG        -0.1360   53.6990   69.6520 C.ar  206  TYR206     -0.0201
    117  CD1        0.0740   52.5690   70.4220 C.ar  206  TYR206     -0.0009
    118  CD2       -1.4330   53.9890   69.2900 C.ar  206  TYR206     -0.0009
    119  CE1       -0.9370   51.6810   70.6990 C.ar  206  TYR206      0.0417
    120  CE2       -2.4740   53.0780   69.5130 C.ar  206  TYR206      0.0417
    121  CZ        -2.2140   51.9280   70.2210 C.ar  206  TYR206      0.1957
    122  OH        -3.1750   50.9900   70.4310 O.3   206  TYR206     -0.2866
    123  N         -0.9920   53.0970   64.6740 N.3   208  ARG208     -0.1245
    124  CA        -2.0900   52.1720   64.4910 C.3   208  ARG208      0.1563
    125  C         -2.1500   51.7330   63.0430 C.2   208  ARG208      0.2260
    126  O         -2.0180   52.5420   62.1500 O.2   208  ARG208     -0.2867
    127  CB        -3.4210   52.8640   64.8600 C.3   208  ARG208      0.0307
    128  CG        -3.4090   53.4610   66.2300 C.3   208  ARG208      0.0489
    129  CD        -4.6900   54.2020   66.5500 C.3   208  ARG208      0.2205
    130  NE        -5.8050   53.2870   66.6560 N.pl3 208  ARG208     -0.0865
    131  CZ        -6.9510   53.4230   66.0010 C.cat 208  ARG208      0.5346
    132  NH1       -7.1130   54.4020   65.1360 N.pl3 208  ARG208      0.1354
    133  NH2       -7.9310   52.5550   66.2000 N.pl3 208  ARG208      0.1354
    134  N          1.6350   39.7910   70.4730 N.3   222  ARG222     -0.1245
    135  CA         2.2250   40.8160   71.2710 C.3   222  ARG222      0.1563
    136  C          3.7140   40.4360   71.4060 C.2   222  ARG222      0.2260
    137  O          4.0580   39.5460   72.1650 O.2   222  ARG222     -0.2867
    138  CB         1.5450   40.8670   72.6400 C.3   222  ARG222      0.0307
    139  CG         1.5830   42.2220   73.3240 C.3   222  ARG222      0.0489
    140  CD         0.6890   43.1620   72.5780 C.3   222  ARG222      0.2205
    141  NE         0.3200   44.3960   73.2670 N.pl3 222  ARG222     -0.0865
    142  CZ        -0.9170   44.7040   73.6350 C.cat 222  ARG222      0.5346
    143  NH1       -1.8560   43.7540   73.7330 N.pl3 222  ARG222      0.1354
    144  NH2       -1.2250   45.9590   73.8760 N.pl3 222  ARG222      0.1354
@<TRIPOS>BOND
     1   126   125    2
     2   125   124    1
     3    93    92    1
     4    53    51   ar
     5    53    52   ar
     6    51    49   ar
     7    88    89    1
     8    52    50   ar
     9    89    92    1
    10    89    90    1
    11    49    48   ar
    12    49    47   ar
    13   124   123    1
    14   124   127    1
    15    50    47   ar
    16    92    94    1
    17    48    46   ar
    18    47    45   ar
    19    95    90   am
    20    95    96    1
    21   127   128    1
    22    46    45   ar
    23    90    91    2
    24    98    97    2
    25    45    44    1
    26   132   131    1
    27    78    79    2
    28    78    77    1
    29    97    96    1
    30    97    99   am
    31    44    41    1
    32    99   100    1
    33   100   101    1
    34   100   103    1
    35    77    76    1
    36    77    80    1
    37   131   133    1
    38   131   130    2
    39   101   102    2
    40   128   129    1
    41   129   130    1
    42    37    36    2
    43   114   113    2
    44    71    70    2
    45   113   112    1
    46   103   104    1
    47    41    40    1
    48    41    42    1
    49    82    84   ar
    50    82    81   ar
    51    80    81    1
    52    57    56    2
    53    36    40   am
    54    36    35    1
    55    84    86   ar
    56    81    83   ar
    57    86    85   ar
    58    86    87    1
    59    83    85   ar
    60    34    35    1
    61    70    69    1
    62    54    42   am
    63    54    55    1
    64    42    43    2
    65    35    38    1
    66   112   111    1
    67   112   115    1
    68   104   105   ar
    69   104   106   ar
    70    56    55    1
    71    56    60   am
    72    58    55    1
    73    58    59    1
    74   105   107   ar
    75   106   108   ar
    76   118   120   ar
    77   118   116   ar
    78    69    68    1
    79    69    72    1
    80    68    62   am
    81    61    62    1
    82    61    60    1
    83    61    64    1
    84    63    62    2
    85   120   121   ar
    86   115   116    1
    87    38    39    1
    88    19    17    1
    89   116   117   ar
    90    72    73    1
    91   121   122    1
    92   121   119   ar
    93   107   109   ar
    94    10     9    1
    95   117   119   ar
    96    17    16    1
    97   134   135    1
    98    11     9    1
    99   108   109   ar
   100    64    65    1
   101     9     8    2
   102     8     7    1
   103     7     6    1
   104   109   110    1
   105    73    75   ar
   106    73    74   ar
   107   135   136    1
   108   135   138    1
   109   136   137    2
   110    18    16    1
   111    16    13    1
   112    65    66   ar
   113    65    67   ar
   114     5     6    1
   115     5     2    1
   116   140   141    1
   117   140   139    1
   118   138   139    1
   119    13    12    1
   120    13    14    1
   121    33    30    1
   122    12     3   am
   123   141   142    2
   124     3     4    2
   125     3     2    1
   126   142   143    1
   127   142   144    1
   128     2     1    1
   129    14    15    2
   130    30    31    1
   131    30    29    1
   132    31    32    2
   133    29    22   am
   134    22    23    2
   135    22    21    1
   136    20    21    1
   137    21    24    1
   138    24    25    1
   139    27    26   ar
   140    26    25    1
   141    26    28   ar
