@<TRIPOS>MOLECULE
tmp/5flgA01.pdb
 224 215 0 0 0
SMALL
GASTEIGER

@<TRIPOS>ATOM
      1  N         -7.4200   30.7330   76.9970 N.3    21  HIS21      -0.1226
      2  CA        -7.4030   32.1160   77.4820 C.3    21  HIS21       0.1752
      3  C         -8.5650   32.8850   76.8720 C.2    21  HIS21       0.2596
      4  O         -8.7120   32.9270   75.6610 O.2    21  HIS21      -0.2718
      5  CB        -6.0710   32.7930   77.0700 C.3    21  HIS21       0.0759
      6  CG        -6.0120   34.2620   77.3800 C.ar   21  HIS21       0.0818
      7  ND1       -5.9980   34.7480   78.6640 N.ar   21  HIS21      -0.2268
      8  CD2       -5.9860   35.3500   76.5720 C.ar   21  HIS21       0.1154
      9  CE1       -5.9960   36.0690   78.6410 C.ar   21  HIS21       0.1986
     10  NE2       -5.9700   36.4610   77.3830 N.ar   21  HIS21      -0.2212
     11  N         -9.4200   33.4590   77.6910 N.am   22  ILE22      -0.1966
     12  CA       -10.5260   34.2460   77.1330 C.3    22  ILE22       0.1727
     13  C        -10.2110   35.7370   77.2280 C.2    22  ILE22       0.2617
     14  O        -10.1900   36.4700   76.2130 O.2    22  ILE22      -0.2715
     15  CB       -11.8500   34.0070   77.8920 C.3    22  ILE22       0.0290
     16  CG1      -12.3420   32.5670   77.7290 C.3    22  ILE22       0.0022
     17  CG2      -12.9060   34.9820   77.3960 C.3    22  ILE22       0.0023
     18  CD1      -12.8010   32.2590   76.3280 C.3    22  ILE22       0.0001
     19  N         -9.9330   36.1720   78.4470 N.am   23  SER23      -0.1936
     20  CA        -9.7140   37.5830   78.7190 C.3    23  SER23       0.2055
     21  C         -8.7000   37.8100   79.8430 C.2    23  SER23       0.2643
     22  O         -8.5440   36.9860   80.7360 O.2    23  SER23      -0.2714
     23  CB       -11.0290   38.2530   79.0920 C.3    23  SER23       0.2130
     24  OG       -10.8570   39.6480   79.2150 O.3    23  SER23      -0.2179
     25  N         -8.0240   38.9530   79.7890 N.am   24  GLY24      -0.1954
     26  CA        -7.1690   39.4050   80.8760 C.3    24  GLY24       0.1869
     27  C         -7.2950   40.9100   81.0130 C.2    24  GLY24       0.2309
     28  O         -7.5150   41.6030   80.0460 O.2    24  GLY24      -0.2863
     29  N         -5.8430   44.5590   83.4880 N.3    26  GLU26      -0.1245
     30  CA        -5.1220   45.1050   84.6150 C.3    26  GLU26       0.1567
     31  C         -5.3900   46.5650   84.7990 C.2    26  GLU26       0.2260
     32  O         -5.5540   47.2740   83.8500 O.2    26  GLU26      -0.2867
     33  CB        -3.6030   44.8410   84.4380 C.3    26  GLU26       0.0388
     34  CG        -3.1460   44.9460   83.0080 C.3    26  GLU26       0.1160
     35  CD        -3.3580   43.6720   82.2200 C.2    26  GLU26       0.3649
     36  OE1       -3.0210   42.5820   82.7340 O.co2  26  GLU26      -0.2457
     37  OE2       -3.7430   43.7760   81.0290 O.co2  26  GLU26      -0.2457
     38  N        -15.9800   42.5220   81.5230 N.3    44  LYS44      -0.1245
     39  CA       -15.0870   42.3470   80.4020 C.3    44  LYS44       0.1561
     40  C        -14.8120   40.8790   80.1680 C.2    44  LYS44       0.2260
     41  O        -14.8630   40.3890   79.0430 O.2    44  LYS44      -0.2867
     42  CB       -13.8080   43.1120   80.7230 C.3    44  LYS44       0.0271
     43  CG       -12.6170   42.7970   79.8870 C.3    44  LYS44       0.0035
     44  CD       -11.4960   43.6980   80.4040 C.3    44  LYS44       0.0206
     45  CE       -10.1690   43.3950   79.7400 C.3    44  LYS44       0.1093
     46  NZ       -10.1790   44.0830   78.4320 N.3    44  LYS44      -0.1314
     47  N        -17.0230   38.3210   76.5800 N.3    48  HIS48      -0.1241
     48  CA       -15.9340   38.3520   75.6220 C.3    48  HIS48       0.1621
     49  C        -16.3210   37.6120   74.3410 C.2    48  HIS48       0.2264
     50  O        -16.8910   36.5330   74.3920 O.2    48  HIS48      -0.2867
     51  CB       -14.6620   37.7650   76.2200 C.3    48  HIS48       0.0745
     52  CG       -13.4140   38.2780   75.5810 C.ar   48  HIS48       0.0817
     53  ND1      -13.0920   37.9920   74.2730 N.ar   48  HIS48      -0.2268
     54  CD2      -12.5420   39.2300   75.9780 C.ar   48  HIS48       0.1154
     55  CE1      -11.9880   38.6380   73.9460 C.ar   48  HIS48       0.1986
     56  NE2      -11.6560   39.4250   74.9520 N.ar   48  HIS48      -0.2212
     57  N          0.8100   32.1980   69.0760 N.3   115  SER115     -0.1217
     58  CA        -0.6230   32.5320   69.1150 C.3   115  SER115      0.1889
     59  C         -1.2320   32.3310   70.4830 C.2   115  SER115      0.2288
     60  O         -2.1440   33.0440   70.8550 O.2   115  SER115     -0.2866
     61  CB        -1.4110   31.6630   68.1390 C.3   115  SER115      0.2089
     62  OG        -1.0540   31.9860   66.8130 O.3   115  SER115     -0.2183
     63  N          0.1850   32.3620   73.4780 N.3   117  VAL117     -0.1231
     64  CA         0.8230   33.0030   74.5860 C.3   117  VAL117      0.1692
     65  C         -0.0920   34.0940   75.1240 C.2   117  VAL117      0.2592
     66  O         -0.6810   34.8280   74.3650 O.2   117  VAL117     -0.2718
     67  CB         2.1710   33.6260   74.1690 C.3   117  VAL117      0.0266
     68  CG1        2.6550   34.5570   75.2620 C.3   117  VAL117      0.0020
     69  CG2        3.1890   32.5220   73.8620 C.3   117  VAL117      0.0020
     70  N         -0.2710   34.0920   76.4390 N.am  118  ARG118     -0.1966
     71  CA        -1.2830   34.8650   77.1370 C.3   118  ARG118      0.1729
     72  C         -0.8180   36.2740   77.4920 C.2   118  ARG118      0.2617
     73  O         -1.6200   37.1660   77.7980 O.2   118  ARG118     -0.2715
     74  CB        -1.6440   34.1250   78.4230 C.3   118  ARG118      0.0348
     75  CG        -2.3010   32.7800   78.1580 C.3   118  ARG118      0.0492
     76  CD        -1.9820   31.7920   79.2690 C.3   118  ARG118      0.2205
     77  NE        -2.8730   30.6320   79.2480 N.pl3 118  ARG118     -0.0865
     78  CZ        -2.8300   29.6560   78.3390 C.cat 118  ARG118      0.5346
     79  NH1       -1.9470   29.6850   77.3420 N.pl3 118  ARG118      0.1354
     80  NH2       -3.7050   28.6600   78.4080 N.pl3 118  ARG118      0.1354
     81  N          0.4980   36.4660   77.4790 N.am  119  GLY119     -0.1940
     82  CA         1.0610   37.7950   77.6180 C.3   119  GLY119      0.2014
     83  C          1.8680   38.0900   76.3810 C.2   119  GLY119      0.2638
     84  O          1.4100   37.8500   75.2520 O.2   119  GLY119     -0.2714
     85  N          3.0600   38.6490   76.6000 N.am  120  ALA120     -0.1977
     86  CA         3.8920   39.1160   75.5240 C.3   120  ALA120      0.1597
     87  C          5.1340   38.2480   75.4470 C.2   120  ALA120      0.2287
     88  O          5.5490   37.6520   76.4380 O.2   120  ALA120     -0.2864
     89  CB         4.3120   40.5630   75.7560 C.3   120  ALA120      0.0319
     90  N          4.8850   37.2550   79.1920 N.3   139  VAL139     -0.1231
     91  CA         5.1730   38.2550   80.1890 C.3   139  VAL139      0.1692
     92  C          3.9900   39.1840   80.2030 C.2   139  VAL139      0.2592
     93  O          3.6070   39.7160   79.1660 O.2   139  VAL139     -0.2718
     94  CB         6.4560   39.0500   79.8360 C.3   139  VAL139      0.0266
     95  CG1        6.6250   40.2460   80.7590 C.3   139  VAL139      0.0020
     96  CG2        7.6840   38.1430   79.9110 C.3   139  VAL139      0.0020
     97  N          3.4200   39.4040   81.3770 N.am  140  ARG140     -0.1966
     98  CA         2.1620   40.1420   81.4740 C.3   140  ARG140      0.1729
     99  C          2.4250   41.5050   82.0920 C.2   140  ARG140      0.2616
    100  O          2.7410   41.6140   83.2430 O.2   140  ARG140     -0.2715
    101  CB         1.1310   39.3830   82.2920 C.3   140  ARG140      0.0348
    102  CG        -0.2850   39.9730   82.1660 C.3   140  ARG140      0.0492
    103  CD        -1.0200   39.5810   80.8730 C.3   140  ARG140      0.2205
    104  NE        -2.2630   40.3660   80.7510 N.pl3 140  ARG140     -0.0865
    105  CZ        -3.1980   40.2530   79.8040 C.cat 140  ARG140      0.5346
    106  NH1       -3.0860   39.3700   78.8260 N.pl3 140  ARG140      0.1354
    107  NH2       -4.2220   41.1210   79.7970 N.pl3 140  ARG140      0.1354
    108  N          2.3470   42.5410   81.2840 N.am  141  VAL141     -0.1977
    109  CA         2.5530   43.8910   81.7550 C.3   141  VAL141      0.1596
    110  C          1.3920   44.2950   82.6520 C.2   141  VAL141      0.2287
    111  O          0.2260   44.0370   82.3400 O.2   141  VAL141     -0.2864
    112  CB         2.6510   44.8530   80.5650 C.3   141  VAL141      0.0276
    113  CG1        2.8890   46.2740   81.0490 C.3   141  VAL141      0.0022
    114  CG2        3.7810   44.3990   79.6330 C.3   141  VAL141      0.0022
    115  N         -0.4540   49.4090   85.1390 N.3   144  MET144     -0.1245
    116  CA        -0.5750   50.6310   84.3640 C.3   144  MET144      0.1570
    117  C         -2.0520   50.9310   84.1450 C.2   144  MET144      0.2261
    118  O         -2.8770   50.0180   84.1580 O.2   144  MET144     -0.2867
    119  CB         0.1380   50.5210   83.0440 C.3   144  MET144      0.0387
    120  CG        -0.5310   49.6020   82.0200 C.3   144  MET144      0.0595
    121  SD        -0.2360   47.8680   82.3670 S.3   144  MET144     -0.1393
    122  CE        -0.7640   47.0900   80.8550 C.3   144  MET144      0.0692
    123  N        -10.5340   49.5610   74.3680 N.3   165  ARG165     -0.1245
    124  CA        -9.4330   48.8420   73.7430 C.3   165  ARG165      0.1563
    125  C         -8.2300   49.7880   73.5560 C.2   165  ARG165      0.2260
    126  O         -7.0630   49.3650   73.6930 O.2   165  ARG165     -0.2867
    127  CB        -9.8590   48.3030   72.3640 C.3   165  ARG165      0.0307
    128  CG       -10.4750   46.9190   72.3770 C.3   165  ARG165      0.0489
    129  CD       -10.4960   46.3230   70.9790 C.3   165  ARG165      0.2205
    130  NE       -10.9790   44.9320   70.9470 N.pl3 165  ARG165     -0.0865
    131  CZ       -12.2150   44.5880   70.6010 C.cat 165  ARG165      0.5346
    132  NH1      -13.1060   45.5350   70.3550 N.pl3 165  ARG165      0.1354
    133  NH2      -12.5980   43.3150   70.5680 N.pl3 165  ARG165      0.1354
    134  N         -6.5550   50.9500   76.8220 N.3   168  GLU168     -0.1245
    135  CA        -5.7560   49.8860   77.3740 C.3   168  GLU168      0.1567
    136  C         -4.4780   49.6620   76.5840 C.2   168  GLU168      0.2260
    137  O         -3.4080   49.6290   77.1560 O.2   168  GLU168     -0.2867
    138  CB        -6.5760   48.5930   77.4970 C.3   168  GLU168      0.0388
    139  CG        -7.6150   48.6510   78.6200 C.3   168  GLU168      0.1160
    140  CD        -8.8070   47.6740   78.4530 C.2   168  GLU168      0.3649
    141  OE1       -8.8340   46.8270   77.5260 O.co2 168  GLU168     -0.2457
    142  OE2       -9.7360   47.7510   79.2700 O.co2 168  GLU168     -0.2457
    143  N         -0.6240   50.4690   77.8450 N.3   172  LEU172     -0.1245
    144  CA         0.3920   49.4260   77.8050 C.3   172  LEU172      0.1561
    145  C          1.6010   49.8340   76.9790 C.2   172  LEU172      0.2260
    146  O          2.7410   49.6910   77.4160 O.2   172  LEU172     -0.2867
    147  CB        -0.2060   48.1230   77.2610 C.3   172  LEU172      0.0270
    148  CG         0.7030   46.8970   77.3550 C.3   172  LEU172      0.0019
    149  CD1       -0.1220   45.6140   77.3460 C.3   172  LEU172      0.0001
    150  CD2        1.7000   46.9000   76.2040 C.3   172  LEU172      0.0001
    151  N          1.8460   44.4250   67.7630 N.3   187  CYS187     -0.1221
    152  CA         0.6420   43.9810   68.4270 C.3   187  CYS187      0.1808
    153  C         -0.5330   43.8620   67.4660 C.2   187  CYS187      0.2601
    154  O         -0.7480   44.7330   66.6140 O.2   187  CYS187     -0.2717
    155  CB         0.2620   44.9440   69.5340 C.3   187  CYS187      0.0970
    156  SG        -1.4300   44.6600   70.1780 S.3   187  CYS187     -0.0800
    157  N         -1.2820   42.7700   67.5800 N.am  188  TRP188     -0.1962
    158  CA        -2.6910   42.7870   67.1480 C.3   188  TRP188      0.1771
    159  C         -3.5140   41.8300   67.9830 C.2   188  TRP188      0.2620
    160  O         -2.9820   41.0840   68.8010 O.2   188  TRP188     -0.2715
    161  CB        -2.8250   42.5500   65.6250 C.3   188  TRP188      0.0590
    162  CG        -2.3830   41.1840   65.1360 C.ar  188  TRP188      0.0006
    163  CD1       -3.1630   40.0680   64.9950 C.ar  188  TRP188      0.0946
    164  CD2       -1.0830   40.8200   64.6590 C.ar  188  TRP188      0.0152
    165  NE1       -2.3840   39.0020   64.5890 N.ar  188  TRP188     -0.2442
    166  CE2       -1.1400   39.4650   64.2710 C.ar  188  TRP188      0.0810
    167  CE3        0.1240   41.5140   64.5080 C.ar  188  TRP188      0.0012
    168  CZ2       -0.0140   38.7700   63.8240 C.ar  188  TRP188      0.0191
    169  CZ3        1.2100   40.8460   64.0080 C.ar  188  TRP188      0.0001
    170  CH2        1.1430   39.4900   63.6740 C.ar  188  TRP188      0.0015
    171  N         -4.8310   41.9990   67.9050 N.am  189  SER189     -0.1936
    172  CA        -5.7340   41.4100   68.8390 C.3   189  SER189      0.2055
    173  C         -5.8750   39.9220   68.5880 C.2   189  SER189      0.2643
    174  O         -5.9050   39.4820   67.4410 O.2   189  SER189     -0.2714
    175  CB        -7.1420   42.0710   68.7120 C.3   189  SER189      0.2130
    176  OG        -7.9510   41.6280   69.7900 O.3   189  SER189     -0.2179
    177  N         -6.1340   39.1670   69.6430 N.am  190  ASP190     -0.1957
    178  CA        -6.6150   37.7920   69.4950 C.3   190  ASP190      0.1840
    179  C         -8.1740   37.7350   69.5390 C.2   190  ASP190      0.2622
    180  O         -8.7400   36.6500   69.5100 O.2   190  ASP190     -0.2715
    181  CB        -6.0360   36.8780   70.5770 C.3   190  ASP190      0.1450
    182  CG        -6.3030   37.4070   72.0070 C.2   190  ASP190      0.3671
    183  OD1       -6.6680   38.6000   72.1450 O.co2 190  ASP190     -0.2456
    184  OD2       -6.1510   36.6340   72.9860 O.co2 190  ASP190     -0.2456
    185  N         -8.8410   38.8730   69.4490 N.am  191  ASP191     -0.1971
    186  CA       -10.3320   38.8720   69.3290 C.3   191  ASP191      0.1709
    187  C        -10.7810   38.6300   67.8640 C.2   191  ASP191      0.2293
    188  O        -10.2730   39.2690   66.9480 O.2   191  ASP191     -0.2864
    189  CB       -10.8990   40.2110   69.7730 C.3   191  ASP191      0.1436
    190  CG       -10.5690   40.5710   71.2300 C.2   191  ASP191      0.3671
    191  OD1       -9.9400   39.7860   71.9870 O.co2 191  ASP191     -0.2456
    192  OD2      -10.8750   41.7260   71.5960 O.co2 191  ASP191     -0.2456
    193  N         -3.7150   36.3770   67.7860 N.3   220  GLY220     -0.1210
    194  CA        -3.2360   37.7210   68.0640 C.3   220  GLY220      0.1956
    195  C         -1.7190   37.6930   68.1310 C.2   220  GLY220      0.2612
    196  O         -1.1060   36.6710   67.8560 O.2   220  GLY220     -0.2717
    197  N         -1.1180   38.8010   68.5470 N.am  221  CYS221     -0.1956
    198  CA         0.3420   38.8770   68.6710 C.3   221  CYS221      0.1843
    199  C          0.6910   40.0420   69.5810 C.2   221  CYS221      0.2625
    200  O          0.0590   41.1100   69.5350 O.2   221  CYS221     -0.2714
    201  CB         0.9740   39.0740   67.2990 C.3   221  CYS221      0.0997
    202  SG         2.7100   39.6060   67.2580 S.3   221  CYS221     -0.0797
    203  N          1.6350   39.7910   70.4730 N.am  222  ARG222     -0.1977
    204  CA         2.2250   40.8160   71.2710 C.3   222  ARG222      0.1597
    205  C          3.7140   40.4360   71.4060 C.2   222  ARG222      0.2287
    206  O          4.0580   39.5460   72.1650 O.2   222  ARG222     -0.2864
    207  CB         1.5450   40.8670   72.6400 C.3   222  ARG222      0.0334
    208  CG         1.5830   42.2220   73.3240 C.3   222  ARG222      0.0492
    209  CD         0.6890   43.1620   72.5780 C.3   222  ARG222      0.2205
    210  NE         0.3200   44.3960   73.2670 N.pl3 222  ARG222     -0.0865
    211  CZ        -0.9170   44.7040   73.6350 C.cat 222  ARG222      0.5346
    212  NH1       -1.8560   43.7540   73.7330 N.pl3 222  ARG222      0.1354
    213  NH2       -1.2250   45.9590   73.8760 N.pl3 222  ARG222      0.1354
    214  N          7.7110   42.1500   72.0160 N.3   224  PHE224     -0.1241
    215  CA         8.5440   43.2800   72.3610 C.3   224  PHE224      0.1605
    216  C          9.9460   42.9750   71.8560 C.2   224  PHE224      0.2264
    217  O         10.5530   42.0160   72.2980 O.2   224  PHE224     -0.2867
    218  CB         8.6290   43.4760   73.8910 C.3   224  PHE224      0.0534
    219  CG         7.3060   43.6920   74.5720 C.ar  224  PHE224     -0.0203
    220  CD1        6.2190   44.1830   73.8710 C.ar  224  PHE224     -0.0042
    221  CD2        7.1830   43.5110   75.9310 C.ar  224  PHE224     -0.0042
    222  CE1        4.9950   44.3480   74.5030 C.ar  224  PHE224     -0.0003
    223  CE2        5.9670   43.7290   76.5800 C.ar  224  PHE224     -0.0003
    224  CZ         4.8660   44.1420   75.8470 C.ar  224  PHE224     -0.0000
@<TRIPOS>BOND
     1   170   168   ar
     2   170   169   ar
     3   168   166   ar
     4   169   167   ar
     5   166   165   ar
     6   166   164   ar
     7   167   164   ar
     8   165   163   ar
     9   164   162   ar
    10   163   162   ar
    11   162   161    1
    12   161   158    1
    13   154   153    2
    14    62    61    1
    15   188   187    2
    16   158   157    1
    17   158   159    1
    18   202   201    1
    19   201   198    1
    20   174   173    2
    21   153   157   am
    22   153   152    1
    23   151   152    1
    24   193   194    1
    25   196   195    2
    26   187   186    1
    27   171   159   am
    28   171   172    1
    29   159   160    2
    30   194   195    1
    31   195   197   am
    32    61    58    1
    33   152   155    1
    34   197   198    1
    35   173   172    1
    36   173   177   am
    37   198   199    1
    38   175   172    1
    39   175   176    1
    40    57    58    1
    41    58    59    1
    42   186   185    1
    43   186   189    1
    44   185   179   am
    45   178   179    1
    46   178   177    1
    47   178   181    1
    48   180   179    2
    49   155   156    1
    50   200   199    2
    51   199   203   am
    52   189   190    1
    53   132   131    1
    54   203   204    1
    55    59    60    2
    56   133   131    1
    57   181   182    1
    58   131   130    2
    59   130   129    1
    60   129   128    1
    61   190   192   ar
    62   190   191   ar
    63   204   205    1
    64   204   207    1
    65   205   206    2
    66   216   217    2
    67   216   215    1
    68   182   183   ar
    69   182   184   ar
    70   214   215    1
    71   215   218    1
    72   127   128    1
    73   127   124    1
    74   209   210    1
    75   209   208    1
    76   207   208    1
    77   210   211    2
    78    63    64    1
    79   125   126    2
    80   125   124    1
    81   211   212    1
    82   211   213    1
    83   124   123    1
    84    69    67    1
    85   220   222   ar
    86   220   219   ar
    87   218   219    1
    88    55    53   ar
    89    55    56   ar
    90    67    64    1
    91    67    68    1
    92    53    52   ar
    93    49    50    2
    94    49    48    1
    95    66    65    2
    96   222   224   ar
    97   219   221   ar
    98    64    65    1
    99    56    54   ar
   100    65    70   am
   101    84    83    2
   102    87    86    1
   103    87    88    2
   104    86    89    1
   105    86    85    1
   106    52    54   ar
   107    52    51    1
   108    48    51    1
   109    48    47    1
   110     4     3    2
   111   224   223   ar
   112   221   223   ar
   113   150   148    1
   114    14    13    2
   115    18    16    1
   116    83    85   am
   117    83    82    1
   118    70    71    1
   119     8     6   ar
   120     8    10   ar
   121   136   137    2
   122   136   135    1
   123   134   135    1
   124     3     2    1
   125     3    11   am
   126   145   146    2
   127   145   144    1
   128     1     2    1
   129     5     6    1
   130     5     2    1
   131    12    13    1
   132    12    11    1
   133    12    15    1
   134    71    72    1
   135    71    74    1
   136    13    19   am
   137   147   148    1
   138   147   144    1
   139    79    78    1
   140   149   148    1
   141   135   138    1
   142     6     7   ar
   143    10     9   ar
   144    17    15    1
   145    81    72   am
   146    81    82    1
   147    72    73    2
   148   138   139    1
   149   141   140   ar
   150    16    15    1
   151   144   143    1
   152    75    74    1
   153    75    76    1
   154    78    80    1
   155    78    77    2
   156    46    45    1
   157    19    20    1
   158   140   139    1
   159   140   142   ar
   160     9     7   ar
   161    20    23    1
   162    20    21    1
   163   106   105    1
   164    41    40    2
   165    23    24    1
   166    93    92    2
   167    90    91    1
   168    77    76    1
   169   114   112    1
   170    45    44    1
   171    25    21   am
   172    25    26    1
   173   107   105    1
   174   105   104    2
   175    94    96    1
   176    94    91    1
   177    94    95    1
   178    21    22    2
   179    43    44    1
   180    43    42    1
   181    28    27    2
   182    40    39    1
   183    91    92    1
   184    92    97   am
   185    39    42    1
   186    39    38    1
   187   112   113    1
   188   112   109    1
   189   104   103    1
   190   122   121    1
   191   103   102    1
   192    26    27    1
   193    37    35   ar
   194   108   109    1
   195   108    99   am
   196    97    98    1
   197    98    99    1
   198    98   101    1
   199   109   110    1
   200   120   121    1
   201   120   119    1
   202    99   100    2
   203   102   101    1
   204    35    36   ar
   205    35    34    1
   206   111   110    2
   207    34    33    1
   208   119   116    1
   209    29    30    1
   210    32    31    2
   211   117   118    2
   212   117   116    1
   213   116   115    1
   214    33    30    1
   215    30    31    1
