@<TRIPOS>MOLECULE
tmp/5fljL00.pdb
 224 218 0 0 0
SMALL
GASTEIGER

@<TRIPOS>ATOM
      1  N        123.3860   -3.9470   71.2260 N.3    34  LEU34      -0.1231
      2  CA       124.4730   -4.3920   72.0860 C.3    34  LEU34       0.1693
      3  C        125.2770   -3.1610   72.4420 C.2    34  LEU34       0.2592
      4  O        125.9070   -2.5340   71.5720 O.2    34  LEU34      -0.2718
      5  CB       125.3370   -5.4520   71.3980 C.3    34  LEU34       0.0284
      6  CG       126.4910   -6.0600   72.1870 C.3    34  LEU34       0.0019
      7  CD1      126.0230   -6.5610   73.5750 C.3    34  LEU34       0.0001
      8  CD2      127.1400   -7.2000   71.4170 C.3    34  LEU34       0.0001
      9  N        125.2270   -2.8050   73.7220 N.am   35  PHE35      -0.1976
     10  CA       125.6980   -1.5010   74.1690 C.3    35  PHE35       0.1639
     11  C        125.0080   -0.4340   73.3250 C.2    35  PHE35       0.2290
     12  O        123.7890   -0.4540   73.1850 O.2    35  PHE35      -0.2864
     13  CB       127.2240   -1.4070   74.0840 C.3    35  PHE35       0.0560
     14  CG       127.9390   -2.4410   74.9180 C.ar   35  PHE35      -0.0200
     15  CD1      127.7960   -2.4560   76.2960 C.ar   35  PHE35      -0.0042
     16  CD2      128.7510   -3.3960   74.3250 C.ar   35  PHE35      -0.0042
     17  CE1      128.4480   -3.4070   77.0670 C.ar   35  PHE35      -0.0003
     18  CE2      129.4070   -4.3470   75.0940 C.ar   35  PHE35      -0.0003
     19  CZ       129.2520   -4.3490   76.4650 C.ar   35  PHE35      -0.0000
     20  N        125.4220   -0.0250   70.0730 N.3    37  ASP37      -0.1239
     21  CA       125.4170   -0.4110   68.6590 C.3    37  ASP37       0.1674
     22  C        124.1240   -1.1020   68.2180 C.2    37  ASP37       0.2266
     23  O        123.4800   -1.8000   68.9980 O.2    37  ASP37      -0.2867
     24  CB       126.6120   -1.3180   68.3470 C.3    37  ASP37       0.1410
     25  CG       127.9410   -0.5870   68.4390 C.2    37  ASP37       0.3668
     26  OD1      127.9430    0.6610   68.3520 O.co2  37  ASP37      -0.2456
     27  OD2      128.9850   -1.2520   68.5960 O.co2  37  ASP37      -0.2456
     28  N        122.8650   -3.8600   65.4550 N.3    39  ILE39      -0.1245
     29  CA       123.2670   -4.9000   64.5190 C.3    39  ILE39       0.1561
     30  C        122.0350   -5.2850   63.7080 C.2    39  ILE39       0.2260
     31  O        120.9490   -5.4740   64.2540 O.2    39  ILE39      -0.2867
     32  CB       123.8590   -6.1230   65.2330 C.3    39  ILE39       0.0252
     33  CG1      125.1910   -5.7460   65.8970 C.3    39  ILE39       0.0019
     34  CG2      124.1170   -7.2780   64.2460 C.3    39  ILE39       0.0019
     35  CD1      125.0430   -5.1430   67.2890 C.3    39  ILE39       0.0001
     36  N        125.6470   -9.1070   57.7030 N.3    55  PHE55      -0.1241
     37  CA       125.0340   -8.1640   58.6360 C.3    55  PHE55       0.1605
     38  C        125.7470   -6.8180   58.6600 C.2    55  PHE55       0.2264
     39  O        126.8460   -6.6690   58.1190 O.2    55  PHE55      -0.2867
     40  CB       124.9890   -8.8030   60.0400 C.3    55  PHE55       0.0534
     41  CG       126.3550   -9.1600   60.6000 C.ar   55  PHE55      -0.0203
     42  CD1      126.9280  -10.4040   60.3500 C.ar   55  PHE55      -0.0042
     43  CD2      127.0750   -8.2340   61.3480 C.ar   55  PHE55      -0.0042
     44  CE1      128.1760  -10.7320   60.8630 C.ar   55  PHE55      -0.0003
     45  CE2      128.3280   -8.5480   61.8590 C.ar   55  PHE55      -0.0003
     46  CZ       128.8770   -9.8030   61.6210 C.ar   55  PHE55      -0.0000
     47  N        126.6630   -3.3840   61.3320 N.3    57  CYS57      -0.1235
     48  CA       126.8210   -2.9460   62.6950 C.3    57  CYS57       0.1677
     49  C        127.0400   -1.4460   62.6640 C.2    57  CYS57       0.2270
     50  O        127.9550   -0.9790   61.9880 O.2    57  CYS57      -0.2867
     51  CB       127.9890   -3.6660   63.3520 C.3    57  CYS57       0.0956
     52  SG       128.3220   -3.1190   65.0160 S.3    57  CYS57      -0.0801
     53  N        135.5080   -1.6270   71.7720 N.3    65  ILE65      -0.1231
     54  CA       134.6830   -2.7250   72.2950 C.3    65  ILE65       0.1678
     55  C        135.5480   -3.7230   73.0700 C.2    65  ILE65       0.2434
     56  O        136.7740   -3.6320   73.0220 O.2    65  ILE65      -0.2733
     57  CB       133.9310   -3.4720   71.1670 C.3    65  ILE65       0.0265
     58  CG1      134.9210   -4.0750   70.1770 C.3    65  ILE65       0.0019
     59  CG2      132.9510   -2.5440   70.4690 C.3    65  ILE65       0.0020
     60  CD1      134.4220   -5.3370   69.5470 C.3    65  ILE65       0.0001
     61  N        134.9140   -4.6640   73.8100 N.am   66  PRO66      -0.2729
     62  CA       135.6980   -5.7060   74.4850 C.3    66  PRO66       0.1401
     63  C        136.5720   -6.5360   73.5430 C.2    66  PRO66       0.2269
     64  O        136.0610   -7.1260   72.5900 O.2    66  PRO66      -0.2865
     65  CB       134.6210   -6.5920   75.1230 C.3    66  PRO66       0.0296
     66  CG       133.4800   -5.6760   75.3710 C.3    66  PRO66       0.0237
     67  CD       133.4970   -4.6840   74.2330 C.3    66  PRO66       0.0939
     68  N        138.4180   -9.6210   72.0660 N.3    68  HIS68      -0.1241
     69  CA       137.9240  -10.9930   72.0440 C.3    68  HIS68       0.1621
     70  C        138.5340  -11.7580   70.8730 C.2    68  HIS68       0.2264
     71  O        139.1830  -11.1730   69.9980 O.2    68  HIS68      -0.2867
     72  CB       136.3950  -11.0110   71.9360 C.3    68  HIS68       0.0745
     73  CG       135.8910  -10.4440   70.6430 C.ar   68  HIS68       0.0817
     74  ND1      135.5890   -9.1100   70.4870 N.ar   68  HIS68      -0.2268
     75  CD2      135.6730  -11.0230   69.4380 C.ar   68  HIS68       0.1154
     76  CE1      135.2020   -8.8910   69.2430 C.ar   68  HIS68       0.1986
     77  NE2      135.2450  -10.0350   68.5830 N.ar   68  HIS68      -0.2212
     78  N        137.7320  -15.4730   68.2210 N.3    70  HIS70      -0.1241
     79  CA       136.8530  -16.5430   67.7860 C.3    70  HIS70       0.1621
     80  C        137.7030  -17.7390   67.3690 C.2    70  HIS70       0.2264
     81  O        138.5910  -17.6040   66.5310 O.2    70  HIS70      -0.2867
     82  CB       135.9890  -16.0840   66.6300 C.3    70  HIS70       0.0745
     83  CG       135.3950  -14.7300   66.8420 C.ar   70  HIS70       0.0817
     84  ND1      134.4100  -14.4920   67.7790 N.ar   70  HIS70      -0.2268
     85  CD2      135.6650  -13.5340   66.2650 C.ar   70  HIS70       0.1154
     86  CE1      134.0810  -13.2100   67.7480 C.ar   70  HIS70       0.1986
     87  NE2      134.8390  -12.6080   66.8510 N.ar   70  HIS70      -0.2212
     88  N        136.3100  -13.1910   60.3210 N.3    75  GLU75      -0.1231
     89  CA       135.4580  -12.0060   60.3280 C.3    75  GLU75       0.1699
     90  C        135.9630  -10.9240   59.3790 C.2    75  GLU75       0.2592
     91  O        137.1440  -10.6110   59.3450 O.2    75  GLU75      -0.2718
     92  CB       135.3220  -11.4280   61.7520 C.3    75  GLU75       0.0402
     93  CG       134.6120  -12.3900   62.7200 C.3    75  GLU75       0.1161
     94  CD       134.1160  -11.7670   64.0360 C.2    75  GLU75       0.3649
     95  OE1      134.7880  -10.8850   64.6270 O.co2  75  GLU75      -0.2457
     96  OE2      133.0420  -12.2190   64.5000 O.co2  75  GLU75      -0.2457
     97  N        135.0130  -10.3650   58.6360 N.am   76  VAL76      -0.1966
     98  CA       135.2120   -9.2440   57.7310 C.3    76  VAL76       0.1727
     99  C        134.7380   -7.9580   58.4020 C.2    76  VAL76       0.2616
    100  O        133.7320   -7.9630   59.1070 O.2    76  VAL76      -0.2715
    101  CB       134.4230   -9.4660   56.4310 C.3    76  VAL76       0.0290
    102  CG1      134.1410   -8.1360   55.7200 C.3    76  VAL76       0.0023
    103  CG2      135.1650  -10.4460   55.5330 C.3    76  VAL76       0.0023
    104  N        135.4890   -6.8760   58.2110 N.am   77  PHE77      -0.1974
    105  CA       135.0400   -5.5380   58.5370 C.3    77  PHE77       0.1639
    106  C        135.1220   -4.7280   57.2670 C.2    77  PHE77       0.2290
    107  O        136.2190   -4.4890   56.7780 O.2    77  PHE77      -0.2864
    108  CB       135.9110   -4.8960   59.6150 C.3    77  PHE77       0.0560
    109  CG       135.7410   -5.4980   60.9760 C.ar   77  PHE77      -0.0200
    110  CD1      136.2640   -6.7430   61.2700 C.ar   77  PHE77      -0.0042
    111  CD2      135.0720   -4.7940   61.9730 C.ar   77  PHE77      -0.0042
    112  CE1      136.1090   -7.2860   62.5310 C.ar   77  PHE77      -0.0003
    113  CE2      134.9240   -5.3250   63.2230 C.ar   77  PHE77      -0.0003
    114  CZ       135.4360   -6.5720   63.5080 C.ar   77  PHE77      -0.0000
    115  N        140.9790   -9.3230   68.6850 N.3   114  HIS114     -0.1241
    116  CA       140.6600   -8.0970   67.9660 C.3   114  HIS114      0.1621
    117  C        139.6460   -7.2320   68.7140 C.2   114  HIS114      0.2264
    118  O        138.9870   -7.6840   69.6600 O.2   114  HIS114     -0.2867
    119  CB       140.1400   -8.4370   66.5700 C.3   114  HIS114      0.0745
    120  CG       138.9420   -9.3380   66.5710 C.ar  114  HIS114      0.0817
    121  ND1      139.0140  -10.6810   66.8820 N.ar  114  HIS114     -0.2268
    122  CD2      137.6450   -9.0870   66.2790 C.ar  114  HIS114      0.1154
    123  CE1      137.8080  -11.2160   66.7810 C.ar  114  HIS114      0.1986
    124  NE2      136.9550  -10.2650   66.4360 N.ar  114  HIS114     -0.2212
    125  N        137.3350   -3.1130   67.9840 N.3   116  TYR116     -0.1241
    126  CA       137.1970   -1.9350   67.1210 C.3   116  TYR116      0.1605
    127  C        136.6670   -0.7550   67.9210 C.2   116  TYR116      0.2264
    128  O        136.1300   -0.9180   69.0130 O.2   116  TYR116     -0.2867
    129  CB       136.2820   -2.2240   65.9170 C.3   116  TYR116      0.0534
    130  CG       134.8370   -2.4900   66.2800 C.ar  116  TYR116     -0.0201
    131  CD1      133.9520   -1.4420   66.5120 C.ar  116  TYR116     -0.0009
    132  CD2      134.3560   -3.7970   66.3940 C.ar  116  TYR116     -0.0009
    133  CE1      132.6270   -1.6820   66.8620 C.ar  116  TYR116      0.0417
    134  CE2      133.0390   -4.0460   66.7260 C.ar  116  TYR116      0.0417
    135  CZ       132.1740   -2.9860   66.9630 C.ar  116  TYR116      0.1957
    136  OH       130.8570   -3.2280   67.3110 O.3   116  TYR116     -0.2866
    137  N        129.5530   -0.5990   59.6650 N.3   125  VAL125     -0.1245
    138  CA       130.4280   -1.6660   59.2170 C.3   125  VAL125      0.1561
    139  C        129.5850   -2.7810   58.6150 C.2   125  VAL125      0.2260
    140  O        128.6040   -3.1950   59.2060 O.2   125  VAL125     -0.2867
    141  CB       131.2630   -2.2530   60.3840 C.3   125  VAL125      0.0252
    142  CG1      132.1990   -3.3680   59.8790 C.3   125  VAL125      0.0019
    143  CG2      132.0480   -1.1640   61.0850 C.3   125  VAL125      0.0019
    144  N        129.5650   -6.6870   57.9230 N.3   127  GLY127     -0.1210
    145  CA       130.2350   -7.8650   58.4450 C.3   127  GLY127      0.1956
    146  C        129.8220   -9.1980   57.8290 C.2   127  GLY127      0.2611
    147  O        128.6830   -9.4040   57.3930 O.2   127  GLY127     -0.2717
    148  N        130.7970  -10.0960   57.7610 N.am  128  VAL128     -0.1979
    149  CA       130.5590  -11.5300   57.6080 C.3   128  VAL128      0.1595
    150  C        131.3450  -12.1880   58.7210 C.2   128  VAL128      0.2287
    151  O        132.4930  -11.8210   58.9640 O.2   128  VAL128     -0.2864
    152  CB       131.0260  -12.0620   56.2360 C.3   128  VAL128      0.0276
    153  CG1      130.5510  -13.5120   56.0330 C.3   128  VAL128      0.0022
    154  CG2      130.5260  -11.1500   55.1220 C.3   128  VAL128      0.0022
    155  N        127.7000  -16.8810   62.8860 N.3   136  PHE136     -0.1241
    156  CA       127.8610  -16.2380   64.1830 C.3   136  PHE136      0.1605
    157  C        126.7550  -15.2380   64.5250 C.2   136  PHE136      0.2264
    158  O        126.6880  -14.7510   65.6510 O.2   136  PHE136     -0.2867
    159  CB       129.2320  -15.5430   64.1940 C.3   136  PHE136      0.0534
    160  CG       129.6050  -14.9020   65.5050 C.ar  136  PHE136     -0.0203
    161  CD1      129.8770  -15.6790   66.6230 C.ar  136  PHE136     -0.0042
    162  CD2      129.7520  -13.5270   65.5960 C.ar  136  PHE136     -0.0042
    163  CE1      130.2470  -15.0880   67.8150 C.ar  136  PHE136     -0.0003
    164  CE2      130.1220  -12.9290   66.7820 C.ar  136  PHE136     -0.0003
    165  CZ       130.3740  -13.7140   67.8950 C.ar  136  PHE136     -0.0000
    166  N        124.6560  -14.2340   67.8230 N.3   139  PHE139     -0.1227
    167  CA       125.3940  -13.8530   69.0290 C.3   139  PHE139      0.1736
    168  C        124.9610  -12.4830   69.5820 C.2   139  PHE139      0.2595
    169  O        124.8330  -12.3000   70.7940 O.2   139  PHE139     -0.2718
    170  CB       126.9000  -13.8420   68.7400 C.3   139  PHE139      0.0547
    171  CG       127.6840  -12.8920   69.6080 C.ar  139  PHE139     -0.0202
    172  CD1      128.1250  -13.2790   70.8680 C.ar  139  PHE139     -0.0042
    173  CD2      127.9910  -11.6150   69.1580 C.ar  139  PHE139     -0.0042
    174  CE1      128.8460  -12.3970   71.6690 C.ar  139  PHE139     -0.0003
    175  CE2      128.7200  -10.7320   69.9440 C.ar  139  PHE139     -0.0003
    176  CZ       129.1500  -11.1180   71.2000 C.ar  139  PHE139     -0.0000
    177  N        124.7470  -11.5270   68.6940 N.am  140  PHE140     -0.1976
    178  CA       124.5140  -10.1470   69.1090 C.3   140  PHE140      0.1639
    179  C        123.2070  -10.0040   69.8830 C.2   140  PHE140      0.2290
    180  O        123.1560   -9.2990   70.8900 O.2   140  PHE140     -0.2864
    181  CB       124.5210   -9.2140   67.8970 C.3   140  PHE140      0.0560
    182  CG       125.7970   -9.2890   67.0920 C.ar  140  PHE140     -0.0200
    183  CD1      126.9230   -8.5850   67.4910 C.ar  140  PHE140     -0.0042
    184  CD2      125.8700  -10.0740   65.9540 C.ar  140  PHE140     -0.0042
    185  CE1      128.1140   -8.6560   66.7590 C.ar  140  PHE140     -0.0003
    186  CE2      127.0520  -10.1510   65.2110 C.ar  140  PHE140     -0.0003
    187  CZ       128.1800   -9.4540   65.6200 C.ar  140  PHE140     -0.0000
    188  N        123.7240  -12.0730   73.4800 N.3   143  LEU143     -0.1245
    189  CA       124.4280  -11.2970   74.4900 C.3   143  LEU143      0.1561
    190  C        123.6670  -10.0040   74.7860 C.2   143  LEU143      0.2260
    191  O        123.4140   -9.6620   75.9430 O.2   143  LEU143     -0.2867
    192  CB       125.8460  -10.9700   74.0300 C.3   143  LEU143      0.0270
    193  CG       126.6660  -10.0630   74.9470 C.3   143  LEU143      0.0019
    194  CD1      126.8770  -10.7110   76.3190 C.3   143  LEU143      0.0001
    195  CD2      127.9950   -9.7300   74.2810 C.3   143  LEU143      0.0001
    196  N        127.8040  -12.6560   79.9550 N.3   164  PHE164     -0.1241
    197  CA       129.1700  -12.7150   79.4470 C.3   164  PHE164      0.1605
    198  C        129.8090  -14.0710   79.7270 C.2   164  PHE164      0.2264
    199  O        130.7640  -14.4670   79.0580 O.2   164  PHE164     -0.2867
    200  CB       130.0220  -11.6040   80.0540 C.3   164  PHE164      0.0534
    201  CG       129.7620  -10.2570   79.4550 C.ar  164  PHE164     -0.0203
    202  CD1      130.3260   -9.9090   78.2410 C.ar  164  PHE164     -0.0042
    203  CD2      128.9510   -9.3390   80.1030 C.ar  164  PHE164     -0.0042
    204  CE1      130.0870   -8.6700   77.6820 C.ar  164  PHE164     -0.0003
    205  CE2      128.7100   -8.0960   79.5460 C.ar  164  PHE164     -0.0003
    206  CZ       129.2790   -7.7640   78.3370 C.ar  164  PHE164     -0.0000
    207  N        132.9930  -17.3610   70.7350 N.3   173  VAL173     -0.1245
    208  CA       133.5670  -16.0940   71.1580 C.3   173  VAL173      0.1561
    209  C        134.2300  -16.2730   72.5190 C.2   173  VAL173      0.2260
    210  O        133.7020  -16.9570   73.3990 O.2   173  VAL173     -0.2867
    211  CB       132.4910  -14.9830   71.1950 C.3   173  VAL173      0.0252
    212  CG1      131.2790  -15.4360   72.0130 C.3   173  VAL173      0.0019
    213  CG2      133.0600  -13.6650   71.7190 C.3   173  VAL173      0.0019
    214  N        136.2800  -13.8330   75.4060 N.3   175  PHE175     -0.1241
    215  CA       136.6360  -12.4620   75.7480 C.3   175  PHE175      0.1605
    216  C        138.0050  -12.3850   76.4010 C.2   175  PHE175      0.2264
    217  O        138.4480  -13.3300   77.0470 O.2   175  PHE175     -0.2867
    218  CB       135.5710  -11.8520   76.6590 C.3   175  PHE175      0.0534
    219  CG       134.2280  -11.7490   76.0080 C.ar  175  PHE175     -0.0203
    220  CD1      133.9660  -10.7420   75.0950 C.ar  175  PHE175     -0.0042
    221  CD2      133.2350  -12.6730   76.2840 C.ar  175  PHE175     -0.0042
    222  CE1      132.7320  -10.6490   74.4770 C.ar  175  PHE175     -0.0003
    223  CE2      131.9980  -12.5840   75.6720 C.ar  175  PHE175     -0.0003
    224  CZ       131.7510  -11.5720   74.7640 C.ar  175  PHE175     -0.0000
@<TRIPOS>BOND
     1   154   152    1
     2   103   101    1
     3   102   101    1
     4   153   152    1
     5   152   149    1
     6   101    98    1
     7   107   106    2
     8   106   105    1
     9   147   146    2
    10   149   148    1
    11   149   150    1
    12    36    37    1
    13    98    99    1
    14    98    97    1
    15   148   146   am
    16   146   145    1
    17   144   145    1
    18    39    38    2
    19   104    99   am
    20   104   105    1
    21    99   100    2
    22   105   108    1
    23   139   140    2
    24   139   138    1
    25    97    90   am
    26    37    38    1
    27    37    40    1
    28   150   151    2
    29   138   137    1
    30   138   141    1
    31    91    90    2
    32    90    89    1
    33   108   109    1
    34   142   141    1
    35    40    41    1
    36    88    89    1
    37    89    92    1
    38    42    41   ar
    39    42    44   ar
    40   141   143    1
    41    41    43   ar
    42    44    46   ar
    43   109   110   ar
    44   109   111   ar
    45   110   112   ar
    46    47    48    1
    47    43    45   ar
    48    46    45   ar
    49    92    93    1
    50   111   113   ar
    51    50    49    2
    52   112   114   ar
    53    49    48    1
    54    48    51    1
    55    93    94    1
    56   155   156    1
    57   113   114   ar
    58    51    52    1
    59    30    31    2
    60    30    29    1
    61    94    96   ar
    62    94    95   ar
    63   156   159    1
    64   156   157    1
    65   159   160    1
    66    34    32    1
    67    29    32    1
    68    29    28    1
    69   157   158    2
    70   186   187   ar
    71   186   184   ar
    72    32    33    1
    73   160   162   ar
    74   160   161   ar
    75   162   164   ar
    76   187   185   ar
    77    33    35    1
    78   129   130    1
    79   129   126    1
    80   184   182   ar
    81    85    83   ar
    82    85    87   ar
    83   122   124   ar
    84   122   120   ar
    85   130   132   ar
    86   130   131   ar
    87   132   134   ar
    88   124   123   ar
    89   131   133   ar
    90    81    80    2
    91   119   120    1
    92   119   116    1
    93   120   121   ar
    94   161   163   ar
    95    82    83    1
    96    82    79    1
    97   134   135   ar
    98   185   183   ar
    99   123   121   ar
   100   164   165   ar
   101    83    84   ar
   102    87    86   ar
   103   133   135   ar
   104   135   136    1
   105   182   183   ar
   106   182   181    1
   107   126   127    1
   108   126   125    1
   109    80    79    1
   110    86    84   ar
   111    79    78    1
   112   163   165   ar
   113   166   167    1
   114   181   178    1
   115   127   128    2
   116   116   115    1
   117   116   117    1
   118    22    21    1
   119    22    23    2
   120    24    25    1
   121    24    21    1
   122    26    25   ar
   123    25    27   ar
   124    77    76   ar
   125    77    75   ar
   126    21    20    1
   127   177   178    1
   128   177   168   am
   129   117   118    2
   130   170   167    1
   131   170   171    1
   132   167   168    1
   133   178   179    1
   134   173   171   ar
   135   173   175   ar
   136    76    74   ar
   137    75    73   ar
   138    60    58    1
   139   168   169    2
   140   171   172   ar
   141   179   180    2
   142   175   176   ar
   143    71    70    2
   144    58    57    1
   145    59    57    1
   146    74    73   ar
   147    73    72    1
   148   207   208    1
   149   172   174   ar
   150    70    69    1
   151   208   211    1
   152   208   209    1
   153    57    54    1
   154   211   213    1
   155   211   212    1
   156   176   174   ar
   157     1     2    1
   158     5     2    1
   159     5     6    1
   160     8     6    1
   161     4     3    2
   162    53    54    1
   163    72    69    1
   164    69    68    1
   165     2     3    1
   166     6     7    1
   167    54    55    1
   168     3     9   am
   169   209   210    2
   170    64    63    2
   171    56    55    2
   172    55    61   am
   173    12    11    2
   174    11    10    1
   175   188   189    1
   176    63    62    1
   177     9    10    1
   178    61    67    1
   179    61    62    1
   180   192   189    1
   181   192   193    1
   182    13    10    1
   183    13    14    1
   184    67    66    1
   185   195   193    1
   186    16    14   ar
   187    16    18   ar
   188   222   224   ar
   189   222   220   ar
   190    62    65    1
   191   189   190    1
   192   224   223   ar
   193   190   191    2
   194    14    15   ar
   195   193   194    1
   196    18    19   ar
   197   220   219   ar
   198    65    66    1
   199   214   215    1
   200   223   221   ar
   201   215   216    1
   202   215   218    1
   203   219   221   ar
   204   219   218    1
   205    15    17   ar
   206   216   217    2
   207    19    17   ar
   208   204   202   ar
   209   204   206   ar
   210   202   201   ar
   211   206   205   ar
   212   199   198    2
   213   197   198    1
   214   197   196    1
   215   197   200    1
   216   201   200    1
   217   201   203   ar
   218   205   203   ar
