@<TRIPOS>MOLECULE
tmp/5flkA00.pdb
 134 131 0 0 0
SMALL
GASTEIGER

@<TRIPOS>ATOM
      1  N         -1.7110    3.9430    7.1430 N.3    38  ASN38      -0.1240
      2  CA        -2.0010    4.8490    8.2630 C.3    38  ASN38       0.1653
      3  C         -0.7620    5.6630    8.6350 C.2    38  ASN38       0.2266
      4  O          0.3200    5.0810    8.8050 O.2    38  ASN38      -0.2867
      5  CB        -2.3600    3.9910    9.4740 C.3    38  ASN38       0.1155
      6  CG        -2.9130    4.8240   10.6010 C.2    38  ASN38       0.2627
      7  OD1       -3.6100    5.8190   10.3820 O.2    38  ASN38      -0.2716
      8  ND2       -2.6490    4.4100   11.8400 N.am   38  ASN38      -0.0877
      9  N          1.8290   -0.8810    4.3340 N.3   103  ASP103     -0.1225
     10  CA         1.0680   -0.7650    5.6040 C.3   103  ASP103      0.1805
     11  C         -0.3760   -1.2820    5.3970 C.2   103  ASP103      0.2597
     12  O         -0.5570   -2.3730    4.8180 O.2   103  ASP103     -0.2718
     13  CB         1.1600    0.6560    6.1440 C.3   103  ASP103      0.1424
     14  CG         0.4950    0.7920    7.5120 C.2   103  ASP103      0.3668
     15  OD1        0.9880    0.0410    8.4430 O.co2 103  ASP103     -0.2456
     16  OD2       -0.5500    1.4550    7.6260 O.co2 103  ASP103     -0.2456
     17  N         -1.4080   -0.5600    5.8110 N.am  104  TRP104     -0.1976
     18  CA        -2.7730   -1.0590    5.6110 C.3   104  TRP104      0.1640
     19  C         -3.1540   -1.1460    4.1580 C.2   104  TRP104      0.2290
     20  O         -4.0080   -1.9620    3.7950 O.2   104  TRP104     -0.2864
     21  CB        -3.7680   -0.2440    6.4360 C.3   104  TRP104      0.0576
     22  CG        -3.6980   -0.6420    7.8690 C.ar  104  TRP104      0.0006
     23  CD1       -3.0550   -0.0200    8.8960 C.ar  104  TRP104      0.0946
     24  CD2       -4.2020   -1.8660    8.4030 C.ar  104  TRP104      0.0152
     25  NE1       -3.1830   -0.7540   10.0500 N.ar  104  TRP104     -0.2442
     26  CE2       -3.8870   -1.8920    9.7600 C.ar  104  TRP104      0.0810
     27  CE3       -4.9310   -2.9130    7.8310 C.ar  104  TRP104      0.0012
     28  CZ2       -4.2360   -2.9640   10.5830 C.ar  104  TRP104      0.0191
     29  CZ3       -5.2390   -4.0230    8.6360 C.ar  104  TRP104      0.0001
     30  CH2       -4.9060   -4.0320    9.9820 C.ar  104  TRP104      0.0015
     31  N          7.7680   -7.1230   17.6370 N.3   138  TRP138     -0.1241
     32  CA         7.5510   -5.6880   17.3360 C.3   138  TRP138      0.1605
     33  C          8.8240   -4.9290   17.7580 C.2   138  TRP138      0.2264
     34  O          9.3840   -5.2500   18.7990 O.2   138  TRP138     -0.2867
     35  CB         6.3450   -5.1910   18.1170 C.3   138  TRP138      0.0550
     36  CG         5.9320   -3.7910   17.7210 C.ar  138  TRP138      0.0003
     37  CD1        6.2770   -2.6030   18.3210 C.ar  138  TRP138      0.0946
     38  CD2        5.1050   -3.4530   16.6230 C.ar  138  TRP138      0.0152
     39  NE1        5.7170   -1.5510   17.6500 N.ar  138  TRP138     -0.2442
     40  CE2        4.9780   -2.0470   16.6040 C.ar  138  TRP138      0.0810
     41  CE3        4.4580   -4.1990   15.6430 C.ar  138  TRP138      0.0012
     42  CZ2        4.1980   -1.3870   15.6050 C.ar  138  TRP138      0.0191
     43  CZ3        3.6930   -3.5350   14.6850 C.ar  138  TRP138      0.0001
     44  CH2        3.5850   -2.1600   14.6660 C.ar  138  TRP138      0.0015
     45  N          9.3860    1.1550   19.4350 N.3   142  ALA142     -0.1245
     46  CA         7.9890    1.5090   19.2210 C.3   142  ALA142      0.1562
     47  C          7.0200    0.6700   20.0630 C.2   142  ALA142      0.2260
     48  O          5.8060    0.7930   19.8910 O.2   142  ALA142     -0.2867
     49  CB         7.6660    1.3840   17.7170 C.3   142  ALA142      0.0290
     50  N          3.0520    1.6070   20.8920 N.3   146  PHE146     -0.1241
     51  CA         1.9570    0.8840   20.1870 C.3   146  PHE146      0.1605
     52  C          1.1270    0.1400   21.1650 C.2   146  PHE146      0.2264
     53  O         -0.0680   -0.0010   20.9470 O.2   146  PHE146     -0.2867
     54  CB         2.3880   -0.0330   19.0140 C.3   146  PHE146      0.0534
     55  CG         2.4210    0.6950   17.6990 C.ar  146  PHE146     -0.0203
     56  CD1        3.4060    1.6430   17.4910 C.ar  146  PHE146     -0.0042
     57  CD2        1.4200    0.5760   16.7310 C.ar  146  PHE146     -0.0042
     58  CE1        3.4460    2.4070   16.3470 C.ar  146  PHE146     -0.0003
     59  CE2        1.4540    1.3320   15.6030 C.ar  146  PHE146     -0.0003
     60  CZ         2.4840    2.2360   15.3960 C.ar  146  PHE146     -0.0000
     61  N         -0.6120   10.1070   16.2120 N.3   165  PHE165     -0.1241
     62  CA        -0.1740    9.3410   15.0530 C.3   165  PHE165      0.1605
     63  C          0.4560   10.2630   14.0020 C.2   165  PHE165      0.2264
     64  O          1.4390    9.9100   13.3390 O.2   165  PHE165     -0.2867
     65  CB        -1.2770    8.4560   14.4560 C.3   165  PHE165      0.0534
     66  CG        -0.7970    7.0580   14.1180 C.ar  165  PHE165     -0.0203
     67  CD1        0.1410    6.8410   13.1290 C.ar  165  PHE165     -0.0042
     68  CD2       -1.2050    5.9680   14.8430 C.ar  165  PHE165     -0.0042
     69  CE1        0.6620    5.5920   12.8950 C.ar  165  PHE165     -0.0003
     70  CE2       -0.6560    4.7280   14.6120 C.ar  165  PHE165     -0.0003
     71  CZ         0.2390    4.5350   13.6330 C.ar  165  PHE165     -0.0000
     72  N          4.0720    9.4810   15.6070 N.3   169  ALA169     -0.1245
     73  CA         4.4810    8.2230   14.9670 C.3   169  ALA169      0.1562
     74  C          4.9660    8.4190   13.5450 C.2   169  ALA169      0.2260
     75  O          5.9280    7.7940   13.1190 O.2   169  ALA169     -0.2867
     76  CB         3.3570    7.2250   15.0160 C.3   169  ALA169      0.0290
     77  N          8.9490    7.7500   12.1960 N.3   173  CYS173     -0.1235
     78  CA         9.2100    6.6210   11.3390 C.3   173  CYS173      0.1677
     79  C          9.6270    7.0070    9.9140 C.2   173  CYS173      0.2270
     80  O          9.5200    6.1720    8.9760 O.2   173  CYS173     -0.2867
     81  CB         8.0550    5.6240   11.3720 C.3   173  CYS173      0.0956
     82  SG         7.8630    4.8080   12.9400 S.3   173  CYS173     -0.0801
     83  N         -4.2570    1.0050   14.2560 N.3   203  PRO203     -0.2116
     84  CA        -3.2820    0.2890   15.0810 C.3   203  PRO203      0.1372
     85  C         -3.9400   -0.8030   15.9400 C.2   203  PRO203      0.2244
     86  O         -3.2950   -1.7910   16.2850 O.2   203  PRO203     -0.2868
     87  CB        -2.6500    1.3720   15.9380 C.3   203  PRO203      0.0268
     88  CG        -3.6000    2.5170   15.8900 C.3   203  PRO203      0.0207
     89  CD        -4.2040    2.4460   14.4860 C.3   203  PRO203      0.0892
     90  N         -4.0980   -4.0850   13.9280 N.3   206  LEU206     -0.1245
     91  CA        -2.8730   -4.7380   13.4820 C.3   206  LEU206      0.1561
     92  C         -2.7660   -6.1030   14.1310 C.2   206  LEU206      0.2260
     93  O         -3.0650   -6.2600   15.3090 O.2   206  LEU206     -0.2867
     94  CB        -1.6370   -3.9420   13.8890 C.3   206  LEU206      0.0270
     95  CG        -1.2840   -2.7050   13.1460 C.3   206  LEU206      0.0019
     96  CD1       -0.2920   -1.9360   13.9670 C.3   206  LEU206      0.0001
     97  CD2       -0.7880   -3.0590   11.7440 C.3   206  LEU206      0.0001
     98  N         10.7890   -1.3350   10.2290 N.3   242  VAL242     -0.1231
     99  CA         9.8780   -1.3810   11.3720 C.3   242  VAL242      0.1692
    100  C          9.1200   -2.7060   11.2750 C.2   242  VAL242      0.2591
    101  O          9.3470   -3.6110   12.0820 O.2   242  VAL242     -0.2718
    102  CB         8.9700   -0.1540   11.4590 C.3   242  VAL242      0.0266
    103  CG1        7.8840   -0.3090   12.4990 C.3   242  VAL242      0.0020
    104  CG2        9.7570    1.0870   11.7470 C.3   242  VAL242      0.0020
    105  N          8.2180   -2.8270   10.3060 N.am  243  LEU243     -0.1980
    106  CA         7.4950   -4.0670   10.1150 C.3   243  LEU243      0.1596
    107  C          8.3500   -5.1440    9.4680 C.2   243  LEU243      0.2287
    108  O          8.1350   -6.3320    9.7000 O.2   243  LEU243     -0.2864
    109  CB         6.2150   -3.8330    9.3050 C.3   243  LEU243      0.0297
    110  CG         5.1470   -2.8730    9.9290 C.3   243  LEU243      0.0022
    111  CD1        3.9110   -2.8650    9.0200 C.3   243  LEU243      0.0001
    112  CD2        4.8270   -3.2280   11.3440 C.3   243  LEU243      0.0001
    113  N          9.6100    3.1280    8.6490 N.3   269  HIS269     -0.1226
    114  CA         8.3490    2.6220    8.1130 C.3   269  HIS269      0.1752
    115  C          7.9430    3.2960    6.8130 C.2   269  HIS269      0.2596
    116  O          7.5590    2.5870    5.8690 O.2   269  HIS269     -0.2718
    117  CB         7.2230    2.7240    9.1380 C.3   269  HIS269      0.0759
    118  CG         5.9500    2.1580    8.6500 C.ar  269  HIS269      0.0818
    119  ND1        5.7680    0.8190    8.3580 N.ar  269  HIS269     -0.2268
    120  CD2        4.7620    2.7680    8.3690 C.ar  269  HIS269      0.1154
    121  CE1        4.4960    0.6720    7.9300 C.ar  269  HIS269      0.1986
    122  NE2        3.8730    1.8530    7.9040 N.ar  269  HIS269     -0.2212
    123  N          7.9630    4.6280    6.7500 N.am  270  TYR270     -0.1976
    124  CA         7.4690    5.3720    5.5800 C.3   270  TYR270      0.1639
    125  C          8.5980    5.5030    4.6070 C.2   270  TYR270      0.2290
    126  O          9.1430    6.6140    4.3810 O.2   270  TYR270     -0.2864
    127  CB         6.8530    6.7070    6.0310 C.3   270  TYR270      0.0560
    128  CG         5.7490    6.5530    7.0260 C.ar  270  TYR270     -0.0198
    129  CD1        4.4450    6.3020    6.6090 C.ar  270  TYR270     -0.0009
    130  CD2        5.9860    6.5720    8.3880 C.ar  270  TYR270     -0.0009
    131  CE1        3.4260    6.0620    7.5140 C.ar  270  TYR270      0.0417
    132  CE2        4.9890    6.3230    9.3050 C.ar  270  TYR270      0.0417
    133  CZ         3.7090    6.0790    8.8660 C.ar  270  TYR270      0.1957
    134  OH         2.7660    5.7720    9.8080 O.3   270  TYR270     -0.2866
@<TRIPOS>BOND
     1    20    19    2
     2    19    18    1
     3     9    10    1
     4   126   125    2
     5   125   124    1
     6    12    11    2
     7    11    10    1
     8    11    17   am
     9   124   127    1
    10   124   123    1
    11    10    13    1
    12    18    17    1
    13    18    21    1
    14   116   115    2
    15   127   128    1
    16    13    14    1
    17    21    22    1
    18   129   128   ar
    19   129   131   ar
    20   123   115   am
    21   115   114    1
    22   128   130   ar
    23     1     2    1
    24    14    16   ar
    25    14    15   ar
    26   131   133   ar
    27    27    24   ar
    28    27    29   ar
    29    22    24   ar
    30    22    23   ar
    31   122   121   ar
    32   122   120   ar
    33   121   119   ar
    34   114   113    1
    35   114   117    1
    36     2     3    1
    37     2     5    1
    38   119   118   ar
    39   120   118   ar
    40   130   132   ar
    41    24    26   ar
    42     3     4    2
    43    29    30   ar
    44   118   117    1
    45   133   132   ar
    46   133   134    1
    47    23    25   ar
    48    80    79    2
    49   111   110    1
    50   109   110    1
    51   109   106    1
    52   107   108    2
    53   107   106    1
    54     5     6    1
    55    26    25   ar
    56    26    28   ar
    57    79    78    1
    58   110   112    1
    59    30    28   ar
    60   106   105    1
    61    98    99    1
    62   105   100   am
    63     7     6    2
    64     6     8   am
    65   100    99    1
    66   100   101    2
    67    78    81    1
    68    78    77    1
    69    99   102    1
    70    81    82    1
    71   102   104    1
    72   102   103    1
    73    97    95    1
    74    69    67   ar
    75    69    71   ar
    76    75    74    2
    77    67    66   ar
    78    95    94    1
    79    95    96    1
    80    64    63    2
    81    91    94    1
    82    91    90    1
    83    91    92    1
    84    74    73    1
    85    71    70   ar
    86    63    62    1
    87    66    65    1
    88    66    68   ar
    89    92    93    2
    90    83    89    1
    91    83    84    1
    92    65    62    1
    93    89    88    1
    94    70    68   ar
    95    44    43   ar
    96    44    42   ar
    97    43    41   ar
    98    73    76    1
    99    73    72    1
   100    62    61    1
   101    84    87    1
   102    84    85    1
   103    60    59   ar
   104    60    58   ar
   105    59    57   ar
   106    42    40   ar
   107    41    38   ar
   108    88    87    1
   109    85    86    2
   110    58    56   ar
   111    40    38   ar
   112    40    39   ar
   113    38    36   ar
   114    57    55   ar
   115    32    31    1
   116    32    33    1
   117    32    35    1
   118    56    55   ar
   119    39    37   ar
   120    55    54    1
   121    49    46    1
   122    36    35    1
   123    36    37   ar
   124    33    34    2
   125    54    51    1
   126    46    45    1
   127    46    47    1
   128    48    47    2
   129    51    50    1
   130    51    52    1
   131    53    52    2
