@<TRIPOS>MOLECULE
tmp/5flkA02.pdb
 90 88 0 0 0
SMALL
GASTEIGER

@<TRIPOS>ATOM
      1  N        -12.4010    7.9460    4.7420 N.3    65  GLY65      -0.1225
      2  CA       -12.0270    8.6220    5.9820 C.3    65  GLY65       0.1811
      3  C        -10.6760    9.3020    5.9920 C.2    65  GLY65       0.2280
      4  O        -10.2840    9.8500    7.0130 O.2    65  GLY65      -0.2866
      5  N        -15.7730   11.4190    4.8440 N.3    71  LYS71      -0.1231
      6  CA       -15.6100   10.9780    6.2510 C.3    71  LYS71       0.1678
      7  C        -16.8860   10.4930    6.8710 C.2    71  LYS71       0.2434
      8  O        -17.3930   11.0540    7.8610 O.2    71  LYS71      -0.2733
      9  CB       -15.2350   12.1630    7.1010 C.3    71  LYS71       0.0284
     10  CG       -13.9450   12.7340    6.6710 C.3    71  LYS71       0.0035
     11  CD       -13.5160   13.8540    7.5590 C.3    71  LYS71       0.0206
     12  CE       -12.2500   14.5260    7.1330 C.3    71  LYS71       0.1093
     13  NZ       -11.0750   13.6290    7.1950 N.3    71  LYS71      -0.1314
     14  N        -17.4330    9.4450    6.3570 N.am   72  PRO72      -0.2718
     15  CA       -18.6350    8.8930    7.0340 C.3    72  PRO72       0.1535
     16  C        -18.3130    8.4260    8.4460 C.2    72  PRO72       0.2599
     17  O        -17.1740    8.1880    8.8380 O.2    72  PRO72      -0.2715
     18  CB       -19.0370    7.7700    6.0940 C.3    72  PRO72       0.0310
     19  CG       -17.7520    7.3140    5.4350 C.3    72  PRO72       0.0237
     20  CD       -17.0210    8.6280    5.2190 C.3    72  PRO72       0.0939
     21  N        -19.3480    8.3910    9.2720 N.am   73  ASP73      -0.1958
     22  CA       -19.2040    7.9370   10.6590 C.3    73  ASP73       0.1840
     23  C        -19.2140    6.4090   10.6710 C.2    73  ASP73       0.2621
     24  O        -20.2820    5.7860   10.8150 O.2    73  ASP73      -0.2715
     25  CB       -20.3170    8.5420   11.4860 C.3    73  ASP73       0.1450
     26  CG       -20.2270    8.2000   12.9430 C.2    73  ASP73       0.3671
     27  OD1      -19.2530    7.5740   13.3780 O.co2  73  ASP73      -0.2456
     28  OD2      -21.1420    8.5980   13.6750 O.co2  73  ASP73      -0.2456
     29  N        -18.0160    5.8320   10.5280 N.am   74  LEU74      -0.1977
     30  CA       -17.8140    4.4010   10.5090 C.3    74  LEU74       0.1596
     31  C        -16.9440    4.0740   11.7140 C.2    74  LEU74       0.2287
     32  O        -16.2460    4.9140   12.2870 O.2    74  LEU74      -0.2864
     33  CB       -17.0450    3.9860    9.1990 C.3    74  LEU74       0.0297
     34  CG       -17.6260    4.4380    7.8840 C.3    74  LEU74       0.0022
     35  CD1      -16.7450    3.9330    6.7260 C.3    74  LEU74       0.0001
     36  CD2      -19.0450    4.0390    7.7450 C.3    74  LEU74       0.0001
     37  N        -14.4260    2.2760   10.9530 N.3    76  TYR76      -0.1241
     38  CA       -13.1720    2.2420   10.2250 C.3    76  TYR76       0.1605
     39  C        -12.3310    1.0090   10.5590 C.2    76  TYR76       0.2264
     40  O        -11.1000    1.0310   10.5370 O.2    76  TYR76      -0.2867
     41  CB       -12.3870    3.5630   10.3710 C.3    76  TYR76       0.0534
     42  CG       -13.0670    4.7170    9.7030 C.ar   76  TYR76      -0.0201
     43  CD1      -12.9500    4.8780    8.3300 C.ar   76  TYR76      -0.0009
     44  CD2      -13.8310    5.6360   10.3890 C.ar   76  TYR76      -0.0009
     45  CE1      -13.5700    5.9350    7.6750 C.ar   76  TYR76       0.0417
     46  CE2      -14.4390    6.6880    9.7250 C.ar   76  TYR76       0.0417
     47  CZ       -14.3170    6.8240    8.3690 C.ar   76  TYR76       0.1957
     48  OH       -14.9090    7.8550    7.6650 O.3    76  TYR76      -0.2866
     49  N         -7.1150   15.8290    9.0430 N.3   190  PHE190     -0.1241
     50  CA        -7.3640   15.4850   10.4470 C.3   190  PHE190      0.1605
     51  C         -7.3550   16.7140   11.3580 C.2   190  PHE190      0.2264
     52  O         -7.2400   16.5870   12.5740 O.2   190  PHE190     -0.2867
     53  CB        -6.3600   14.4360   10.9090 C.3   190  PHE190      0.0534
     54  CG        -6.4230   13.1770   10.0580 C.ar  190  PHE190     -0.0203
     55  CD1       -7.5730   12.4420   10.0150 C.ar  190  PHE190     -0.0042
     56  CD2       -5.3790   12.8170    9.2580 C.ar  190  PHE190     -0.0042
     57  CE1       -7.6780   11.3520    9.1680 C.ar  190  PHE190     -0.0003
     58  CE2       -5.4450   11.7150    8.4300 C.ar  190  PHE190     -0.0003
     59  CZ        -6.6130   11.0250    8.3570 C.ar  190  PHE190     -0.0000
     60  N        -12.3040   14.8500   15.9260 N.3   194  VAL194     -0.1231
     61  CA       -13.2240   13.7470   15.8040 C.3   194  VAL194      0.1692
     62  C        -12.9990   12.9190   14.5070 C.2   194  VAL194      0.2592
     63  O        -13.3100   11.7180   14.4540 O.2   194  VAL194     -0.2718
     64  CB       -14.6530   14.2780   16.0300 C.3   194  VAL194      0.0266
     65  CG1      -15.0560   15.2890   14.9780 C.3   194  VAL194      0.0020
     66  CG2      -15.6420   13.1380   16.1810 C.3   194  VAL194      0.0020
     67  N        -12.4040   13.5480   13.4860 N.am  195  ASP195     -0.1974
     68  CA       -12.1170   12.8850   12.2280 C.3   195  ASP195      0.1709
     69  C        -10.9440   11.9180   12.2800 C.2   195  ASP195      0.2293
     70  O        -10.5950   11.2710   11.2890 O.2   195  ASP195     -0.2864
     71  CB       -11.9030   13.9280   11.1310 C.3   195  ASP195      0.1436
     72  CG       -13.1570   14.7250   10.7900 C.2   195  ASP195      0.3671
     73  OD1      -14.2920   14.2730   11.0910 O.co2 195  ASP195     -0.2456
     74  OD2      -13.0020   15.8190   10.1910 O.co2 195  ASP195     -0.2456
     75  N        -10.8100    9.0800   13.9360 N.3   197  GLU197     -0.1231
     76  CA       -11.1740    7.6890   14.2270 C.3   197  GLU197      0.1684
     77  C        -10.3380    6.6510   13.4570 C.2   197  GLU197      0.2434
     78  O         -9.9010    5.6830   14.0890 O.2   197  GLU197     -0.2733
     79  CB       -12.6760    7.4510   13.9830 C.3   197  GLU197      0.0402
     80  CG       -13.1760    6.1900   14.6310 C.3   197  GLU197      0.1161
     81  CD       -13.2040    6.2500   16.1560 C.2   197  GLU197      0.3649
     82  OE1      -13.3090    7.3510   16.7220 O.co2 197  GLU197     -0.2457
     83  OE2      -13.1390    5.1390   16.7590 O.co2 197  GLU197     -0.2457
     84  N        -10.1670    6.7700   12.1300 N.am  198  PRO198     -0.2729
     85  CA        -9.4180    5.7120   11.4380 C.3   198  PRO198      0.1401
     86  C         -7.9980    5.5480   11.9660 C.2   198  PRO198      0.2269
     87  O         -7.4130    4.4710   11.8890 O.2   198  PRO198     -0.2865
     88  CB        -9.4260    6.1680    9.9770 C.3   198  PRO198      0.0296
     89  CG       -10.0020    7.4890    9.9450 C.3   198  PRO198      0.0237
     90  CD       -10.6700    7.7800   11.1830 C.3   198  PRO198      0.0939
@<TRIPOS>BOND
     1     1     2    1
     2     5     6    1
     3    20    19    1
     4    20    14    1
     5    19    18    1
     6     2     3    1
     7     3     4    2
     8    18    15    1
     9     6     7    1
    10     6     9    1
    11    14     7   am
    12    14    15    1
    13    10     9    1
    14    10    11    1
    15    35    34    1
    16     7     8    2
    17    15    16    1
    18    12    13    1
    19    12    11    1
    20    48    47    1
    21    45    43   ar
    22    45    47   ar
    23    36    34    1
    24    34    33    1
    25    43    42   ar
    26    59    58   ar
    27    59    57   ar
    28    47    46   ar
    29    58    56   ar
    30    16    17    2
    31    16    21   am
    32    49    50    1
    33    57    55   ar
    34    33    30    1
    35    56    54   ar
    36    21    22    1
    37    42    41    1
    38    42    44   ar
    39    46    44   ar
    40    89    88    1
    41    89    90    1
    42    88    85    1
    43    55    54   ar
    44    54    53    1
    45    74    72   ar
    46    38    41    1
    47    38    39    1
    48    38    37    1
    49    50    53    1
    50    50    51    1
    51    30    29    1
    52    30    31    1
    53    29    23   am
    54    40    39    2
    55    22    23    1
    56    22    25    1
    57    23    24    2
    58    72    73   ar
    59    72    71    1
    60    71    68    1
    61    90    84    1
    62    70    69    2
    63    51    52    2
    64    85    86    1
    65    85    84    1
    66    25    26    1
    67    31    32    2
    68    87    86    2
    69    84    77   am
    70    68    69    1
    71    68    67    1
    72    26    27   ar
    73    26    28   ar
    74    77    78    2
    75    77    76    1
    76    67    62   am
    77    75    76    1
    78    79    76    1
    79    79    80    1
    80    63    62    2
    81    62    61    1
    82    80    81    1
    83    65    64    1
    84    61    60    1
    85    61    64    1
    86    64    66    1
    87    81    82   ar
    88    81    83   ar
