@<TRIPOS>MOLECULE
tmp/5flpA00.pdb
 121 119 0 0 0
SMALL
GASTEIGER

@<TRIPOS>ATOM
      1  N        -12.7310    6.6400   11.2750 N.3    89  GLN89      -0.1245
      2  CA       -12.4320    5.5160   10.4430 C.3    89  GLN89       0.1566
      3  C        -12.6780    4.2330   11.1820 C.2    89  GLN89       0.2260
      4  O        -12.7410    4.2460   12.3980 O.2    89  GLN89      -0.2867
      5  CB       -10.9980    5.5220    9.8760 C.3    89  GLN89       0.0367
      6  CG        -9.9280    5.5070   10.9580 C.3    89  GLN89       0.0905
      7  CD        -9.2120    4.1960   11.1240 C.2    89  GLN89       0.2608
      8  OE1       -9.7720    3.1370   11.2020 O.2    89  GLN89      -0.2717
      9  NE2       -7.9390    4.3090   11.2830 N.am   89  GLN89      -0.0878
     10  N        -11.2730   -0.0470   10.9240 N.3    91  HIS91      -0.1241
     11  CA       -10.3880   -1.0570   10.3150 C.3    91  HIS91       0.1621
     12  C        -10.4400   -2.2980   11.1380 C.2    91  HIS91       0.2264
     13  O        -11.0900   -2.3650   12.1900 O.2    91  HIS91      -0.2867
     14  CB        -8.9610   -0.5830   10.2210 C.3    91  HIS91       0.0745
     15  CG        -8.4000   -0.2810   11.5640 C.ar   91  HIS91       0.0817
     16  ND1       -8.5850    0.9070   12.2000 N.ar   91  HIS91      -0.2268
     17  CD2       -7.7740   -1.0870   12.4550 C.ar   91  HIS91       0.1154
     18  CE1       -8.0950    0.8470   13.4160 C.ar   91  HIS91       0.1986
     19  NE2       -7.6280   -0.3720   13.5930 N.ar   91  HIS91      -0.2212
     20  N         -8.1050   -5.9970   12.4910 N.3    93  HIS93      -0.1241
     21  CA        -6.8930   -6.8390   12.6670 C.3    93  HIS93       0.1621
     22  C         -7.2990   -8.2830   12.5530 C.2    93  HIS93       0.2264
     23  O         -8.3830   -8.6350   13.0720 O.2    93  HIS93      -0.2867
     24  CB        -6.2260   -6.6050   14.0240 C.3    93  HIS93       0.0745
     25  CG        -5.9470   -5.1740   14.3240 C.ar   93  HIS93       0.0817
     26  ND1       -4.6940   -4.6020   14.1380 N.ar   93  HIS93      -0.2268
     27  CD2       -6.7840   -4.1660   14.6870 C.ar   93  HIS93       0.1154
     28  CE1       -4.7520   -3.3310   14.5000 C.ar   93  HIS93       0.1986
     29  NE2       -5.9940   -3.0310   14.7800 N.ar   93  HIS93      -0.2212
     30  N        -12.0180   -2.2310   14.9400 N.3   116  HIS116     -0.1241
     31  CA       -11.8090   -1.0190   15.6300 C.3   116  HIS116      0.1621
     32  C        -12.4970    0.1230   14.9220 C.2   116  HIS116      0.2264
     33  O        -12.1220    0.4760   13.7940 O.2   116  HIS116     -0.2867
     34  CB       -10.2910   -0.7280   15.7270 C.3   116  HIS116      0.0745
     35  CG        -9.5950   -1.6790   16.6550 C.ar  116  HIS116      0.0817
     36  ND1       -8.2280   -1.9380   16.6240 N.ar  116  HIS116     -0.2268
     37  CD2      -10.1150   -2.5510   17.5430 C.ar  116  HIS116      0.1154
     38  CE1       -7.9430   -2.8500   17.5340 C.ar  116  HIS116      0.1986
     39  NE2       -9.0460   -3.1860   18.1470 N.ar  116  HIS116     -0.2212
     40  N        -12.7380    3.9520   15.2700 N.3   118  VAL118     -0.1245
     41  CA       -11.9030    4.9940   15.8610 C.3   118  VAL118      0.1561
     42  C        -12.6160    6.3410   15.8610 C.2   118  VAL118      0.2260
     43  O        -13.1320    6.8030   14.8340 O.2   118  VAL118     -0.2867
     44  CB       -10.5910    5.1110   15.0880 C.3   118  VAL118      0.0252
     45  CG1       -9.6440    6.0810   15.7200 C.3   118  VAL118      0.0019
     46  CG2       -9.9080    3.7580   14.9000 C.3   118  VAL118      0.0019
     47  N         -8.1960   15.5410   14.8200 N.3   127  PHE127     -0.1241
     48  CA        -7.5610   14.2400   15.1960 C.3   127  PHE127      0.1605
     49  C         -6.1280   14.3380   15.6560 C.2   127  PHE127      0.2264
     50  O         -5.7490   13.7260   16.6580 O.2   127  PHE127     -0.2867
     51  CB        -7.7310   13.2540   14.0330 C.3   127  PHE127      0.0534
     52  CG        -7.1960   11.9090   14.2990 C.ar  127  PHE127     -0.0203
     53  CD1       -7.9500   10.9900   14.9360 C.ar  127  PHE127     -0.0042
     54  CD2       -5.9200   11.5730   13.9330 C.ar  127  PHE127     -0.0042
     55  CE1       -7.4740    9.6980   15.1890 C.ar  127  PHE127     -0.0003
     56  CE2       -5.4280   10.3070   14.1940 C.ar  127  PHE127     -0.0003
     57  CZ        -6.2340    9.3540   14.7860 C.ar  127  PHE127     -0.0000
     58  N         -4.8250   13.1040   19.5280 N.3   131  VAL131     -0.1245
     59  CA        -3.8990   11.9640   19.8640 C.3   131  VAL131      0.1561
     60  C         -2.7710   12.3750   20.8500 C.2   131  VAL131      0.2260
     61  O         -2.1290   11.5480   21.4530 O.2   131  VAL131     -0.2867
     62  CB        -3.2380   11.2670   18.6180 C.3   131  VAL131      0.0252
     63  CG1       -4.3310   10.7260   17.6760 C.3   131  VAL131      0.0019
     64  CG2       -2.2880   12.1950   17.8830 C.3   131  VAL131      0.0019
     65  N        -11.9050    4.1560   21.0930 N.3   139  VAL139     -0.1245
     66  CA       -11.9890    3.0660   20.1380 C.3   139  VAL139      0.1561
     67  C        -13.0070    2.0710   20.6380 C.2   139  VAL139      0.2260
     68  O        -12.9000    1.5870   21.7440 O.2   139  VAL139     -0.2867
     69  CB       -10.6250    2.4230   19.7730 C.3   139  VAL139      0.0252
     70  CG1      -10.8130    1.3900   18.6680 C.3   139  VAL139      0.0019
     71  CG2       -9.6790    3.5140   19.3530 C.3   139  VAL139      0.0019
     72  N         -2.9120    3.5220   21.2550 N.3   194  LEU194     -0.1231
     73  CA        -2.9110    2.9650   19.9090 C.3   194  LEU194      0.1693
     74  C         -2.1310    1.6410   19.9670 C.2   194  LEU194      0.2593
     75  O         -1.1900    1.4760   20.7480 O.2   194  LEU194     -0.2718
     76  CB        -2.2320    3.9500   18.8980 C.3   194  LEU194      0.0284
     77  CG        -2.7460    5.3920   18.8960 C.3   194  LEU194      0.0019
     78  CD1       -1.8670    6.1410   17.8840 C.3   194  LEU194      0.0001
     79  CD2       -4.1440    5.3950   18.4580 C.3   194  LEU194      0.0001
     80  N         -2.5540    0.6900   19.1450 N.am  195  THR195     -0.1939
     81  CA        -1.8970   -0.6240   19.0460 C.3   195  THR195      0.2028
     82  C         -0.9330   -0.7550   17.9390 C.2   195  THR195      0.2643
     83  O         -0.3270   -1.8310   17.7560 O.2   195  THR195     -0.2714
     84  CB        -2.9080   -1.7500   18.9520 C.3   195  THR195      0.1808
     85  OG1       -3.5940   -1.5710   17.6810 O.3   195  THR195     -0.2208
     86  CG2       -3.9320   -1.7300   20.1100 C.3   195  THR195      0.0379
     87  N         -0.6500    0.3450   17.2460 N.am  196  THR196     -0.1937
     88  CA         0.4170    0.4300   16.2450 C.3   196  THR196      0.2013
     89  C          1.2380    1.6650   16.5620 C.2   196  THR196      0.2484
     90  O          0.7060    2.6030   17.1920 O.2   196  THR196     -0.2729
     91  CB        -0.0680    0.5900   14.7710 C.3   196  THR196      0.1807
     92  OG1       -0.7770    1.8420   14.5620 O.3   196  THR196     -0.2208
     93  CG2       -0.9250   -0.5700   14.3230 C.3   196  THR196      0.0379
     94  N          2.4980    1.6930   16.0450 N.am  197  PRO197     -0.2715
     95  CA         3.2460    2.9780   16.1070 C.3   197  PRO197      0.1521
     96  C          2.3390    4.1080   15.6170 C.2   197  PRO197      0.2440
     97  O          1.6070    3.9250   14.5700 O.2   197  PRO197     -0.2731
     98  CB         4.4430    2.6990   15.1810 C.3   197  PRO197      0.0310
     99  CG         4.7140    1.2540   15.4430 C.3   197  PRO197      0.0237
    100  CD         3.3200    0.6200   15.4450 C.3   197  PRO197      0.0939
    101  N          2.3790    5.2740   16.2690 N.am  198  PRO198     -0.2727
    102  CA         3.2810    5.6710   17.3890 C.3   198  PRO198      0.1402
    103  C          2.9120    5.2880   18.8570 C.2   198  PRO198      0.2269
    104  O          3.5830    5.7470   19.8000 O.2   198  PRO198     -0.2865
    105  CB         3.2930    7.2120   17.2240 C.3   198  PRO198      0.0296
    106  CG         1.9550    7.5260   16.7700 C.3   198  PRO198      0.0237
    107  CD         1.5810    6.4170   15.7990 C.3   198  PRO198      0.0939
    108  N        -10.4950    2.6790   25.6710 N.3   205  TRP205     -0.1241
    109  CA       -10.9350    1.4810   24.9830 C.3   205  TRP205      0.1605
    110  C        -12.2750    1.0530   25.4820 C.2   205  TRP205      0.2264
    111  O        -12.4980    1.0110   26.7070 O.2   205  TRP205     -0.2867
    112  CB        -9.8980    0.2920   25.2000 C.3   205  TRP205      0.0550
    113  CG        -8.7650    0.4410   24.2210 C.ar  205  TRP205      0.0003
    114  CD1       -7.5710    1.0480   24.4110 C.ar  205  TRP205      0.0946
    115  CD2       -8.8030    0.0390   22.8670 C.ar  205  TRP205      0.0152
    116  NE1       -6.8530    1.0630   23.2530 N.ar  205  TRP205     -0.2442
    117  CE2       -7.5720    0.4000   22.2840 C.ar  205  TRP205      0.0810
    118  CE3       -9.7750   -0.6060   22.0840 C.ar  205  TRP205      0.0012
    119  CZ2       -7.2850    0.1110   20.9720 C.ar  205  TRP205      0.0191
    120  CZ3       -9.4710   -0.8790   20.7900 C.ar  205  TRP205      0.0001
    121  CH2       -8.2870   -0.5460   20.2630 C.ar  205  TRP205      0.0015
@<TRIPOS>BOND
     1     5     2    1
     2     5     6    1
     3    14    11    1
     4    14    15    1
     5    11    10    1
     6    11    12    1
     7     2     3    1
     8     2     1    1
     9     6     7    1
    10     7     8    2
    11     7     9   am
    12    12    13    2
    13     3     4    2
    14    15    16   ar
    15    15    17   ar
    16    16    18   ar
    17    17    19   ar
    18    20    21    1
    19    22    21    1
    20    22    23    2
    21    21    24    1
    22    18    19   ar
    23    33    32    2
    24    54    56   ar
    25    54    52   ar
    26    24    25    1
    27    51    52    1
    28    51    48    1
    29    26    25   ar
    30    26    28   ar
    31    56    57   ar
    32    52    53   ar
    33    93    91    1
    34    25    27   ar
    35    28    29   ar
    36    92    91    1
    37    97    96    2
    38    27    29   ar
    39    91    88    1
    40    57    55   ar
    41    47    48    1
    42    43    42    2
    43    46    44    1
    44    32    31    1
    45    53    55   ar
    46    30    31    1
    47    44    45    1
    48    44    41    1
    49    98    99    1
    50    98    95    1
    51    48    49    1
    52    40    41    1
    53    99   100    1
    54   100    94    1
    55    96    95    1
    56    96   101   am
    57    31    34    1
    58    49    50    2
    59    34    35    1
    60   107   101    1
    61   107   106    1
    62    41    42    1
    63    94    95    1
    64    94    89   am
    65    88    89    1
    66    88    87    1
    67   101   102    1
    68    89    90    2
    69    36    35   ar
    70    36    38   ar
    71    35    37   ar
    72   106   105    1
    73   105   102    1
    74    87    82   am
    75   102   103    1
    76    38    39   ar
    77    37    39   ar
    78    63    62    1
    79    85    84    1
    80    83    82    2
    81    64    62    1
    82    78    77    1
    83    82    81    1
    84    79    77    1
    85    62    59    1
    86    70    69    1
    87   103   104    2
    88    77    76    1
    89    76    73    1
    90    84    81    1
    91    84    86    1
    92    81    80    1
    93    80    74   am
    94    71    69    1
    95    58    59    1
    96    69    66    1
    97    59    60    1
    98    73    74    1
    99    73    72    1
   100    74    75    2
   101    66    67    1
   102    66    65    1
   103   121   120   ar
   104   121   119   ar
   105    67    68    2
   106   120   118   ar
   107    60    61    2
   108   119   117   ar
   109   118   115   ar
   110   117   115   ar
   111   117   116   ar
   112   115   113   ar
   113   116   114   ar
   114   113   114   ar
   115   113   112    1
   116   109   112    1
   117   109   110    1
   118   109   108    1
   119   110   111    2
