@<TRIPOS>MOLECULE
tmp/5flqA00.pdb
 137 133 0 0 0
SMALL
GASTEIGER

@<TRIPOS>ATOM
      1  N        -12.6400    6.6830   11.1550 N.3    90  GLN90      -0.1245
      2  CA       -12.3920    5.5200   10.3370 C.3    90  GLN90       0.1566
      3  C        -12.6330    4.2410   11.1070 C.2    90  GLN90       0.2260
      4  O        -12.6700    4.2650   12.3390 O.2    90  GLN90      -0.2867
      5  CB       -10.9440    5.4960    9.8140 C.3    90  GLN90       0.0367
      6  CG        -9.8570    5.6240   10.8590 C.3    90  GLN90       0.0905
      7  CD        -9.0890    4.3400   11.1620 C.2    90  GLN90       0.2608
      8  OE1       -9.6120    3.2440   11.0860 O.2    90  GLN90      -0.2717
      9  NE2       -7.8630    4.4960   11.5490 N.am   90  GLN90      -0.0878
     10  N        -11.1740   -0.0650   10.8410 N.3    92  HIS92      -0.1241
     11  CA       -10.3220   -1.0590   10.2230 C.3    92  HIS92       0.1621
     12  C        -10.3990   -2.3210   11.0550 C.2    92  HIS92       0.2264
     13  O        -11.0260   -2.3240   12.1290 O.2    92  HIS92      -0.2867
     14  CB        -8.9000   -0.5720   10.1770 C.3    92  HIS92       0.0745
     15  CG        -8.3450   -0.2740   11.5250 C.ar   92  HIS92       0.0817
     16  ND1       -8.5510    0.9270   12.1590 N.ar   92  HIS92      -0.2268
     17  CD2       -7.6300   -1.0430   12.3810 C.ar   92  HIS92       0.1154
     18  CE1       -8.0160    0.8810   13.3660 C.ar   92  HIS92       0.1986
     19  NE2       -7.4660   -0.3110   13.5280 N.ar   92  HIS92      -0.2212
     20  N         -8.1240   -6.0430   12.4350 N.3    94  HIS94      -0.1241
     21  CA        -6.9200   -6.8670   12.5990 C.3    94  HIS94       0.1621
     22  C         -7.3340   -8.3050   12.4970 C.2    94  HIS94       0.2264
     23  O         -8.3670   -8.6660   13.0320 O.2    94  HIS94      -0.2867
     24  CB        -6.2720   -6.6080   13.9420 C.3    94  HIS94       0.0745
     25  CG        -5.9860   -5.1640   14.2080 C.ar   94  HIS94       0.0817
     26  ND1       -4.7460   -4.6150   13.9920 N.ar   94  HIS94      -0.2268
     27  CD2       -6.7770   -4.1480   14.6320 C.ar   94  HIS94       0.1154
     28  CE1       -4.7660   -3.3350   14.3080 C.ar   94  HIS94       0.1986
     29  NE2       -5.9710   -3.0270   14.7140 N.ar   94  HIS94      -0.2212
     30  N        -12.0080   -2.2060   14.8250 N.3   117  HIS117     -0.1241
     31  CA       -11.7910   -0.9750   15.5480 C.3   117  HIS117      0.1621
     32  C        -12.4430    0.1680   14.8420 C.2   117  HIS117      0.2264
     33  O        -12.0450    0.5040   13.7130 O.2   117  HIS117     -0.2867
     34  CB       -10.3060   -0.6990   15.6720 C.3   117  HIS117      0.0745
     35  CG        -9.6250   -1.6810   16.5610 C.ar  117  HIS117      0.0817
     36  ND1       -8.2730   -1.9370   16.5180 N.ar  117  HIS117     -0.2268
     37  CD2      -10.1230   -2.4900   17.5240 C.ar  117  HIS117      0.1154
     38  CE1       -7.9660   -2.8490   17.4210 C.ar  117  HIS117      0.1986
     39  NE2       -9.0700   -3.2070   18.0390 N.ar  117  HIS117     -0.2212
     40  N        -12.7800    3.9780   15.1150 N.3   119  VAL119     -0.1245
     41  CA       -11.9230    4.9990   15.7370 C.3   119  VAL119      0.1561
     42  C        -12.6540    6.3350   15.7770 C.2   119  VAL119      0.2260
     43  O        -13.1630    6.7860   14.7450 O.2   119  VAL119     -0.2867
     44  CB       -10.5960    5.1280   14.9800 C.3   119  VAL119      0.0252
     45  CG1       -9.6650    6.1380   15.6400 C.3   119  VAL119      0.0019
     46  CG2       -9.9250    3.7550   14.8670 C.3   119  VAL119      0.0019
     47  N         -8.2360   15.5600   14.7300 N.3   128  PHE128     -0.1241
     48  CA        -7.6780   14.2680   15.0770 C.3   128  PHE128      0.1605
     49  C         -6.2140   14.3810   15.5240 C.2   128  PHE128      0.2264
     50  O         -5.8080   13.7540   16.5180 O.2   128  PHE128     -0.2867
     51  CB        -7.8420   13.2950   13.8920 C.3   128  PHE128      0.0534
     52  CG        -7.2310   11.9490   14.1310 C.ar  128  PHE128     -0.0203
     53  CD1       -7.9490   10.9460   14.7300 C.ar  128  PHE128     -0.0042
     54  CD2       -5.9090   11.7130   13.7760 C.ar  128  PHE128     -0.0042
     55  CE1       -7.3690    9.7090   14.9620 C.ar  128  PHE128     -0.0003
     56  CE2       -5.3320   10.4830   13.9900 C.ar  128  PHE128     -0.0003
     57  CZ        -6.0720    9.4740   14.5640 C.ar  128  PHE128     -0.0000
     58  N         -4.9280   13.1520   19.3940 N.3   132  VAL132     -0.1245
     59  CA        -4.0260   12.0070   19.7220 C.3   132  VAL132      0.1561
     60  C         -2.8790   12.3860   20.7010 C.2   132  VAL132      0.2260
     61  O         -2.1740   11.5200   21.2310 O.2   132  VAL132     -0.2867
     62  CB        -3.4220   11.3050   18.4710 C.3   132  VAL132      0.0252
     63  CG1       -4.5100   10.6790   17.6090 C.3   132  VAL132      0.0019
     64  CG2       -2.5220   12.2350   17.6560 C.3   132  VAL132      0.0019
     65  N         -8.9520    9.9360   22.0710 N.3   138  LEU138     -0.1245
     66  CA        -9.6740    8.9850   21.1990 C.3   138  LEU138      0.1561
     67  C        -10.5390    8.0310   21.9970 C.2   138  LEU138      0.2260
     68  O        -10.2880    7.7760   23.1720 O.2   138  LEU138     -0.2867
     69  CB        -8.6670    8.1800   20.3680 C.3   138  LEU138      0.0270
     70  CG        -7.6980    8.8600   19.4150 C.3   138  LEU138      0.0019
     71  CD1       -7.0020    7.7980   18.5920 C.3   138  LEU138      0.0001
     72  CD2       -8.3290    9.8890   18.5080 C.3   138  LEU138      0.0001
     73  N        -11.9760    4.2250   21.0100 N.3   140  VAL140     -0.1245
     74  CA       -12.0090    3.1560   20.0270 C.3   140  VAL140      0.1561
     75  C        -12.9980    2.0850   20.5120 C.2   140  VAL140      0.2260
     76  O        -12.8840    1.5660   21.6310 O.2   140  VAL140     -0.2867
     77  CB       -10.6270    2.5720   19.6810 C.3   140  VAL140      0.0252
     78  CG1      -10.7640    1.5560   18.5650 C.3   140  VAL140      0.0019
     79  CG2       -9.7090    3.6990   19.2300 C.3   140  VAL140      0.0019
     80  N         -3.0070    3.4930   21.0990 N.3   195  LEU195     -0.1231
     81  CA        -3.0310    2.9690   19.7260 C.3   195  LEU195      0.1693
     82  C         -2.2540    1.6470   19.7680 C.2   195  LEU195      0.2593
     83  O         -1.2650    1.5460   20.4820 O.2   195  LEU195     -0.2718
     84  CB        -2.3020    3.9010   18.7650 C.3   195  LEU195      0.0284
     85  CG        -2.6200    5.3940   18.7960 C.3   195  LEU195      0.0019
     86  CD1       -1.7680    6.1170   17.7550 C.3   195  LEU195      0.0001
     87  CD2       -4.0880    5.6600   18.5900 C.3   195  LEU195      0.0001
     88  N         -2.7060    0.6440   19.0150 N.am  196  THR196     -0.1939
     89  CA        -2.0150   -0.6630   18.9670 C.3   196  THR196      0.2028
     90  C         -1.0070   -0.7610   17.8250 C.2   196  THR196      0.2643
     91  O         -0.3890   -1.8270   17.6590 O.2   196  THR196     -0.2714
     92  CB        -3.0200   -1.8350   18.8510 C.3   196  THR196      0.1808
     93  OG1       -3.6910   -1.7710   17.5810 O.3   196  THR196     -0.2208
     94  CG2       -4.0230   -1.8010   20.0090 C.3   196  THR196      0.0379
     95  N         -0.8140    0.3290   17.0750 N.am  197  THR197     -0.1937
     96  CA         0.2310    0.4280   16.0410 C.3   197  THR197      0.2013
     97  C          1.0530    1.6670   16.3260 C.2   197  THR197      0.2484
     98  O          0.5360    2.6040   16.9510 O.2   197  THR197     -0.2729
     99  CB        -0.3530    0.5590   14.6320 C.3   197  THR197      0.1807
    100  OG1       -1.3790    1.5810   14.6070 O.3   197  THR197     -0.2208
    101  CG2       -1.0190   -0.7740   14.2020 C.3   197  THR197      0.0379
    102  N          2.2980    1.6890   15.8150 N.am  198  PRO198     -0.2715
    103  CA         3.0700    2.9340   15.9050 C.3   198  PRO198      0.1521
    104  C          2.2340    4.1100   15.3840 C.2   198  PRO198      0.2440
    105  O          1.5950    3.9520   14.3190 O.2   198  PRO198     -0.2731
    106  CB         4.2710    2.6370   15.0290 C.3   198  PRO198      0.0310
    107  CG         4.5220    1.1600   15.2620 C.3   198  PRO198      0.0237
    108  CD         3.1190    0.5710   15.3060 C.3   198  PRO198      0.0939
    109  N          2.2410    5.2650   16.0470 N.am  199  PRO199     -0.2727
    110  CA         3.1860    5.6330   17.1210 C.3   199  PRO199      0.1402
    111  C          2.7910    5.2190   18.5540 C.2   199  PRO199      0.2269
    112  O          3.4200    5.6810   19.5150 O.2   199  PRO199     -0.2865
    113  CB         3.2260    7.1590   17.0080 C.3   199  PRO199      0.0296
    114  CG         1.9010    7.5280   16.4970 C.3   199  PRO199      0.0237
    115  CD         1.5040    6.4430   15.5480 C.3   199  PRO199      0.0939
    116  N          0.4970    5.8470   20.7050 N.3   201  LEU201     -0.1245
    117  CA         0.2220    6.9280   21.6310 C.3   201  LEU201      0.1561
    118  C         -0.8040    6.5260   22.6710 C.2   201  LEU201      0.2260
    119  O         -1.7810    5.8370   22.3810 O.2   201  LEU201     -0.2867
    120  CB        -0.2690    8.1780   20.8620 C.3   201  LEU201      0.0270
    121  CG         0.7580    8.7750   19.8770 C.3   201  LEU201      0.0019
    122  CD1        0.1190    9.8880   19.0480 C.3   201  LEU201      0.0001
    123  CD2        1.9720    9.2810   20.6070 C.3   201  LEU201      0.0001
    124  N        -10.5510    2.7030   25.5570 N.3   206  TRP206     -0.1241
    125  CA       -11.0070    1.4950   24.8890 C.3   206  TRP206      0.1605
    126  C        -12.3430    1.0800   25.3980 C.2   206  TRP206      0.2264
    127  O        -12.5800    1.0650   26.6150 O.2   206  TRP206     -0.2867
    128  CB        -9.9840    0.3390   25.0720 C.3   206  TRP206      0.0550
    129  CG        -8.8610    0.4680   24.1120 C.ar  206  TRP206      0.0003
    130  CD1       -7.6210    1.0160   24.3440 C.ar  206  TRP206      0.0946
    131  CD2       -8.8840    0.0900   22.7460 C.ar  206  TRP206      0.0152
    132  NE1       -6.8840    0.9900   23.1940 N.ar  206  TRP206     -0.2442
    133  CE2       -7.6190    0.3960   22.2090 C.ar  206  TRP206      0.0810
    134  CE3       -9.8330   -0.5500   21.9310 C.ar  206  TRP206      0.0012
    135  CZ2       -7.2980    0.1520   20.8880 C.ar  206  TRP206      0.0191
    136  CZ3       -9.5150   -0.7980   20.6190 C.ar  206  TRP206      0.0001
    137  CH2       -8.2510   -0.4920   20.1170 C.ar  206  TRP206      0.0015
@<TRIPOS>BOND
     1     5     2    1
     2     5     6    1
     3    14    11    1
     4    14    15    1
     5    11    10    1
     6    11    12    1
     7     2     3    1
     8     2     1    1
     9     6     7    1
    10    12    13    2
    11     8     7    2
    12     3     4    2
    13     7     9   am
    14    15    16   ar
    15    15    17   ar
    16    16    18   ar
    17    17    19   ar
    18    20    21    1
    19    22    21    1
    20    22    23    2
    21    21    24    1
    22    18    19   ar
    23    33    32    2
    24    54    56   ar
    25    54    52   ar
    26    51    52    1
    27    51    48    1
    28    24    25    1
    29    56    57   ar
    30    26    25   ar
    31    26    28   ar
    32    52    53   ar
    33   101    99    1
    34    25    27   ar
    35    28    29   ar
    36   105   104    2
    37    57    55   ar
    38   100    99    1
    39    99    96    1
    40    27    29   ar
    41    53    55   ar
    42    47    48    1
    43    43    42    2
    44    30    31    1
    45    32    31    1
    46    46    44    1
    47    44    45    1
    48    44    41    1
    49   106   107    1
    50   106   103    1
    51    48    49    1
    52    40    41    1
    53   107   108    1
    54   108   102    1
    55   104   103    1
    56   104   109   am
    57    49    50    2
    58    31    34    1
    59   115   109    1
    60   115   114    1
    61    34    35    1
    62    41    42    1
    63   102   103    1
    64   102    97   am
    65    96    97    1
    66    96    95    1
    67   109   110    1
    68    97    98    2
    69   114   113    1
    70    36    35   ar
    71    36    38   ar
    72    35    37   ar
    73   113   110    1
    74    95    90   am
    75   110   111    1
    76    38    39   ar
    77    37    39   ar
    78    93    92    1
    79    63    62    1
    80    64    62    1
    81    91    90    2
    82    86    85    1
    83    90    89    1
    84    62    59    1
    85    72    70    1
    86   111   112    2
    87    78    77    1
    88    87    85    1
    89    71    70    1
    90    84    85    1
    91    84    81    1
    92    92    89    1
    93    92    94    1
    94    89    88    1
    95    88    82   am
    96   122   121    1
    97    79    77    1
    98    58    59    1
    99    70    69    1
   100    77    74    1
   101    59    60    1
   102    81    82    1
   103    81    80    1
   104    82    83    2
   105   121   123    1
   106   121   120    1
   107    74    75    1
   108    74    73    1
   109   137   136   ar
   110   137   135   ar
   111    69    66    1
   112    75    76    2
   113   136   134   ar
   114    60    61    2
   115   116   117    1
   116   120   117    1
   117   135   133   ar
   118    66    67    1
   119    66    65    1
   120   117   118    1
   121   134   131   ar
   122    67    68    2
   123   133   131   ar
   124   133   132   ar
   125   119   118    2
   126   131   129   ar
   127   132   130   ar
   128   129   130   ar
   129   129   128    1
   130   125   128    1
   131   125   126    1
   132   125   124    1
   133   126   127    2
