@<TRIPOS>MOLECULE
tmp/5flrA00.pdb
 114 113 0 0 0
SMALL
GASTEIGER

@<TRIPOS>ATOM
      1  N        -12.6260    6.6090   11.1200 N.3    90  GLN90      -0.1245
      2  CA       -12.3620    5.4650   10.2770 C.3    90  GLN90       0.1566
      3  C        -12.6290    4.2060   11.0450 C.2    90  GLN90       0.2260
      4  O        -12.6760    4.2400   12.2810 O.2    90  GLN90      -0.2867
      5  CB       -10.9020    5.4670    9.7750 C.3    90  GLN90       0.0367
      6  CG        -9.8790    5.5340   10.8730 C.3    90  GLN90       0.0905
      7  CD        -9.1330    4.2250   11.0460 C.2    90  GLN90       0.2608
      8  OE1       -9.7110    3.1720   11.1530 O.2    90  GLN90      -0.2717
      9  NE2       -7.8460    4.3100   11.0270 N.am   90  GLN90      -0.0878
     10  N        -11.1350   -0.0610   10.9290 N.3    92  HIS92      -0.1241
     11  CA       -10.2840   -1.0460   10.3330 C.3    92  HIS92       0.1621
     12  C        -10.3470   -2.3100   11.1650 C.2    92  HIS92       0.2264
     13  O        -11.0430   -2.3570   12.1940 O.2    92  HIS92      -0.2867
     14  CB        -8.8870   -0.4910   10.2350 C.3    92  HIS92       0.0745
     15  CG        -8.2860   -0.2490   11.5900 C.ar   92  HIS92       0.0817
     16  ND1       -8.4300    0.9320   12.2630 N.ar   92  HIS92      -0.2268
     17  CD2       -7.6280   -1.0880   12.4440 C.ar   92  HIS92       0.1154
     18  CE1       -7.9090    0.8370   13.4780 C.ar   92  HIS92       0.1986
     19  NE2       -7.4560   -0.3980   13.6150 N.ar   92  HIS92      -0.2212
     20  N         -8.0860   -6.0400   12.5160 N.3    94  HIS94      -0.1241
     21  CA        -6.8920   -6.8600   12.6540 C.3    94  HIS94       0.1621
     22  C         -7.2950   -8.3050   12.5660 C.2    94  HIS94       0.2264
     23  O         -8.3660   -8.6510   13.0680 O.2    94  HIS94      -0.2867
     24  CB        -6.1970   -6.6300   14.0020 C.3    94  HIS94       0.0745
     25  CG        -5.9150   -5.1800   14.2960 C.ar   94  HIS94       0.0817
     26  ND1       -4.6870   -4.5910   14.0360 N.ar   94  HIS94      -0.2268
     27  CD2       -6.7520   -4.1740   14.6420 C.ar   94  HIS94       0.1154
     28  CE1       -4.7510   -3.3120   14.3880 C.ar   94  HIS94       0.1986
     29  NE2       -5.9990   -3.0220   14.6810 N.ar   94  HIS94      -0.2212
     30  N        -12.0160   -2.2000   14.8540 N.3   117  HIS117     -0.1241
     31  CA       -11.7740   -0.9800   15.6090 C.3   117  HIS117      0.1621
     32  C        -12.4200    0.1640   14.8830 C.2   117  HIS117      0.2264
     33  O        -11.9930    0.5010   13.7750 O.2   117  HIS117     -0.2867
     34  CB       -10.2370   -0.7040   15.6950 C.3   117  HIS117      0.0745
     35  CG        -9.5620   -1.6880   16.5990 C.ar  117  HIS117      0.0817
     36  ND1       -8.2020   -1.9340   16.6110 N.ar  117  HIS117     -0.2268
     37  CD2      -10.0970   -2.5460   17.4840 C.ar  117  HIS117      0.1154
     38  CE1       -7.9280   -2.8830   17.4850 C.ar  117  HIS117      0.1986
     39  NE2       -9.0620   -3.2510   18.0540 N.ar  117  HIS117     -0.2212
     40  N        -12.6750    3.9920   15.1460 N.3   119  VAL119     -0.1245
     41  CA       -11.8470    5.0110   15.7990 C.3   119  VAL119      0.1561
     42  C        -12.5850    6.3400   15.8090 C.2   119  VAL119      0.2260
     43  O        -13.0270    6.8140   14.7380 O.2   119  VAL119     -0.2867
     44  CB       -10.5080    5.1500   15.0490 C.3   119  VAL119      0.0252
     45  CG1       -9.6220    6.2020   15.6650 C.3   119  VAL119      0.0019
     46  CG2       -9.7740    3.8150   14.9160 C.3   119  VAL119      0.0019
     47  N         -8.0670   15.5800   14.7750 N.3   128  PHE128     -0.1241
     48  CA        -7.4730   14.2770   15.1560 C.3   128  PHE128      0.1605
     49  C         -6.0280   14.3860   15.6280 C.2   128  PHE128      0.2264
     50  O         -5.6130   13.7420   16.6230 O.2   128  PHE128     -0.2867
     51  CB        -7.6480   13.2620   13.9990 C.3   128  PHE128      0.0534
     52  CG        -7.0440   11.9330   14.2630 C.ar  128  PHE128     -0.0203
     53  CD1       -5.7070   11.6910   14.0220 C.ar  128  PHE128     -0.0042
     54  CD2       -7.7880   10.9640   14.8130 C.ar  128  PHE128     -0.0042
     55  CE1       -5.1320   10.4740   14.2690 C.ar  128  PHE128     -0.0003
     56  CE2       -7.2260    9.6940   15.0660 C.ar  128  PHE128     -0.0003
     57  CZ        -5.8960    9.4780   14.8220 C.ar  128  PHE128     -0.0000
     58  N        -11.9090    4.2480   20.9990 N.3   140  VAL140     -0.1245
     59  CA       -11.9040    3.1910   20.0100 C.3   140  VAL140      0.1561
     60  C        -12.9250    2.1700   20.5020 C.2   140  VAL140      0.2260
     61  O        -12.8070    1.6390   21.6320 O.2   140  VAL140     -0.2867
     62  CB       -10.5230    2.5890   19.6760 C.3   140  VAL140      0.0252
     63  CG1      -10.6830    1.5260   18.5930 C.3   140  VAL140      0.0019
     64  CG2       -9.6160    3.7160   19.1830 C.3   140  VAL140      0.0019
     65  N         -3.0570    3.6180   21.2210 N.3   195  LEU195     -0.1231
     66  CA        -3.1270    3.0920   19.8690 C.3   195  LEU195      0.1693
     67  C         -2.3530    1.7460   19.8920 C.2   195  LEU195      0.2593
     68  O         -1.2980    1.5920   20.5750 O.2   195  LEU195     -0.2718
     69  CB        -2.4090    4.0480   18.9600 C.3   195  LEU195      0.0284
     70  CG        -3.0140    5.4570   18.8300 C.3   195  LEU195      0.0019
     71  CD1       -2.1390    6.3130   17.9310 C.3   195  LEU195      0.0001
     72  CD2       -4.4490    5.4070   18.3730 C.3   195  LEU195      0.0001
     73  N         -2.7710    0.7640   19.0970 N.am  196  THR196     -0.1939
     74  CA        -2.0970   -0.5260   19.0240 C.3   196  THR196      0.2028
     75  C         -1.1120   -0.6520   17.9150 C.2   196  THR196      0.2643
     76  O         -0.4480   -1.6980   17.8240 O.2   196  THR196     -0.2714
     77  CB        -3.0650   -1.7000   18.9190 C.3   196  THR196      0.1808
     78  OG1       -3.6940   -1.6650   17.6330 O.3   196  THR196     -0.2208
     79  CG2       -4.0700   -1.6700   20.0290 C.3   196  THR196      0.0379
     80  N         -1.0020    0.3790   17.0560 N.am  197  THR197     -0.1937
     81  CA         0.1300    0.4410   16.0950 C.3   197  THR197      0.2013
     82  C          0.9170    1.7220   16.3450 C.2   197  THR197      0.2484
     83  O          0.3970    2.6740   16.9710 O.2   197  THR197     -0.2729
     84  CB        -0.3060    0.4350   14.6210 C.3   197  THR197      0.1807
     85  OG1       -0.7610    1.7150   14.2070 O.3   197  THR197     -0.2208
     86  CG2       -1.4160   -0.5760   14.3710 C.3   197  THR197      0.0379
     87  N          2.1810    1.7500   15.8680 N.am  198  PRO198     -0.2715
     88  CA         2.9110    2.9860   15.9560 C.3   198  PRO198      0.1521
     89  C          2.0650    4.1330   15.4370 C.2   198  PRO198      0.2440
     90  O          1.3690    4.0070   14.3730 O.2   198  PRO198     -0.2731
     91  CB         4.1710    2.6680   15.0930 C.3   198  PRO198      0.0310
     92  CG         4.4140    1.1990   15.3770 C.3   198  PRO198      0.0237
     93  CD         3.0000    0.6270   15.3860 C.3   198  PRO198      0.0939
     94  N          2.0570    5.2810   16.1020 N.am  199  PRO199     -0.2727
     95  CA         2.9870    5.6960   17.1420 C.3   199  PRO199      0.1402
     96  C          2.6600    5.2770   18.5710 C.2   199  PRO199      0.2269
     97  O          3.3760    5.7320   19.5190 O.2   199  PRO199     -0.2865
     98  CB         2.9010    7.2290   17.0560 C.3   199  PRO199      0.0296
     99  CG         1.5880    7.5170   16.5880 C.3   199  PRO199      0.0237
    100  CD         1.1910    6.3960   15.6590 C.3   199  PRO199      0.0939
    101  N        -10.5390    2.7820   25.6490 N.3   206  TRP206     -0.1241
    102  CA       -10.9510    1.5470   24.9380 C.3   206  TRP206      0.1605
    103  C        -12.3190    1.1640   25.4300 C.2   206  TRP206      0.2264
    104  O        -12.5620    1.1420   26.6380 O.2   206  TRP206     -0.2867
    105  CB        -9.9880    0.3400   25.1390 C.3   206  TRP206      0.0550
    106  CG        -8.8410    0.4890   24.1650 C.ar  206  TRP206      0.0003
    107  CD1       -7.6580    1.0540   24.3400 C.ar  206  TRP206      0.0946
    108  CD2       -8.9110    0.1190   22.7840 C.ar  206  TRP206      0.0152
    109  NE1       -6.9380    1.0700   23.1800 N.ar  206  TRP206     -0.2442
    110  CE2       -7.6750    0.4790   22.2040 C.ar  206  TRP206      0.0810
    111  CE3       -9.8880   -0.5090   21.9930 C.ar  206  TRP206      0.0012
    112  CZ2       -7.3920    0.2350   20.8730 C.ar  206  TRP206      0.0191
    113  CZ3       -9.6110   -0.7560   20.7230 C.ar  206  TRP206      0.0001
    114  CH2       -8.3730   -0.4480   20.1690 C.ar  206  TRP206      0.0015
@<TRIPOS>BOND
     1     5     2    1
     2     5     6    1
     3    14    11    1
     4    14    15    1
     5     2     3    1
     6     2     1    1
     7    11    10    1
     8    11    12    1
     9     6     7    1
    10     9     7   am
    11     3     4    2
    12     7     8    2
    13    12    13    2
    14    15    16   ar
    15    15    17   ar
    16    16    18   ar
    17    17    19   ar
    18    20    21    1
    19    22    21    1
    20    22    23    2
    21    21    24    1
    22    18    19   ar
    23    33    32    2
    24    51    52    1
    25    51    48    1
    26    24    25    1
    27    53    52   ar
    28    53    55   ar
    29    26    25   ar
    30    26    28   ar
    31    85    84    1
    32    52    54   ar
    33    55    57   ar
    34    25    27   ar
    35    86    84    1
    36    90    89    2
    37    28    29   ar
    38    84    81    1
    39    27    29   ar
    40    43    42    2
    41    47    48    1
    42    54    56   ar
    43    57    56   ar
    44    30    31    1
    45    32    31    1
    46    46    44    1
    47    44    45    1
    48    44    41    1
    49    91    92    1
    50    91    88    1
    51    40    41    1
    52    48    49    1
    53    92    93    1
    54    93    87    1
    55    89    88    1
    56    89    94   am
    57    31    34    1
    58    49    50    2
    59   100    94    1
    60   100    99    1
    61    34    35    1
    62    41    42    1
    63    87    88    1
    64    87    82   am
    65    81    82    1
    66    81    80    1
    67    94    95    1
    68    82    83    2
    69    99    98    1
    70    35    36   ar
    71    35    37   ar
    72    36    38   ar
    73    80    75   am
    74    98    95    1
    75    95    96    1
    76    37    39   ar
    77    38    39   ar
    78    78    77    1
    79    76    75    2
    80    75    74    1
    81    71    70    1
    82    72    70    1
    83    96    97    2
    84    63    62    1
    85    70    69    1
    86    77    74    1
    87    77    79    1
    88    69    66    1
    89    74    73    1
    90    73    67   am
    91    64    62    1
    92    62    59    1
    93    66    67    1
    94    66    65    1
    95    67    68    2
    96    59    60    1
    97    59    58    1
    98   114   113   ar
    99   114   112   ar
   100    60    61    2
   101   113   111   ar
   102   112   110   ar
   103   111   108   ar
   104   110   108   ar
   105   110   109   ar
   106   108   106   ar
   107   109   107   ar
   108   106   107   ar
   109   106   105    1
   110   102   105    1
   111   102   103    1
   112   102   101    1
   113   103   104    2
