@<TRIPOS>MOLECULE
tmp/5flsA00.pdb
 104 103 0 0 0
SMALL
GASTEIGER

@<TRIPOS>ATOM
      1  N          7.9290   -0.0830   10.1230 N.3     3  TRP3       -0.1241
      2  CA         7.3600   -1.0260   11.0350 C.3     3  TRP3        0.1605
      3  C          6.4100   -1.9280   10.2850 C.2     3  TRP3        0.2264
      4  O          5.8640   -1.5690    9.2300 O.2     3  TRP3       -0.2867
      5  CB         6.6650   -0.3240   12.1990 C.3     3  TRP3        0.0550
      6  CG         5.4780    0.4500   11.8700 C.ar    3  TRP3        0.0003
      7  CD1        5.4210    1.7790   11.5860 C.ar    3  TRP3        0.0946
      8  CD2        4.1400   -0.0350   11.8510 C.ar    3  TRP3        0.0152
      9  NE1        4.1220    2.1470   11.3520 N.ar    3  TRP3       -0.2442
     10  CE2        3.3100    1.0520   11.5440 C.ar    3  TRP3        0.0810
     11  CE3        3.5610   -1.2900   12.0990 C.ar    3  TRP3        0.0012
     12  CZ2        1.9280    0.9160   11.4120 C.ar    3  TRP3        0.0191
     13  CZ3        2.1930   -1.4230   11.9840 C.ar    3  TRP3        0.0001
     14  CH2        1.3840   -0.3320   11.6610 C.ar    3  TRP3        0.0015
     15  N        -12.5520    6.6780   11.2390 N.3    90  GLN90      -0.1245
     16  CA       -12.2580    5.5080   10.4130 C.3    90  GLN90       0.1566
     17  C        -12.5360    4.2540   11.1850 C.2    90  GLN90       0.2260
     18  O        -12.6080    4.2860   12.4260 O.2    90  GLN90      -0.2867
     19  CB       -10.8110    5.4990    9.8940 C.3    90  GLN90       0.0367
     20  CG        -9.7260    5.5900   10.9600 C.3    90  GLN90       0.0905
     21  CD        -9.0040    4.2730   11.2500 C.2    90  GLN90       0.2608
     22  OE1       -9.5810    3.1930   11.2530 O.2    90  GLN90      -0.2717
     23  NE2       -7.7280    4.3850   11.5470 N.am   90  GLN90      -0.0878
     24  N        -11.1630   -0.0520   10.9360 N.3    92  HIS92      -0.1241
     25  CA       -10.2930   -1.0320   10.3340 C.3    92  HIS92       0.1621
     26  C        -10.3990   -2.3110   11.1320 C.2    92  HIS92       0.2264
     27  O        -11.0620   -2.3550   12.1870 O.2    92  HIS92      -0.2867
     28  CB        -8.8730   -0.5570   10.3320 C.3    92  HIS92       0.0745
     29  CG        -8.3550   -0.2880   11.7030 C.ar   92  HIS92       0.0817
     30  ND1       -8.4660    0.9510   12.2920 N.ar   92  HIS92      -0.2268
     31  CD2       -7.7990   -1.1000   12.6300 C.ar   92  HIS92       0.1154
     32  CE1       -7.9810    0.8980   13.5170 C.ar   92  HIS92       0.1986
     33  NE2       -7.5840   -0.3380   13.7480 N.ar   92  HIS92      -0.2212
     34  N        -11.9880   -2.2440   14.8560 N.3   117  HIS117     -0.1241
     35  CA       -11.7860   -1.0150   15.6050 C.3   117  HIS117      0.1621
     36  C        -12.4230    0.1480   14.8990 C.2   117  HIS117      0.2264
     37  O        -12.0090    0.4900   13.7980 O.2   117  HIS117     -0.2867
     38  CB       -10.2980   -0.7420   15.7690 C.3   117  HIS117      0.0745
     39  CG        -9.6490   -1.7340   16.6560 C.ar  117  HIS117      0.0817
     40  ND1       -8.2960   -1.9600   16.6710 N.ar  117  HIS117     -0.2268
     41  CD2      -10.1830   -2.5950   17.5500 C.ar  117  HIS117      0.1154
     42  CE1       -8.0220   -2.9110   17.5410 C.ar  117  HIS117      0.1986
     43  NE2       -9.1450   -3.3120   18.0850 N.ar  117  HIS117     -0.2212
     44  N        -12.7100    3.9820   15.1650 N.3   119  VAL119     -0.1245
     45  CA       -11.8480    4.9790   15.7950 C.3   119  VAL119      0.1561
     46  C        -12.5480    6.3400   15.7930 C.2   119  VAL119      0.2260
     47  O        -13.0040    6.8120   14.7440 O.2   119  VAL119     -0.2867
     48  CB       -10.4960    5.0950   15.0780 C.3   119  VAL119      0.0252
     49  CG1       -9.6020    6.1300   15.7500 C.3   119  VAL119      0.0019
     50  CG2       -9.7930    3.7350   14.9990 C.3   119  VAL119      0.0019
     51  N         -8.1180   15.5280   14.7530 N.3   128  PHE128     -0.1241
     52  CA        -7.5990   14.2270   15.1170 C.3   128  PHE128      0.1605
     53  C         -6.1470   14.3030   15.5660 C.2   128  PHE128      0.2264
     54  O         -5.7640   13.6510   16.5290 O.2   128  PHE128     -0.2867
     55  CB        -7.7500   13.2740   13.9330 C.3   128  PHE128      0.0534
     56  CG        -7.2400   11.9050   14.1900 C.ar  128  PHE128     -0.0203
     57  CD1       -8.0100   11.0030   14.9040 C.ar  128  PHE128     -0.0042
     58  CD2       -5.9850   11.5220   13.7550 C.ar  128  PHE128     -0.0042
     59  CE1       -7.5510    9.7220   15.1480 C.ar  128  PHE128     -0.0003
     60  CE2       -5.5160   10.2400   13.9970 C.ar  128  PHE128     -0.0003
     61  CZ        -6.3120    9.3370   14.6830 C.ar  128  PHE128     -0.0000
     62  N         -4.8880   12.9990   19.4150 N.3   132  VAL132     -0.1245
     63  CA        -3.9770   11.8800   19.7470 C.3   132  VAL132      0.1561
     64  C         -2.8690   12.2590   20.7550 C.2   132  VAL132      0.2260
     65  O         -2.1790   11.3880   21.2890 O.2   132  VAL132     -0.2867
     66  CB        -3.3580   11.1950   18.4800 C.3   132  VAL132      0.0252
     67  CG1       -4.4410   10.6080   17.5900 C.3   132  VAL132      0.0019
     68  CG2       -2.4580   12.1490   17.6900 C.3   132  VAL132      0.0019
     69  N         -3.0820    3.5510   21.1790 N.3   195  LEU195     -0.1231
     70  CA        -3.1260    3.0390   19.8100 C.3   195  LEU195      0.1693
     71  C         -2.3980    1.6990   19.8120 C.2   195  LEU195      0.2593
     72  O         -1.4470    1.5460   20.5550 O.2   195  LEU195     -0.2718
     73  CB        -2.3820    3.9770   18.8940 C.3   195  LEU195      0.0284
     74  CG        -2.8240    5.4310   18.8350 C.3   195  LEU195      0.0019
     75  CD1       -1.9680    6.1780   17.8170 C.3   195  LEU195      0.0001
     76  CD2       -4.2930    5.5200   18.4960 C.3   195  LEU195      0.0001
     77  N         -2.8480    0.7360   19.0050 N.am  196  THR196     -0.1939
     78  CA        -2.1440   -0.5530   18.9350 C.3   196  THR196      0.2028
     79  C         -1.1680   -0.6850   17.7770 C.2   196  THR196      0.2643
     80  O         -0.5390   -1.7280   17.6330 O.2   196  THR196     -0.2714
     81  CB        -3.1350   -1.7130   18.8760 C.3   196  THR196      0.1808
     82  OG1       -3.8830   -1.6570   17.6500 O.3   196  THR196     -0.2208
     83  CG2       -4.0750   -1.6910   20.0710 C.3   196  THR196      0.0379
     84  N         -1.0630    0.3480   16.9540 N.am  197  THR197     -0.1937
     85  CA         0.0360    0.4730   15.9660 C.3   197  THR197      0.2013
     86  C          0.8990    1.6720   16.3100 C.2   197  THR197      0.2484
     87  O          0.4100    2.6120   16.9540 O.2   197  THR197     -0.2729
     88  CB        -0.4520    0.6180   14.5010 C.3   197  THR197      0.1807
     89  OG1       -0.9520    1.9440   14.2400 O.3   197  THR197     -0.2208
     90  CG2       -1.4860   -0.4090   14.1590 C.3   197  THR197      0.0379
     91  N          2.1710    1.6740   15.8420 N.am  198  PRO198     -0.2715
     92  CA         2.9130    2.9270   15.9120 C.3   198  PRO198      0.1521
     93  C          2.0520    4.0900   15.3860 C.2   198  PRO198      0.2440
     94  O          1.3600    3.9250   14.3640 O.2   198  PRO198     -0.2731
     95  CB         4.1290    2.6390   15.0220 C.3   198  PRO198      0.0310
     96  CG         4.3880    1.1660   15.2370 C.3   198  PRO198      0.0237
     97  CD         2.9850    0.5930   15.2480 C.3   198  PRO198      0.0939
     98  N          2.0540    5.2510   16.0400 N.am  199  PRO199     -0.2727
     99  CA         2.9690    5.6440   17.1240 C.3   199  PRO199      0.1402
    100  C          2.6360    5.2070   18.5480 C.2   199  PRO199      0.2269
    101  O          3.3240    5.6160   19.5010 O.2   199  PRO199     -0.2865
    102  CB         2.9180    7.1750   17.0320 C.3   199  PRO199      0.0296
    103  CG         1.5710    7.4730   16.5280 C.3   199  PRO199      0.0237
    104  CD         1.2210    6.3760   15.5840 C.3   199  PRO199      0.0939
@<TRIPOS>BOND
     1     4     3    2
     2    19    16    1
     3    19    20    1
     4     1     2    1
     5     3     2    1
     6    28    25    1
     7    28    29    1
     8    25    24    1
     9    25    26    1
    10    16    17    1
    11    16    15    1
    12    20    21    1
    13     2     5    1
    14    26    27    2
    15    17    18    2
    16    21    22    2
    17    21    23   am
    18     9    10   ar
    19     9     7   ar
    20    12    10   ar
    21    12    14   ar
    22    10     8   ar
    23     7     6   ar
    24    14    13   ar
    25    29    30   ar
    26    29    31   ar
    27     8     6   ar
    28     8    11   ar
    29     6     5    1
    30    13    11   ar
    31    30    32   ar
    32    31    33   ar
    33    32    33   ar
    34    58    60   ar
    35    58    56   ar
    36    37    36    2
    37    55    56    1
    38    55    52    1
    39    60    61   ar
    40    90    88    1
    41    56    57   ar
    42    89    88    1
    43    94    93    2
    44    88    85    1
    45    61    59   ar
    46    47    46    2
    47    51    52    1
    48    34    35    1
    49    36    35    1
    50    57    59   ar
    51    50    48    1
    52    95    96    1
    53    95    92    1
    54    48    49    1
    55    48    45    1
    56    52    53    1
    57    44    45    1
    58    96    97    1
    59    97    91    1
    60    93    92    1
    61    93    98   am
    62    53    54    2
    63   104    98    1
    64   104   103    1
    65    35    38    1
    66    38    39    1
    67    46    45    1
    68    91    92    1
    69    91    86   am
    70    85    86    1
    71    85    84    1
    72    98    99    1
    73    86    87    2
    74   103   102    1
    75    39    40   ar
    76    39    41   ar
    77    40    42   ar
    78    84    79   am
    79   102    99    1
    80    99   100    1
    81    42    43   ar
    82    41    43   ar
    83    67    66    1
    84    80    79    2
    85    82    81    1
    86    68    66    1
    87    79    78    1
    88    75    74    1
    89    66    63    1
    90    76    74    1
    91   100   101    2
    92    74    73    1
    93    81    78    1
    94    81    83    1
    95    73    70    1
    96    78    77    1
    97    77    71   am
    98    62    63    1
    99    63    64    1
   100    70    71    1
   101    70    69    1
   102    71    72    2
   103    64    65    2
