@<TRIPOS>MOLECULE
tmp/5fltA00.pdb
 123 120 0 0 0
SMALL
GASTEIGER

@<TRIPOS>ATOM
      1  N        -12.5640    6.6830   11.2900 N.3    90  GLN90      -0.1245
      2  CA       -12.2690    5.5870   10.4530 C.3    90  GLN90       0.1566
      3  C        -12.5110    4.2660   11.1620 C.2    90  GLN90       0.2260
      4  O        -12.5960    4.2640   12.3990 O.2    90  GLN90      -0.2867
      5  CB       -10.8100    5.5490    9.9720 C.3    90  GLN90       0.0367
      6  CG        -9.7800    5.6160   11.0590 C.3    90  GLN90       0.0905
      7  CD        -8.9230    4.3510   11.2260 C.2    90  GLN90       0.2608
      8  OE1       -9.4520    3.2770   11.3400 O.2    90  GLN90      -0.2717
      9  NE2       -7.6450    4.4950   11.1750 N.am   90  GLN90      -0.0878
     10  N        -11.0110   -0.0320   10.9720 N.3    92  HIS92      -0.1241
     11  CA       -10.1670   -0.9940   10.3610 C.3    92  HIS92       0.1621
     12  C        -10.2450   -2.2460   11.1790 C.2    92  HIS92       0.2264
     13  O        -10.9170   -2.2940   12.2040 O.2    92  HIS92      -0.2867
     14  CB        -8.7490   -0.5620   10.3070 C.3    92  HIS92       0.0745
     15  CG        -8.1790   -0.2600   11.6570 C.ar   92  HIS92       0.0817
     16  ND1       -8.3820    0.9620   12.2580 N.ar   92  HIS92      -0.2268
     17  CD2       -7.5170   -1.0190   12.5760 C.ar   92  HIS92       0.1154
     18  CE1       -7.8470    0.9800   13.4440 C.ar   92  HIS92       0.1986
     19  NE2       -7.3330   -0.2180   13.6730 N.ar   92  HIS92      -0.2212
     20  N        -11.8620   -2.1980   14.8830 N.3   117  HIS117     -0.1241
     21  CA       -11.6050   -0.9670   15.5940 C.3   117  HIS117      0.1621
     22  C        -12.3200    0.1660   14.9140 C.2   117  HIS117      0.2264
     23  O        -11.9060    0.5370   13.8230 O.2   117  HIS117     -0.2867
     24  CB       -10.1240   -0.6820   15.6800 C.3   117  HIS117      0.0745
     25  CG        -9.4560   -1.6720   16.5900 C.ar  117  HIS117      0.0817
     26  ND1       -8.0760   -1.9150   16.6090 N.ar  117  HIS117     -0.2268
     27  CD2      -10.0080   -2.4910   17.5140 C.ar  117  HIS117      0.1154
     28  CE1       -7.8630   -2.8700   17.5050 C.ar  117  HIS117      0.1986
     29  NE2       -8.9860   -3.2120   18.0680 N.ar  117  HIS117     -0.2212
     30  N        -12.6410    3.9850   15.2000 N.3   119  VAL119     -0.1245
     31  CA       -11.7930    4.9990   15.8470 C.3   119  VAL119      0.1561
     32  C        -12.4880    6.3710   15.8500 C.2   119  VAL119      0.2260
     33  O        -12.9940    6.7960   14.7980 O.2   119  VAL119     -0.2867
     34  CB       -10.4450    5.1050   15.1530 C.3   119  VAL119      0.0252
     35  CG1       -9.5350    6.1120   15.7930 C.3   119  VAL119      0.0019
     36  CG2       -9.7520    3.7390   15.0180 C.3   119  VAL119      0.0019
     37  N         -8.1330   15.4970   14.8390 N.3   128  PHE128     -0.1227
     38  CA        -7.5320   14.2420   15.2010 C.3   128  PHE128      0.1736
     39  C         -6.1090   14.3820   15.6710 C.2   128  PHE128      0.2596
     40  O         -5.7140   13.7350   16.6280 O.2   128  PHE128     -0.2718
     41  CB        -7.7010   13.2270   14.0250 C.3   128  PHE128      0.0547
     42  CG        -7.1090   11.8830   14.2940 C.ar  128  PHE128     -0.0202
     43  CD1       -7.8550   10.9170   14.9180 C.ar  128  PHE128     -0.0042
     44  CD2       -5.8150   11.5920   13.9500 C.ar  128  PHE128     -0.0042
     45  CE1       -7.3310    9.6870   15.2400 C.ar  128  PHE128     -0.0003
     46  CE2       -5.2880   10.3640   14.2350 C.ar  128  PHE128     -0.0003
     47  CZ        -6.0510    9.3850   14.8260 C.ar  128  PHE128     -0.0000
     48  N         -5.2620   15.1200   14.9160 N.am  129  GLY129     -0.1957
     49  CA        -3.8910   15.2520   15.3210 C.3   129  GLY129      0.1869
     50  C         -3.6630   15.8950   16.6740 C.2   129  GLY129      0.2309
     51  O         -2.6970   15.5990   17.3640 O.2   129  GLY129     -0.2863
     52  N         -4.8080   13.1470   19.5220 N.3   132  VAL132     -0.1245
     53  CA        -3.9260   12.0280   19.8870 C.3   132  VAL132      0.1561
     54  C         -2.8090   12.4020   20.8310 C.2   132  VAL132      0.2260
     55  O         -2.1380   11.5410   21.4030 O.2   132  VAL132     -0.2867
     56  CB        -3.2900   11.3120   18.6440 C.3   132  VAL132      0.0252
     57  CG1       -4.3260   10.7300   17.7520 C.3   132  VAL132      0.0019
     58  CG2       -2.3880   12.2690   17.8610 C.3   132  VAL132      0.0019
     59  N        -11.8910    4.2200   21.0870 N.3   140  VAL140     -0.1245
     60  CA       -11.9150    3.1420   20.1090 C.3   140  VAL140      0.1561
     61  C        -12.8990    2.1030   20.5990 C.2   140  VAL140      0.2260
     62  O        -12.7910    1.5940   21.7270 O.2   140  VAL140     -0.2867
     63  CB       -10.5550    2.5280   19.7710 C.3   140  VAL140      0.0252
     64  CG1      -10.7140    1.5010   18.6400 C.3   140  VAL140      0.0019
     65  CG2       -9.5820    3.5970   19.3530 C.3   140  VAL140      0.0019
     66  N         -3.0610    3.5130   21.1410 N.3   195  LEU195     -0.1231
     67  CA        -3.1080    3.0480   19.7460 C.3   195  LEU195      0.1693
     68  C         -2.3540    1.7400   19.7800 C.2   195  LEU195      0.2593
     69  O         -1.3620    1.6010   20.4940 O.2   195  LEU195     -0.2718
     70  CB        -2.4460    4.0300   18.8230 C.3   195  LEU195      0.0284
     71  CG        -3.0030    5.4530   18.8050 C.3   195  LEU195      0.0019
     72  CD1       -2.2090    6.2710   17.8280 C.3   195  LEU195      0.0001
     73  CD2       -4.4210    5.3780   18.3870 C.3   195  LEU195      0.0001
     74  N         -2.7790    0.7720   18.9490 N.am  196  THR196     -0.1939
     75  CA        -2.0780   -0.5190   18.8910 C.3   196  THR196      0.2028
     76  C         -1.0890   -0.6320   17.7260 C.2   196  THR196      0.2643
     77  O         -0.4880   -1.6960   17.5910 O.2   196  THR196     -0.2714
     78  CB        -3.0360   -1.6810   18.8990 C.3   196  THR196      0.1808
     79  OG1       -3.7180   -1.7400   17.6170 O.3   196  THR196     -0.2208
     80  CG2       -3.9740   -1.6450   20.0510 C.3   196  THR196      0.0379
     81  N         -0.9340    0.4220   16.9480 N.am  197  THR197     -0.1937
     82  CA         0.1080    0.5690   15.9160 C.3   197  THR197      0.2013
     83  C          0.9690    1.7710   16.2910 C.2   197  THR197      0.2484
     84  O          0.4560    2.7110   16.8980 O.2   197  THR197     -0.2729
     85  CB        -0.4620    0.6930   14.5400 C.3   197  THR197      0.1807
     86  OG1       -1.2970    1.8680   14.4070 O.3   197  THR197     -0.2208
     87  CG2       -1.2860   -0.5350   14.1880 C.3   197  THR197      0.0379
     88  N          2.2130    1.7980   15.8060 N.am  198  PRO198     -0.2715
     89  CA         3.0020    3.0240   15.9030 C.3   198  PRO198      0.1521
     90  C          2.1670    4.1890   15.3710 C.2   198  PRO198      0.2440
     91  O          1.5300    4.0510   14.2510 O.2   198  PRO198     -0.2731
     92  CB         4.1840    2.6820   15.0170 C.3   198  PRO198      0.0310
     93  CG         4.4440    1.1790   15.2630 C.3   198  PRO198      0.0237
     94  CD         2.9840    0.6830   15.2300 C.3   198  PRO198      0.0939
     95  N          2.1420    5.3430   16.0350 N.am  199  PRO199     -0.2727
     96  CA         3.0320    5.7250   17.1370 C.3   199  PRO199      0.1402
     97  C          2.6880    5.3070   18.5870 C.2   199  PRO199      0.2269
     98  O          3.3850    5.7110   19.5600 O.2   199  PRO199     -0.2865
     99  CB         3.0220    7.2360   17.0320 C.3   199  PRO199      0.0296
    100  CG         1.7420    7.5840   16.5460 C.3   199  PRO199      0.0237
    101  CD         1.3640    6.5060   15.5650 C.3   199  PRO199      0.0939
    102  N          0.4430    5.8730   20.7120 N.3   201  LEU201     -0.1245
    103  CA         0.2250    6.9530   21.6660 C.3   201  LEU201      0.1561
    104  C         -0.7890    6.5650   22.6890 C.2   201  LEU201      0.2260
    105  O         -1.8070    5.9160   22.3870 O.2   201  LEU201     -0.2867
    106  CB        -0.2310    8.2200   20.8990 C.3   201  LEU201      0.0270
    107  CG         0.8510    8.7900   19.9300 C.3   201  LEU201      0.0019
    108  CD1        0.1920    9.8230   19.0360 C.3   201  LEU201      0.0001
    109  CD2        2.0110    9.3830   20.6750 C.3   201  LEU201      0.0001
    110  N        -10.5220    2.7480   25.6790 N.3   206  TRP206     -0.1241
    111  CA       -10.9750    1.5480   24.9540 C.3   206  TRP206      0.1605
    112  C        -12.3130    1.1410   25.4560 C.2   206  TRP206      0.2264
    113  O        -12.5490    1.0900   26.6790 O.2   206  TRP206     -0.2867
    114  CB        -9.9760    0.3650   25.1780 C.3   206  TRP206      0.0550
    115  CG        -8.8330    0.5020   24.1980 C.ar  206  TRP206      0.0003
    116  CD1       -7.6410    1.0440   24.4060 C.ar  206  TRP206      0.0946
    117  CD2       -8.8800    0.0760   22.8440 C.ar  206  TRP206      0.0152
    118  NE1       -6.9060    1.0260   23.2410 N.ar  206  TRP206     -0.2442
    119  CE2       -7.6490    0.4010   22.2670 C.ar  206  TRP206      0.0810
    120  CE3       -9.8340   -0.5980   22.0740 C.ar  206  TRP206      0.0012
    121  CZ2       -7.3350    0.0880   20.9720 C.ar  206  TRP206      0.0191
    122  CZ3       -9.5430   -0.8520   20.7920 C.ar  206  TRP206      0.0001
    123  CH2       -8.3080   -0.5420   20.2390 C.ar  206  TRP206      0.0015
@<TRIPOS>BOND
     1     5     2    1
     2     5     6    1
     3    14    11    1
     4    14    15    1
     5    11    10    1
     6    11    12    1
     7     2     3    1
     8     2     1    1
     9     6     7    1
    10     3     4    2
    11     9     7   am
    12    12    13    2
    13     7     8    2
    14    15    16   ar
    15    15    17   ar
    16    16    18   ar
    17    17    19   ar
    18    18    19   ar
    19    23    22    2
    20    44    46   ar
    21    44    42   ar
    22    41    42    1
    23    41    38    1
    24    87    85    1
    25    46    47   ar
    26    91    90    2
    27    42    43   ar
    28    86    85    1
    29    85    82    1
    30    33    32    2
    31    47    45   ar
    32    37    38    1
    33    20    21    1
    34    22    21    1
    35    48    49    1
    36    48    39   am
    37    43    45   ar
    38    92    93    1
    39    92    89    1
    40    36    34    1
    41    34    35    1
    42    34    31    1
    43    30    31    1
    44    38    39    1
    45    94    93    1
    46    94    88    1
    47    49    50    1
    48    90    89    1
    49    90    95   am
    50   101    95    1
    51   101   100    1
    52    21    24    1
    53    39    40    2
    54    24    25    1
    55    88    89    1
    56    88    83   am
    57    31    32    1
    58    82    83    1
    59    82    81    1
    60    95    96    1
    61    83    84    2
    62   100    99    1
    63    25    26   ar
    64    25    27   ar
    65    26    28   ar
    66    50    51    2
    67    81    76   am
    68    99    96    1
    69    96    97    1
    70    28    29   ar
    71    27    29   ar
    72    77    76    2
    73    79    78    1
    74    76    75    1
    75    57    56    1
    76    72    71    1
    77    58    56    1
    78    73    71    1
    79    97    98    2
    80    64    63    1
    81    56    53    1
    82    71    70    1
    83    70    67    1
    84    75    78    1
    85    75    74    1
    86    78    80    1
    87    74    68   am
    88   108   107    1
    89    65    63    1
    90    52    53    1
    91    67    68    1
    92    67    66    1
    93    63    60    1
    94    68    69    2
    95    53    54    1
    96   107   109    1
    97   107   106    1
    98    60    61    1
    99    60    59    1
   100   123   122   ar
   101   123   121   ar
   102    61    62    2
   103   102   103    1
   104   122   120   ar
   105    54    55    2
   106   106   103    1
   107   121   119   ar
   108   103   104    1
   109   120   117   ar
   110   119   117   ar
   111   119   118   ar
   112   105   104    2
   113   117   115   ar
   114   118   116   ar
   115   115   116   ar
   116   115   114    1
   117   111   114    1
   118   111   112    1
   119   111   110    1
   120   112   113    2
