@<TRIPOS>MOLECULE
tmp/5flvA00.pdb
 92 91 0 0 0
SMALL
GASTEIGER

@<TRIPOS>ATOM
      1  N        -20.6640   25.6840   11.8630 N.3    53  GLY53      -0.1210
      2  CA       -19.7240   26.7200   12.2490 C.3    53  GLY53       0.1956
      3  C        -18.4980   26.1680   12.9510 C.2    53  GLY53       0.2612
      4  O        -18.5880   25.6310   14.0550 O.2    53  GLY53      -0.2717
      5  N        -17.3480   26.2990   12.2990 N.am   54  ILE54      -0.1965
      6  CA       -16.0770   25.8310   12.8460 C.3    54  ILE54       0.1727
      7  C        -15.0360   26.9390   12.7560 C.2    54  ILE54       0.2616
      8  O        -14.8840   27.5630   11.7080 O.2    54  ILE54      -0.2715
      9  CB       -15.5570   24.5840   12.1090 C.3    54  ILE54       0.0290
     10  CG1      -16.6090   23.4740   12.1170 C.3    54  ILE54       0.0022
     11  CG2      -14.2640   24.0950   12.7410 C.3    54  ILE54       0.0023
     12  CD1      -16.2120   22.2570   11.3050 C.3    54  ILE54       0.0001
     13  N        -14.3170   27.1860   13.8450 N.am   55  LYS55      -0.1963
     14  CA       -13.3580   28.2840   13.8610 C.3    55  LYS55       0.1728
     15  C        -11.9420   27.7990   14.1530 C.2    55  LYS55       0.2616
     16  O        -11.6930   27.1050   15.1400 O.2    55  LYS55      -0.2715
     17  CB       -13.7770   29.3400   14.8860 C.3    55  LYS55       0.0311
     18  CG       -13.7930   30.7530   14.3290 C.3    55  LYS55       0.0038
     19  CD       -14.4290   31.7290   15.3000 C.3    55  LYS55       0.0206
     20  CE       -14.6090   33.0950   14.6590 C.3    55  LYS55       0.1093
     21  NZ       -15.4640   33.0240   13.4400 N.3    55  LYS55      -0.1314
     22  N        -11.0210   28.1850   13.2760 N.am   56  VAL56      -0.1963
     23  CA        -9.6220   27.7880   13.3730 C.3    56  VAL56       0.1727
     24  C         -8.7380   29.0100   13.5810 C.2    56  VAL56       0.2616
     25  O         -8.9010   30.0200   12.9030 O.2    56  VAL56      -0.2715
     26  CB        -9.1690   27.0330   12.1150 C.3    56  VAL56       0.0290
     27  CG1       -7.7030   26.6550   12.2210 C.3    56  VAL56       0.0023
     28  CG2      -10.0230   25.7970   11.9100 C.3    56  VAL56       0.0023
     29  N         -7.7980   28.9150   14.5150 N.am   57  PHE57      -0.1960
     30  CA        -6.9600   30.0560   14.8540 C.3    57  PHE57       0.1771
     31  C         -5.4830   29.7350   14.6900 C.2    57  PHE57       0.2619
     32  O         -4.9770   28.7960   15.2960 O.2    57  PHE57      -0.2715
     33  CB        -7.2170   30.4870   16.2970 C.3    57  PHE57       0.0574
     34  CG        -8.6360   30.8800   16.5710 C.ar   57  PHE57      -0.0200
     35  CD1       -9.0770   32.1670   16.3150 C.ar   57  PHE57      -0.0042
     36  CD2       -9.5320   29.9590   17.0890 C.ar   57  PHE57      -0.0042
     37  CE1      -10.3860   32.5280   16.5720 C.ar   57  PHE57      -0.0003
     38  CE2      -10.8410   30.3140   17.3470 C.ar   57  PHE57      -0.0003
     39  CZ       -11.2690   31.6000   17.0880 C.ar   57  PHE57      -0.0000
     40  N         -4.7890   30.5140   13.8700 N.am   58  LEU58      -0.1977
     41  CA        -3.3570   30.3200   13.7010 C.3    58  LEU58       0.1596
     42  C         -2.5990   30.9600   14.8560 C.2    58  LEU58       0.2287
     43  O         -2.6410   32.1760   15.0180 O.2    58  LEU58      -0.2864
     44  CB        -2.8880   30.9160   12.3750 C.3    58  LEU58       0.0297
     45  CG        -1.3780   30.8800   12.1350 C.3    58  LEU58       0.0022
     46  CD1       -0.8790   29.4460   12.0090 C.3    58  LEU58       0.0001
     47  CD2       -1.0060   31.7040   10.9110 C.3    58  LEU58       0.0001
     48  N          0.7090   34.1420   15.1350 N.3    61  ARG61      -0.1245
     49  CA         0.4690   34.8200   13.8730 C.3    61  ARG61       0.1563
     50  C          1.4180   35.9960   13.6930 C.2    61  ARG61       0.2260
     51  O          1.8120   36.3230   12.5740 O.2    61  ARG61      -0.2867
     52  CB        -0.9670   35.3280   13.8030 C.3    61  ARG61       0.0307
     53  CG        -1.3310   35.9050   12.4560 C.3    61  ARG61       0.0489
     54  CD        -2.6140   36.6880   12.5430 C.3    61  ARG61       0.2205
     55  NE        -3.0030   37.2420   11.2520 N.pl3  61  ARG61      -0.0865
     56  CZ        -3.8210   38.2780   11.1170 C.cat  61  ARG61       0.5346
     57  NH1       -4.2820   38.8850   12.1980 N.pl3  61  ARG61       0.1354
     58  NH2       -4.1430   38.7350    9.9150 N.pl3  61  ARG61       0.1354
     59  N        -14.2730   21.2280    6.0300 N.3   190  SER190     -0.1202
     60  CA       -14.0590   22.6610    5.8720 C.3   190  SER190      0.2020
     61  C        -12.5830   22.9750    5.6740 C.2   190  SER190      0.2619
     62  O        -11.7200   22.3950    6.3340 O.2   190  SER190     -0.2717
     63  CB       -14.5910   23.4270    7.0820 C.3   190  SER190      0.2103
     64  OG       -13.8790   23.0740    8.2540 O.3   190  SER190     -0.2182
     65  N        -12.2990   23.8950    4.7600 N.am  191  THR191     -0.1938
     66  CA       -10.9260   24.2640    4.4520 C.3   191  THR191      0.2028
     67  C        -10.6380   25.6570    4.9950 C.2   191  THR191      0.2642
     68  O        -11.4320   26.5800    4.8140 O.2   191  THR191     -0.2714
     69  CB       -10.6570   24.2250    2.9370 C.3   191  THR191      0.1808
     70  OG1      -10.8740   22.8960    2.4470 O.3   191  THR191     -0.2208
     71  CG2       -9.2260   24.6450    2.6310 C.3   191  THR191      0.0379
     72  N         -9.4960   25.8050    5.6580 N.am  192  HIS192     -0.1973
     73  CA        -9.1020   27.0860    6.2240 C.3   192  HIS192      0.1656
     74  C         -7.7450   27.5220    5.6790 C.2   192  HIS192      0.2291
     75  O         -6.7470   26.8180    5.8370 O.2   192  HIS192     -0.2864
     76  CB        -9.0590   26.9990    7.7520 C.3   192  HIS192      0.0771
     77  CG       -10.3670   26.6070    8.3710 C.ar  192  HIS192      0.0820
     78  ND1      -11.2070   27.5220    8.9750 N.ar  192  HIS192     -0.2267
     79  CD2      -10.9710   25.4060    8.4860 C.ar  192  HIS192      0.1154
     80  CE1      -12.2770   26.8920    9.4300 C.ar  192  HIS192      0.1986
     81  NE2      -12.1610   25.6090    9.1490 N.ar  192  HIS192     -0.2212
     82  N         -4.7020   30.5330    5.2900 N.3   194  PHE194     -0.1241
     83  CA        -4.0790   31.7330    5.8410 C.3   194  PHE194      0.1605
     84  C         -3.0560   32.3080    4.8610 C.2   194  PHE194      0.2264
     85  O         -1.9450   31.7930    4.7480 O.2   194  PHE194     -0.2867
     86  CB        -3.4150   31.4270    7.1840 C.3   194  PHE194      0.0534
     87  CG        -4.3750   30.9690    8.2440 C.ar  194  PHE194     -0.0203
     88  CD1       -4.7320   29.6350    8.3490 C.ar  194  PHE194     -0.0042
     89  CD2       -4.9220   31.8740    9.1380 C.ar  194  PHE194     -0.0042
     90  CE1       -5.6140   29.2130    9.3230 C.ar  194  PHE194     -0.0003
     91  CE2       -5.8050   31.4560   10.1160 C.ar  194  PHE194     -0.0003
     92  CZ        -6.1510   30.1240   10.2070 C.ar  194  PHE194     -0.0000
@<TRIPOS>BOND
     1    70    69    1
     2    71    69    1
     3    69    66    1
     4    66    65    1
     5    66    67    1
     6    85    84    2
     7    65    61   am
     8    68    67    2
     9    84    83    1
    10    67    72   am
    11    82    83    1
    12    72    73    1
    13    61    60    1
    14    61    62    2
    15    74    75    2
    16    74    73    1
    17    83    86    1
    18    60    59    1
    19    60    63    1
    20    73    76    1
    21    63    64    1
    22    86    87    1
    23    76    77    1
    24    87    88   ar
    25    87    89   ar
    26    88    90   ar
    27    77    79   ar
    28    77    78   ar
    29    79    81   ar
    30    78    80   ar
    31    89    91   ar
    32    81    80   ar
    33    90    92   ar
    34    58    56    1
    35    91    92   ar
    36    47    45    1
    37    56    55    2
    38    56    57    1
    39    55    54    1
    40    12    10    1
    41     8     7    2
    42     1     2    1
    43    28    26    1
    44    46    45    1
    45     9    10    1
    46     9    11    1
    47     9     6    1
    48    26    27    1
    49    26    23    1
    50    45    44    1
    51     2     3    1
    52     5     6    1
    53     5     3   am
    54    44    41    1
    55    53    54    1
    56    53    52    1
    57    51    50    2
    58     7     6    1
    59     7    13   am
    60    25    24    2
    61     3     4    2
    62    22    23    1
    63    22    15   am
    64    23    24    1
    65    21    20    1
    66    24    29   am
    67    50    49    1
    68    41    40    1
    69    41    42    1
    70    52    49    1
    71    13    14    1
    72    14    15    1
    73    14    17    1
    74    40    31   am
    75    49    48    1
    76    15    16    2
    77    18    17    1
    78    18    19    1
    79    29    30    1
    80    20    19    1
    81    31    30    1
    82    31    32    2
    83    30    33    1
    84    42    43    2
    85    33    34    1
    86    35    34   ar
    87    35    37   ar
    88    34    36   ar
    89    37    39   ar
    90    39    38   ar
    91    36    38   ar
