@<TRIPOS>MOLECULE
tmp/5flwB00.pdb
 124 121 0 0 0
SMALL
GASTEIGER

@<TRIPOS>ATOM
      1  N         39.7010  -22.9100  -21.1430 N.3    80  GLU80      -0.1231
      2  CA        40.7370  -23.0490  -20.1290 C.3    80  GLU80       0.1699
      3  C         40.6910  -21.9190  -19.1120 C.2    80  GLU80       0.2592
      4  O         40.2270  -20.8040  -19.4020 O.2    80  GLU80      -0.2718
      5  CB        42.1460  -23.0970  -20.7610 C.3    80  GLU80       0.0402
      6  CG        42.3850  -24.3780  -21.5290 C.3    80  GLU80       0.1161
      7  CD        43.7310  -24.4260  -22.2250 C.2    80  GLU80       0.3649
      8  OE1       44.4570  -23.4020  -22.2050 O.co2  80  GLU80      -0.2457
      9  OE2       44.0520  -25.4790  -22.8320 O.co2  80  GLU80      -0.2457
     10  N         41.1880  -22.2380  -17.9140 N.am   81  ARG81      -0.1980
     11  CA        41.4710  -21.2600  -16.8710 C.3    81  ARG81       0.1597
     12  C         40.2630  -20.3810  -16.5100 C.2    81  ARG81       0.2287
     13  O         40.3500  -19.1510  -16.5430 O.2    81  ARG81      -0.2864
     14  CB        42.6910  -20.4250  -17.2220 C.3    81  ARG81       0.0334
     15  CG        43.9590  -21.2780  -17.3610 C.3    81  ARG81       0.0492
     16  CD        45.2310  -20.4580  -17.5440 C.3    81  ARG81       0.2205
     17  NE        46.4200  -21.2780  -17.6930 N.pl3  81  ARG81      -0.0865
     18  CZ        47.0930  -21.8280  -16.6730 C.cat  81  ARG81       0.5346
     19  NH1       46.6950  -21.6160  -15.4200 N.pl3  81  ARG81       0.1354
     20  NH2       48.1840  -22.5690  -16.8880 N.pl3  81  ARG81       0.1354
     21  N         39.2560  -18.7610  -21.1270 N.3    98  HIS98      -0.1241
     22  CA        40.0350  -18.7320  -22.3570 C.3    98  HIS98       0.1621
     23  C         39.3470  -19.6700  -23.3550 C.2    98  HIS98       0.2264
     24  O         39.4700  -20.8980  -23.2540 O.2    98  HIS98      -0.2867
     25  CB        41.4790  -19.1190  -22.0450 C.3    98  HIS98       0.0745
     26  CG        42.3240  -19.4000  -23.2540 C.ar   98  HIS98       0.0817
     27  ND1       43.5270  -20.0760  -23.1630 N.ar   98  HIS98      -0.2268
     28  CD2       42.1620  -19.0870  -24.5730 C.ar   98  HIS98       0.1154
     29  CE1       44.0560  -20.1930  -24.3710 C.ar   98  HIS98       0.1986
     30  NE2       43.2500  -19.6010  -25.2450 N.ar   98  HIS98      -0.2212
     31  N         45.1600  -23.5260  -31.0010 N.3   104  TYR104     -0.1241
     32  CA        45.4050  -22.3670  -30.1380 C.3   104  TYR104      0.1605
     33  C         45.4240  -21.0180  -30.8700 C.2   104  TYR104      0.2264
     34  O         45.9250  -20.0330  -30.3510 O.2   104  TYR104     -0.2867
     35  CB        46.6410  -22.5750  -29.2500 C.3   104  TYR104      0.0534
     36  CG        46.3340  -23.4940  -28.0900 C.ar  104  TYR104     -0.0201
     37  CD1       46.3530  -24.8660  -28.2530 C.ar  104  TYR104     -0.0009
     38  CD2       45.9750  -22.9880  -26.8470 C.ar  104  TYR104     -0.0009
     39  CE1       46.0530  -25.7150  -27.2100 C.ar  104  TYR104      0.0417
     40  CE2       45.6740  -23.8320  -25.7950 C.ar  104  TYR104      0.0417
     41  CZ        45.7120  -25.1940  -25.9850 C.ar  104  TYR104      0.1957
     42  OH        45.4110  -26.0500  -24.9540 O.3   104  TYR104     -0.2866
     43  N         45.1940  -15.6030  -24.4860 N.3   135  ARG135     -0.1231
     44  CA        45.2930  -17.0150  -24.1080 C.3   135  ARG135      0.1694
     45  C         45.1250  -17.1610  -22.5880 C.2   135  ARG135      0.2592
     46  O         44.0060  -16.9470  -22.0880 O.2   135  ARG135     -0.2718
     47  CB        46.5580  -17.6700  -24.6820 C.3   135  ARG135      0.0321
     48  CG        46.5190  -17.7230  -26.2680 C.3   135  ARG135      0.0489
     49  CD        47.5320  -18.6990  -26.8620 C.3   135  ARG135      0.2205
     50  NE        47.5220  -18.7850  -28.3320 N.pl3 135  ARG135     -0.0865
     51  CZ        48.3290  -18.0960  -29.1380 C.cat 135  ARG135      0.5346
     52  NH1       49.2260  -17.2370  -28.6390 N.pl3 135  ARG135      0.1354
     53  NH2       48.2560  -18.2940  -30.4530 N.pl3 135  ARG135      0.1354
     54  N         46.1900  -17.4710  -21.8180 N.am  136  ASP136     -0.1974
     55  CA        46.0020  -17.6370  -20.3680 C.3   136  ASP136      0.1709
     56  C         45.4400  -16.3500  -19.7680 C.2   136  ASP136      0.2293
     57  O         45.8740  -15.2400  -20.1350 O.2   136  ASP136     -0.2864
     58  CB        47.3370  -17.9340  -19.6660 C.3   136  ASP136      0.1436
     59  CG        47.8210  -19.3760  -19.8440 C.2   136  ASP136      0.3671
     60  OD1       47.1910  -20.1870  -20.5800 O.co2 136  ASP136     -0.2456
     61  OD2       48.9030  -19.6840  -19.2790 O.co2 136  ASP136     -0.2456
     62  N         50.6830  -13.1890  -27.1540 N.3   154  ARG154     -0.1245
     63  CA        52.0160  -13.5650  -27.6180 C.3   154  ARG154      0.1563
     64  C         52.6710  -12.4610  -28.4490 C.2   154  ARG154      0.2260
     65  O         53.9030  -12.3660  -28.4750 O.2   154  ARG154     -0.2867
     66  CB        51.9220  -14.8620  -28.4270 C.3   154  ARG154      0.0307
     67  CG        53.2330  -15.5910  -28.6330 C.3   154  ARG154      0.0489
     68  CD        53.8190  -16.1280  -27.3600 C.3   154  ARG154      0.2205
     69  NE        52.8220  -16.6510  -26.4270 N.pl3 154  ARG154     -0.0865
     70  CZ        52.4250  -17.9190  -26.3680 C.cat 154  ARG154      0.5346
     71  NH1       52.9350  -18.8130  -27.2160 N.pl3 154  ARG154      0.1354
     72  NH2       51.5190  -18.2930  -25.4540 N.pl3 154  ARG154      0.1354
     73  N         52.8570  -16.1500  -18.8270 N.3   187  GLU187     -0.1245
     74  CA        51.5090  -16.7000  -18.8690 C.3   187  GLU187      0.1567
     75  C         51.0400  -17.0470  -17.4460 C.2   187  GLU187      0.2260
     76  O         51.6440  -16.6080  -16.4560 O.2   187  GLU187     -0.2867
     77  CB        51.3940  -17.8180  -19.9060 C.3   187  GLU187      0.0388
     78  CG        52.1850  -19.0580  -19.6260 C.3   187  GLU187      0.1160
     79  CD        52.0450  -20.0700  -20.7630 C.2   187  GLU187      0.3649
     80  OE1       51.2770  -19.8230  -21.7350 O.co2 187  GLU187     -0.2457
     81  OE2       52.7230  -21.1050  -20.7090 O.co2 187  GLU187     -0.2457
     82  N         55.7250  -24.1770  -22.6500 N.3   207  SER207     -0.1202
     83  CA        54.7170  -25.1920  -22.9590 C.3   207  SER207      0.2020
     84  C         54.5340  -26.1110  -21.7460 C.2   207  SER207      0.2618
     85  O         54.3910  -25.6120  -20.6170 O.2   207  SER207     -0.2717
     86  CB        55.0660  -25.8610  -24.2800 C.3   207  SER207      0.2103
     87  OG        54.0460  -26.7830  -24.6080 O.3   207  SER207     -0.2182
     88  N         54.5530  -27.4350  -21.9150 N.am  208  TRP208     -0.1975
     89  CA        54.3010  -28.3310  -20.7920 C.3   208  TRP208      0.1640
     90  C         55.4340  -28.3280  -19.7770 C.2   208  TRP208      0.2290
     91  O         55.2030  -28.6610  -18.6060 O.2   208  TRP208     -0.2864
     92  CB        54.0890  -29.7610  -21.2760 C.3   208  TRP208      0.0576
     93  CG        52.9050  -29.9640  -22.1860 C.ar  208  TRP208      0.0006
     94  CD1       52.9380  -30.2100  -23.5340 C.ar  208  TRP208      0.0946
     95  CD2       51.5090  -29.8710  -21.8280 C.ar  208  TRP208      0.0152
     96  NE1       51.6590  -30.3350  -24.0230 N.ar  208  TRP208     -0.2442
     97  CE2       50.7600  -30.1190  -23.0070 C.ar  208  TRP208      0.0810
     98  CE3       50.8220  -29.6140  -20.6260 C.ar  208  TRP208      0.0012
     99  CZ2       49.3530  -30.1260  -23.0220 C.ar  208  TRP208      0.0191
    100  CZ3       49.4200  -29.6160  -20.6410 C.ar  208  TRP208      0.0001
    101  CH2       48.7050  -29.8660  -21.8360 C.ar  208  TRP208      0.0015
    102  N         53.4170  -24.9510  -12.4000 N.3   242  GLN242     -0.1245
    103  CA        53.1630  -23.6990  -13.1100 C.3   242  GLN242      0.1566
    104  C         52.2080  -22.8920  -12.2450 C.2   242  GLN242      0.2260
    105  O         51.0790  -23.3430  -12.0110 O.2   242  GLN242     -0.2867
    106  CB        52.5300  -23.9590  -14.4880 C.3   242  GLN242      0.0367
    107  CG        52.2980  -22.6830  -15.3080 C.3   242  GLN242      0.0905
    108  CD        51.6060  -22.9340  -16.6410 C.2   242  GLN242      0.2608
    109  OE1       50.8620  -23.8950  -16.7980 O.2   242  GLN242     -0.2717
    110  NE2       51.8630  -22.0640  -17.6130 N.am  242  GLN242     -0.0878
    111  N         50.8530  -30.1590  -14.6320 N.3   266  TRP266     -0.1241
    112  CA        50.1360  -30.6590  -15.7910 C.3   266  TRP266      0.1605
    113  C         50.6980  -31.9970  -16.2420 C.2   266  TRP266      0.2264
    114  O         51.9160  -32.1600  -16.3940 O.2   266  TRP266     -0.2867
    115  CB        50.2120  -29.6600  -16.9390 C.3   266  TRP266      0.0550
    116  CG        49.5500  -28.3350  -16.6490 C.ar  266  TRP266      0.0003
    117  CD1       50.1610  -27.1250  -16.5180 C.ar  266  TRP266      0.0946
    118  CD2       48.1410  -28.0960  -16.4580 C.ar  266  TRP266      0.0152
    119  NE1       49.2240  -26.1370  -16.2640 N.ar  266  TRP266     -0.2442
    120  CE2       47.9780  -26.7040  -16.2170 C.ar  266  TRP266      0.0810
    121  CE3       47.0020  -28.9160  -16.4720 C.ar  266  TRP266      0.0012
    122  CZ2       46.7140  -26.1150  -16.0000 C.ar  266  TRP266      0.0191
    123  CZ3       45.7570  -28.3320  -16.2600 C.ar  266  TRP266      0.0001
    124  CH2       45.6260  -26.9470  -16.0330 C.ar  266  TRP266      0.0015
@<TRIPOS>BOND
     1    31    32    1
     2    33    34    2
     3    33    32    1
     4    53    51    1
     5    32    35    1
     6    35    36    1
     7    51    52    1
     8    51    50    2
     9    67    66    1
    10    67    68    1
    11    65    64    2
    12    64    63    1
    13    66    63    1
    14    50    49    1
    15    37    36   ar
    16    37    39   ar
    17    36    38   ar
    18    63    62    1
    19    68    69    1
    20    71    70    1
    21    39    41   ar
    22    49    48    1
    23    38    40   ar
    24    69    70    2
    25    70    72    1
    26    48    47    1
    27    41    40   ar
    28    41    42    1
    29    30    28   ar
    30    30    29   ar
    31    47    44    1
    32    87    86    1
    33    28    26   ar
    34    43    44    1
    35    29    27   ar
    36    86    83    1
    37    44    45    1
    38    96    94   ar
    39    96    97   ar
    40    94    93   ar
    41    23    24    2
    42    23    22    1
    43    26    27   ar
    44    26    25    1
    45    99    97   ar
    46    99   101   ar
    47    97    95   ar
    48    83    82    1
    49    83    84    1
    50     9     7   ar
    51    45    46    2
    52    45    54   am
    53    22    25    1
    54    22    21    1
    55     7     8   ar
    56     7     6    1
    57    93    95   ar
    58    93    92    1
    59    88    84   am
    60    88    89    1
    61   101   100   ar
    62    95    98   ar
    63    54    55    1
    64    84    85    2
    65    80    79   ar
    66     6     5    1
    67    92    89    1
    68     1     2    1
    69    89    90    1
    70    79    81   ar
    71    79    78    1
    72     5     2    1
    73   100    98   ar
    74    60    59   ar
    75    55    56    1
    76    55    58    1
    77    57    56    2
    78     2     3    1
    79    77    78    1
    80    77    74    1
    81    59    58    1
    82    59    61   ar
    83    90    91    2
    84     4     3    2
    85     3    10   am
    86    74    73    1
    87    74    75    1
    88    10    11    1
    89    17    16    1
    90    17    18    2
    91   110   108   am
    92    16    15    1
    93    75    76    2
    94    15    14    1
    95    14    11    1
    96   115   116    1
    97   115   112    1
    98    20    18    1
    99    11    12    1
   100   109   108    2
   101    18    19    1
   102   116   117   ar
   103   116   118   ar
   104   108   107    1
   105    13    12    2
   106   117   119   ar
   107   121   118   ar
   108   121   123   ar
   109   118   120   ar
   110   114   113    2
   111   119   120   ar
   112   123   124   ar
   113   113   112    1
   114   120   122   ar
   115   124   122   ar
   116   112   111    1
   117   107   106    1
   118   106   103    1
   119   103   102    1
   120   103   104    1
   121   104   105    2
