@<TRIPOS>MOLECULE
tmp/5flyB00.pdb
 168 170 0 0 0
SMALL
GASTEIGER

@<TRIPOS>ATOM
      1  N         17.9920  -29.4540   49.3770 N.3    29  PRO29      -0.2102
      2  CA        17.6280  -28.6040   48.2310 C.3    29  PRO29       0.1504
      3  C         18.7110  -28.5030   47.1490 C.2    29  PRO29       0.2576
      4  O         18.3920  -28.1960   45.9930 O.2    29  PRO29      -0.2718
      5  CB        17.3590  -27.2370   48.8830 C.3    29  PRO29       0.0282
      6  CG        18.1090  -27.2580   50.1640 C.3    29  PRO29       0.0208
      7  CD        18.0140  -28.6860   50.6400 C.3    29  PRO29       0.0893
      8  N         19.9650  -28.7590   47.5180 N.am   30  THR30      -0.1953
      9  CA        21.0730  -28.7990   46.5690 C.3    30  THR30       0.1897
     10  C         20.7400  -29.6590   45.3570 C.2    30  THR30       0.2313
     11  O         21.1080  -29.3160   44.2320 O.2    30  THR30      -0.2863
     12  CB        22.3560  -29.3420   47.2430 C.3    30  THR30       0.1794
     13  OG1       22.8090  -28.3980   48.2310 O.3    30  THR30      -0.2208
     14  CG2       23.4810  -29.5970   46.2340 C.3    30  THR30       0.0378
     15  N         12.6780  -25.2800   51.5670 N.3    48  GLN48      -0.1245
     16  CA        13.7100  -24.2840   51.2900 C.3    48  GLN48       0.1566
     17  C         13.7170  -23.8530   49.8270 C.2    48  GLN48       0.2260
     18  O         14.1460  -22.7400   49.5250 O.2    48  GLN48      -0.2867
     19  CB        15.1010  -24.7950   51.6660 C.3    48  GLN48       0.0367
     20  CG        15.3720  -24.8320   53.1540 C.3    48  GLN48       0.0905
     21  CD        16.8360  -25.1450   53.4530 C.2    48  GLN48       0.2608
     22  OE1       17.1850  -26.2820   53.7530 O.2    48  GLN48      -0.2717
     23  NE2       17.6990  -24.1350   53.3460 N.am   48  GLN48      -0.0878
     24  N         21.1200  -34.8230   53.0850 N.3    84  TYR84      -0.1241
     25  CA        22.5470  -34.6170   53.3290 C.3    84  TYR84       0.1605
     26  C         22.9970  -35.5240   54.4500 C.2    84  TYR84       0.2264
     27  O         22.1920  -35.8880   55.2960 O.2    84  TYR84      -0.2867
     28  CB        22.8690  -33.1780   53.7430 C.3    84  TYR84       0.0534
     29  CG        22.4820  -32.0570   52.8140 C.ar   84  TYR84      -0.0201
     30  CD1       23.2040  -31.7950   51.6520 C.ar   84  TYR84      -0.0009
     31  CD2       21.4410  -31.2110   53.1390 C.ar   84  TYR84      -0.0009
     32  CE1       22.8520  -30.7360   50.8110 C.ar   84  TYR84       0.0417
     33  CE2       21.0790  -30.1610   52.3140 C.ar   84  TYR84       0.0417
     34  CZ        21.7890  -29.9300   51.1510 C.ar   84  TYR84       0.1957
     35  OH        21.4310  -28.8770   50.3340 O.3    84  TYR84      -0.2866
     36  N         28.0050  -33.7050   50.6060 N.3   104  TYR104     -0.1241
     37  CA        27.9900  -32.7230   49.5340 C.3   104  TYR104      0.1605
     38  C         29.3590  -32.4830   48.8970 C.2   104  TYR104      0.2264
     39  O         29.4910  -32.4590   47.6620 O.2   104  TYR104     -0.2867
     40  CB        27.4300  -31.3940   50.0600 C.3   104  TYR104      0.0534
     41  CG        27.6830  -30.2780   49.0890 C.ar  104  TYR104     -0.0201
     42  CD1       26.9130  -30.1510   47.9400 C.ar  104  TYR104     -0.0009
     43  CD2       28.7190  -29.3890   49.2910 C.ar  104  TYR104     -0.0009
     44  CE1       27.1670  -29.1500   47.0190 C.ar  104  TYR104      0.0417
     45  CE2       28.9840  -28.3800   48.3750 C.ar  104  TYR104      0.0417
     46  CZ        28.2050  -28.2680   47.2440 C.ar  104  TYR104      0.1957
     47  OH        28.4470  -27.2670   46.3150 O.3   104  TYR104     -0.2866
     48  N         29.2300  -13.1400   50.9150 N.3   158  GLU158     -0.1245
     49  CA        27.8010  -13.1360   51.1730 C.3   158  GLU158      0.1567
     50  C         27.5170  -12.4540   52.4980 C.2   158  GLU158      0.2260
     51  O         28.1150  -12.7750   53.5100 O.2   158  GLU158     -0.2867
     52  CB        27.2140  -14.5470   51.1850 C.3   158  GLU158      0.0388
     53  CG        25.7240  -14.5460   51.5570 C.3   158  GLU158      0.1160
     54  CD        25.0270  -15.8870   51.3920 C.2   158  GLU158      0.3649
     55  OE1       25.6870  -16.8920   51.0200 O.co2 158  GLU158     -0.2457
     56  OE2       23.8000  -15.9210   51.6220 O.co2 158  GLU158     -0.2457
     57  N         24.8970  -12.2900   55.2450 N.3   160  PHE160     -0.1241
     58  CA        23.8050  -13.1290   55.7420 C.3   160  PHE160      0.1605
     59  C         23.7230  -13.1030   57.2670 C.2   160  PHE160      0.2264
     60  O         24.7010  -13.4210   57.9390 O.2   160  PHE160     -0.2867
     61  CB        23.9780  -14.5710   55.2620 C.3   160  PHE160      0.0534
     62  CG        22.9000  -15.4970   55.7460 C.ar  160  PHE160     -0.0203
     63  CD1       21.6960  -15.5870   55.0740 C.ar  160  PHE160     -0.0042
     64  CD2       23.0880  -16.2640   56.8810 C.ar  160  PHE160     -0.0042
     65  CE1       20.6990  -16.4290   55.5240 C.ar  160  PHE160     -0.0003
     66  CE2       22.1080  -17.1070   57.3250 C.ar  160  PHE160     -0.0003
     67  CZ        20.9110  -17.1930   56.6460 C.ar  160  PHE160     -0.0000
     68  N         30.3850  -14.1270   54.7510 N.3   165  TYR165     -0.1241
     69  CA        30.9470  -15.4060   54.3380 C.3   165  TYR165      0.1605
     70  C         31.6690  -15.2520   53.0110 C.2   165  TYR165      0.2264
     71  O         31.3380  -14.3900   52.2190 O.2   165  TYR165     -0.2867
     72  CB        29.8440  -16.4620   54.2230 C.3   165  TYR165      0.0534
     73  CG        29.1240  -16.6630   55.5320 C.ar  165  TYR165     -0.0201
     74  CD1       28.0690  -15.8460   55.9000 C.ar  165  TYR165     -0.0009
     75  CD2       29.5320  -17.6470   56.4180 C.ar  165  TYR165     -0.0009
     76  CE1       27.4250  -16.0210   57.1130 C.ar  165  TYR165      0.0417
     77  CE2       28.8960  -17.8300   57.6190 C.ar  165  TYR165      0.0417
     78  CZ        27.8430  -17.0220   57.9640 C.ar  165  TYR165      0.1957
     79  OH        27.2200  -17.2110   59.1880 O.3   165  TYR165     -0.2866
     80  N         33.6190  -17.8060   49.7750 N.3   167  TYR167     -0.1241
     81  CA        33.4660  -19.1560   49.2370 C.3   167  TYR167      0.1605
     82  C         34.6610  -19.6730   48.4690 C.2   167  TYR167      0.2264
     83  O         35.3840  -18.9040   47.8460 O.2   167  TYR167     -0.2867
     84  CB        32.2240  -19.1810   48.3630 C.3   167  TYR167      0.0534
     85  CG        31.0310  -18.8800   49.2220 C.ar  167  TYR167     -0.0201
     86  CD1       30.5970  -19.8000   50.1560 C.ar  167  TYR167     -0.0009
     87  CD2       30.3830  -17.6590   49.1500 C.ar  167  TYR167     -0.0009
     88  CE1       29.5270  -19.5240   50.9910 C.ar  167  TYR167      0.0417
     89  CE2       29.3170  -17.3700   49.9820 C.ar  167  TYR167      0.0417
     90  CZ        28.8890  -18.3080   50.9010 C.ar  167  TYR167      0.1957
     91  OH        27.8220  -18.0390   51.7400 O.3   167  TYR167     -0.2866
     92  N         30.8900  -24.0010   46.2370 N.3   171  TRP171     -0.1227
     93  CA        29.9310  -23.8580   47.3250 C.3   171  TRP171      0.1737
     94  C         28.7580  -22.9690   46.9350 C.2   171  TRP171      0.2596
     95  O         28.2190  -22.2390   47.7490 O.2   171  TRP171     -0.2718
     96  CB        30.6250  -23.3190   48.5980 C.3   171  TRP171      0.0564
     97  CG        30.0380  -23.9330   49.8190 C.ar  171  TRP171      0.0003
     98  CD1       28.9980  -23.4660   50.5620 C.ar  171  TRP171      0.0946
     99  CD2       30.4210  -25.1830   50.4020 C.ar  171  TRP171      0.0152
    100  NE1       28.7190  -24.3480   51.5890 N.ar  171  TRP171     -0.2442
    101  CE2       29.5810  -25.4080   51.5100 C.ar  171  TRP171      0.0810
    102  CE3       31.4010  -26.1230   50.1010 C.ar  171  TRP171      0.0012
    103  CZ2       29.6920  -26.5500   52.3140 C.ar  171  TRP171      0.0191
    104  CZ3       31.5250  -27.2420   50.9100 C.ar  171  TRP171      0.0001
    105  CH2       30.6710  -27.4460   51.9990 C.ar  171  TRP171      0.0015
    106  N         28.3260  -23.0560   45.6850 N.am  172  GLY172     -0.1942
    107  CA        27.2630  -22.1860   45.2170 C.3   172  GLY172      0.2014
    108  C         27.6840  -20.7200   45.1990 C.2   172  GLY172      0.2638
    109  O         28.8650  -20.3950   45.1280 O.2   172  GLY172     -0.2714
    110  N         26.6890  -19.8340   45.2700 N.am  173  ARG173     -0.1977
    111  CA        26.8890  -18.3820   45.2000 C.3   173  ARG173      0.1597
    112  C         27.6810  -17.9420   43.9650 C.2   173  ARG173      0.2287
    113  O         28.3750  -16.9330   43.9920 O.2   173  ARG173     -0.2864
    114  CB        27.5770  -17.8790   46.4840 C.3   173  ARG173      0.0334
    115  CG        26.7020  -17.9870   47.7190 C.3   173  ARG173      0.0492
    116  CD        26.7560  -19.3690   48.3340 C.3   173  ARG173      0.2205
    117  NE        26.0090  -19.4330   49.5890 N.pl3 173  ARG173     -0.0865
    118  CZ        25.6530  -20.5590   50.1960 C.cat 173  ARG173      0.5346
    119  NH1       25.9570  -21.7360   49.6740 N.pl3 173  ARG173      0.1354
    120  NH2       24.9800  -20.4960   51.3370 N.pl3 173  ARG173      0.1354
    121  N         34.3960  -23.0880   52.3640 N.3   199  TRP199     -0.1241
    122  CA        33.8230  -21.7800   52.6480 C.3   199  TRP199      0.1605
    123  C         34.3800  -21.3230   53.9810 C.2   199  TRP199      0.2264
    124  O         34.9310  -22.1340   54.7260 O.2   199  TRP199     -0.2867
    125  CB        32.3010  -21.8420   52.7330 C.3   199  TRP199      0.0550
    126  CG        31.8490  -22.7210   53.8410 C.ar  199  TRP199      0.0003
    127  CD1       31.7190  -24.0840   53.8120 C.ar  199  TRP199      0.0946
    128  CD2       31.4740  -22.3100   55.1630 C.ar  199  TRP199      0.0152
    129  NE1       31.2830  -24.5450   55.0390 N.ar  199  TRP199     -0.2442
    130  CE2       31.1200  -23.4750   55.8800 C.ar  199  TRP199      0.0810
    131  CE3       31.4010  -21.0700   55.8120 C.ar  199  TRP199      0.0012
    132  CZ2       30.7080  -23.4350   57.2110 C.ar  199  TRP199      0.0191
    133  CZ3       30.9780  -21.0360   57.1320 C.ar  199  TRP199      0.0001
    134  CH2       30.6460  -22.2100   57.8150 C.ar  199  TRP199      0.0015
    135  N         22.2630  -19.0310   45.6240 N.3   254  TRP254     -0.1227
    136  CA        22.7180  -20.0400   46.5970 C.3   254  TRP254      0.1737
    137  C         23.0820  -21.3760   45.9630 C.2   254  TRP254      0.2595
    138  O         24.0590  -22.0010   46.3720 O.2   254  TRP254     -0.2718
    139  CB        21.6690  -20.3060   47.6760 C.3   254  TRP254      0.0564
    140  CG        21.5370  -19.2250   48.6830 C.ar  254  TRP254      0.0003
    141  CD1       22.5430  -18.4660   49.2190 C.ar  254  TRP254      0.0946
    142  CD2       20.3220  -18.7620   49.2700 C.ar  254  TRP254      0.0152
    143  NE1       22.0180  -17.5560   50.1050 N.ar  254  TRP254     -0.2442
    144  CE2       20.6560  -17.7190   50.1530 C.ar  254  TRP254      0.0810
    145  CE3       18.9760  -19.1270   49.1260 C.ar  254  TRP254      0.0012
    146  CZ2       19.6920  -17.0420   50.9000 C.ar  254  TRP254      0.0191
    147  CZ3       18.0230  -18.4570   49.8620 C.ar  254  TRP254      0.0001
    148  CH2       18.3810  -17.4260   50.7400 C.ar  254  TRP254      0.0015
    149  N         22.3060  -21.8070   44.9700 N.am  255  TYR255     -0.1962
    150  CA        22.3950  -23.1770   44.4820 C.3   255  TYR255      0.1771
    151  C         23.3130  -23.3600   43.2780 C.2   255  TYR255      0.2619
    152  O         23.8250  -22.3920   42.7210 O.2   255  TYR255     -0.2715
    153  CB        20.9770  -23.6780   44.1900 C.3   255  TYR255      0.0574
    154  CG        20.1820  -23.7210   45.4890 C.ar  255  TYR255     -0.0198
    155  CD1       20.4830  -24.6580   46.4670 C.ar  255  TYR255     -0.0009
    156  CD2       19.1980  -22.7960   45.7520 C.ar  255  TYR255     -0.0009
    157  CE1       19.8000  -24.6940   47.6540 C.ar  255  TYR255      0.0417
    158  CE2       18.4930  -22.8190   46.9610 C.ar  255  TYR255      0.0417
    159  CZ        18.8070  -23.7740   47.9020 C.ar  255  TYR255      0.1957
    160  OH        18.1450  -23.8430   49.1140 O.3   255  TYR255     -0.2866
    161  N         23.5450  -24.6200   42.9090 N.am  256  ASN256     -0.1972
    162  CA        24.4090  -24.9480   41.7740 C.3   256  ASN256      0.1688
    163  C         23.8410  -26.0540   40.8800 C.2   256  ASN256      0.2292
    164  O         24.5850  -26.7630   40.2120 O.2   256  ASN256     -0.2864
    165  CB        25.8170  -25.3250   42.2510 C.3   256  ASN256      0.1181
    166  CG        25.8550  -26.5480   43.1450 C.2   256  ASN256      0.2629
    167  OD1       24.8760  -27.2870   43.2940 O.2   256  ASN256     -0.2716
    168  ND2       27.0200  -26.7660   43.7580 N.am  256  ASN256     -0.0877
@<TRIPOS>BOND
     1   164   163    2
     2   163   162    1
     3   162   165    1
     4   162   161    1
     5   165   166    1
     6   152   151    2
     7   161   151   am
     8   166   167    2
     9   166   168   am
    10   151   150    1
    11   112   113    2
    12   112   111    1
    13   153   150    1
    14   153   154    1
    15    11    10    2
    16   150   149    1
    17   149   137   am
    18   109   108    2
    19   108   107    1
    20   108   110   am
    21   111   110    1
    22   111   114    1
    23   107   106    1
    24    10     9    1
    25   154   156   ar
    26   154   155   ar
    27   135   136    1
    28   106    94   am
    29   156   158   ar
    30   137   138    2
    31   137   136    1
    32     4     3    2
    33    14    12    1
    34    92    93    1
    35    47    46    1
    36   155   157   ar
    37   114   115    1
    38     9    12    1
    39     9     8    1
    40   136   139    1
    41    94    93    1
    42    94    95    2
    43   158   159   ar
    44    44    46   ar
    45    44    42   ar
    46     3     8   am
    47     3     2    1
    48    12    13    1
    49    46    45   ar
    50    93    96    1
    51   157   159   ar
    52    39    38    2
    53   139   140    1
    54   115   116    1
    55    83    82    2
    56   159   160    1
    57    42    41   ar
    58     2     5    1
    59     2     1    1
    60   116   117    1
    61    84    85    1
    62    84    81    1
    63    45    43   ar
    64    82    81    1
    65    96    97    1
    66   140   141   ar
    67   140   142   ar
    68     5     6    1
    69    38    37    1
    70    41    43   ar
    71    41    40    1
    72   145   142   ar
    73   145   147   ar
    74    87    85   ar
    75    87    89   ar
    76   141   143   ar
    77    85    86   ar
    78    81    80    1
    79   142   144   ar
    80     1     7    1
    81    18    17    2
    82    37    40    1
    83    37    36    1
    84   117   118    2
    85   119   118    1
    86    97    99   ar
    87    97    98   ar
    88    17    16    1
    89   147   148   ar
    90    89    90   ar
    91   102    99   ar
    92   102   104   ar
    93   143   144   ar
    94   144   146   ar
    95    86    88   ar
    96     6     7    1
    97   118   120    1
    98    35    34    1
    99    99   101   ar
   100    98   100   ar
   101   148   146   ar
   102    32    34   ar
   103    32    30   ar
   104    90    88   ar
   105    90    91    1
   106   104   105   ar
   107    48    49    1
   108    55    54   ar
   109    34    33   ar
   110    49    52    1
   111    49    50    1
   112    52    53    1
   113    16    15    1
   114    16    19    1
   115    54    53    1
   116    54    56   ar
   117   101   100   ar
   118   101   103   ar
   119    30    29   ar
   120    19    20    1
   121   105   103   ar
   122    71    70    2
   123    33    31   ar
   124   121   122    1
   125    50    51    2
   126   122   125    1
   127   122   123    1
   128   125   126    1
   129    29    31   ar
   130    29    28    1
   131    70    69    1
   132    24    25    1
   133    20    21    1
   134    25    28    1
   135    25    26    1
   136    23    21   am
   137    21    22    2
   138   127   126   ar
   139   127   129   ar
   140   126   128   ar
   141   123   124    2
   142    72    69    1
   143    72    73    1
   144    69    68    1
   145    26    27    2
   146   129   130   ar
   147    63    65   ar
   148    63    62   ar
   149   128   131   ar
   150   128   130   ar
   151    57    58    1
   152    61    58    1
   153    61    62    1
   154    65    67   ar
   155    73    74   ar
   156    73    75   ar
   157    58    59    1
   158    62    64   ar
   159   131   133   ar
   160   130   132   ar
   161    74    76   ar
   162    75    77   ar
   163    67    66   ar
   164    64    66   ar
   165    76    78   ar
   166   133   134   ar
   167   132   134   ar
   168    59    60    2
   169    77    78   ar
   170    78    79    1
