@<TRIPOS>MOLECULE
tmp/5flyA00.pdb
 168 170 0 0 0
SMALL
GASTEIGER

@<TRIPOS>ATOM
      1  N         16.1870   -5.4560    9.8710 N.3    31  PRO31      -0.2102
      2  CA        16.5310   -4.6290   11.0340 C.3    31  PRO31       0.1504
      3  C         15.4420   -4.5560   12.1010 C.2    31  PRO31       0.2576
      4  O         15.7540   -4.2630   13.2510 O.2    31  PRO31      -0.2718
      5  CB        16.7880   -3.2490   10.4220 C.3    31  PRO31       0.0282
      6  CG        16.1350   -3.2660    9.0780 C.3    31  PRO31       0.0208
      7  CD        16.2400   -4.6890    8.6150 C.3    31  PRO31       0.0893
      8  N         14.1940   -4.8050   11.7230 N.am   32  THR32      -0.1953
      9  CA        13.1060   -4.8770   12.6850 C.3    32  THR32       0.1897
     10  C         13.4260   -5.7770   13.8760 C.2    32  THR32       0.2313
     11  O         13.0470   -5.4480   14.9990 O.2    32  THR32      -0.2863
     12  CB        11.8200   -5.3660   11.9870 C.3    32  THR32       0.1794
     13  OG1       11.4470   -4.3840   11.0030 O.3    32  THR32      -0.2208
     14  CG2       10.6910   -5.5820   12.9740 C.3    32  THR32       0.0378
     15  N         21.3990   -1.2830    7.7830 N.3    50  GLN50      -0.1245
     16  CA        20.3580   -0.2980    8.0560 C.3    50  GLN50       0.1566
     17  C         20.3230    0.1050    9.5280 C.2    50  GLN50       0.2260
     18  O         19.8060    1.1660    9.8610 O.2    50  GLN50      -0.2867
     19  CB        18.9820   -0.8250    7.6390 C.3    50  GLN50       0.0367
     20  CG        18.7780   -0.8540    6.1440 C.3    50  GLN50       0.0905
     21  CD        17.3510   -1.2220    5.7790 C.2    50  GLN50       0.2608
     22  OE1       16.4380   -0.3820    5.8240 O.2    50  GLN50      -0.2717
     23  NE2       17.1480   -2.4790    5.4270 N.am   50  GLN50      -0.0878
     24  N         13.1050  -10.7740    6.1340 N.3    86  TYR86      -0.1241
     25  CA        11.6740  -10.5680    5.8700 C.3    86  TYR86       0.1605
     26  C         11.2380  -11.4510    4.7260 C.2    86  TYR86       0.2264
     27  O         12.0380  -11.8020    3.8620 O.2    86  TYR86      -0.2867
     28  CB        11.3400   -9.1250    5.4800 C.3    86  TYR86       0.0534
     29  CG        11.7200   -8.0230    6.4330 C.ar   86  TYR86      -0.0201
     30  CD1       11.0160   -7.7970    7.6080 C.ar   86  TYR86      -0.0009
     31  CD2       12.7440   -7.1530    6.1030 C.ar   86  TYR86      -0.0009
     32  CE1       11.3660   -6.7550    8.4430 C.ar   86  TYR86       0.0417
     33  CE2       13.1040   -6.1250    6.9280 C.ar   86  TYR86       0.0417
     34  CZ        12.4110   -5.9230    8.0880 C.ar   86  TYR86       0.1957
     35  OH        12.8080   -4.8750    8.8780 O.3    86  TYR86      -0.2866
     36  N          6.2550   -9.7680    8.6070 N.3   106  TYR106     -0.1241
     37  CA         6.2590   -8.7830    9.6880 C.3   106  TYR106      0.1605
     38  C          4.8800   -8.5680   10.3250 C.2   106  TYR106      0.2264
     39  O          4.7280   -8.6150   11.5530 O.2   106  TYR106     -0.2867
     40  CB         6.7850   -7.4430    9.1750 C.3   106  TYR106      0.0534
     41  CG         6.5200   -6.3390   10.1620 C.ar  106  TYR106     -0.0201
     42  CD1        7.2870   -6.2370   11.3050 C.ar  106  TYR106     -0.0009
     43  CD2        5.4700   -5.4400    9.9800 C.ar  106  TYR106     -0.0009
     44  CE1        7.0450   -5.2640   12.2400 C.ar  106  TYR106      0.0417
     45  CE2        5.2080   -4.4580   10.9180 C.ar  106  TYR106      0.0417
     46  CZ         6.0050   -4.3770   12.0460 C.ar  106  TYR106      0.1957
     47  OH         5.7800   -3.4090   12.9940 O.3   106  TYR106     -0.2866
     48  N          4.5960   10.7860    8.5810 N.3   160  GLU160     -0.1245
     49  CA         6.0360   10.8330    8.3280 C.3   160  GLU160      0.1567
     50  C          6.3210   11.5260    7.0100 C.2   160  GLU160      0.2260
     51  O          5.7160   11.2090    5.9840 O.2   160  GLU160     -0.2867
     52  CB         6.6660    9.4360    8.3100 C.3   160  GLU160      0.0388
     53  CG         8.1470    9.4640    7.9100 C.3   160  GLU160      0.1160
     54  CD         8.8620    8.1430    8.0980 C.2   160  GLU160      0.3649
     55  OE1        8.1930    7.1150    8.3770 O.co2 160  GLU160     -0.2457
     56  OE2       10.1040    8.1390    7.9660 O.co2 160  GLU160     -0.2457
     57  N          8.9470   11.7620    4.2950 N.3   162  PHE162     -0.1241
     58  CA        10.0320   10.9320    3.7990 C.3   162  PHE162      0.1605
     59  C         10.0910   10.9790    2.2790 C.2   162  PHE162      0.2264
     60  O          9.0960   10.7050    1.6140 O.2   162  PHE162     -0.2867
     61  CB         9.8660    9.4830    4.2630 C.3   162  PHE162      0.0534
     62  CG        10.9500    8.5770    3.7680 C.ar  162  PHE162     -0.0203
     63  CD1       12.1630    8.5200    4.4210 C.ar  162  PHE162     -0.0042
     64  CD2       10.7650    7.8000    2.6270 C.ar  162  PHE162     -0.0042
     65  CE1       13.1750    7.7040    3.9640 C.ar  162  PHE162     -0.0003
     66  CE2       11.7830    6.9700    2.1670 C.ar  162  PHE162     -0.0003
     67  CZ        12.9800    6.9220    2.8400 C.ar  162  PHE162     -0.0000
     68  N          3.5130    9.8170    4.7590 N.3   167  TYR167     -0.1241
     69  CA         2.9710    8.5260    5.1740 C.3   167  TYR167      0.1605
     70  C          2.1890    8.6610    6.4810 C.2   167  TYR167      0.2264
     71  O          2.4800    9.5400    7.2710 O.2   167  TYR167     -0.2867
     72  CB         4.1080    7.5120    5.3170 C.3   167  TYR167      0.0534
     73  CG         4.8330    7.3380    3.9990 C.ar  167  TYR167     -0.0201
     74  CD1        4.3670    6.4350    3.0520 C.ar  167  TYR167     -0.0009
     75  CD2        5.9380    8.1140    3.6850 C.ar  167  TYR167     -0.0009
     76  CE1        4.9990    6.2830    1.8430 C.ar  167  TYR167      0.0417
     77  CE2        6.5730    7.9810    2.4650 C.ar  167  TYR167      0.0417
     78  CZ         6.0990    7.0580    1.5510 C.ar  167  TYR167      0.1957
     79  OH         6.7290    6.9050    0.3310 O.3   167  TYR167     -0.2866
     80  N          0.3770    6.0210    9.7010 N.3   169  TYR169     -0.1241
     81  CA         0.5410    4.6490   10.2120 C.3   169  TYR169      0.1605
     82  C         -0.6350    4.0910   10.9860 C.2   169  TYR169      0.2264
     83  O         -1.4010    4.8310   11.6120 O.2   169  TYR169     -0.2867
     84  CB         1.8120    4.5980   11.0640 C.3   169  TYR169      0.0534
     85  CG         2.9830    4.9590   10.2040 C.ar  169  TYR169     -0.0201
     86  CD1        3.4340    4.0750    9.2360 C.ar  169  TYR169     -0.0009
     87  CD2        3.5770    6.2140   10.2820 C.ar  169  TYR169     -0.0009
     88  CE1        4.4720    4.4090    8.3950 C.ar  169  TYR169      0.0417
     89  CE2        4.6170    6.5550    9.4420 C.ar  169  TYR169      0.0417
     90  CZ         5.0610    5.6410    8.5010 C.ar  169  TYR169      0.1957
     91  OH         6.0890    5.9420    7.6440 O.3   169  TYR169     -0.2866
     92  N          3.2230   -0.1290   13.1200 N.3   173  TRP173     -0.1227
     93  CA         4.1790    0.0330   12.0250 C.3   173  TRP173      0.1737
     94  C          5.3350    0.9640   12.4040 C.2   173  TRP173      0.2596
     95  O          5.8680    1.6960   11.5700 O.2   173  TRP173     -0.2718
     96  CB         3.4620    0.5360   10.7720 C.3   173  TRP173      0.0564
     97  CG         4.0550   -0.0570    9.5310 C.ar  173  TRP173      0.0003
     98  CD1        5.0760    0.4500    8.7870 C.ar  173  TRP173      0.0946
     99  CD2        3.6960   -1.3050    8.9260 C.ar  173  TRP173      0.0152
    100  NE1        5.3640   -0.4000    7.7380 N.ar  173  TRP173     -0.2442
    101  CE2        4.5290   -1.4800    7.8010 C.ar  173  TRP173      0.0810
    102  CE3        2.7340   -2.2730    9.2080 C.ar  173  TRP173      0.0012
    103  CZ2        4.4340   -2.5920    6.9690 C.ar  173  TRP173      0.0191
    104  CZ3        2.6370   -3.3700    8.3770 C.ar  173  TRP173      0.0001
    105  CH2        3.4920   -3.5230    7.2790 C.ar  173  TRP173      0.0015
    106  N          5.7430    0.9170   13.6670 N.am  174  GLY174     -0.1942
    107  CA         6.8070    1.7780   14.1340 C.3   174  GLY174      0.2014
    108  C          6.3730    3.2270   14.1600 C.2   174  GLY174      0.2638
    109  O          5.1860    3.5220   14.2260 O.2   174  GLY174     -0.2714
    110  N          7.3590    4.1180   14.1410 N.am  175  ARG175     -0.1977
    111  CA         7.1520    5.5550   14.2130 C.3   175  ARG175      0.1597
    112  C          6.3390    5.9530   15.4430 C.2   175  ARG175      0.2287
    113  O          5.5960    6.9300   15.4120 O.2   175  ARG175     -0.2864
    114  CB         6.4740    6.0600   12.9360 C.3   175  ARG175      0.0334
    115  CG         7.3330    5.9350   11.7020 C.3   175  ARG175      0.0492
    116  CD         7.2500    4.5570   11.0730 C.3   175  ARG175      0.2205
    117  NE         7.9870    4.5160    9.8110 N.pl3 175  ARG175     -0.0865
    118  CZ         8.3660    3.4010    9.1980 C.cat 175  ARG175      0.5346
    119  NH1        8.0920    2.2130    9.7160 N.pl3 175  ARG175      0.1354
    120  NH2        9.0330    3.4810    8.0580 N.pl3 175  ARG175      0.1354
    121  N         -0.3660    0.7300    7.0530 N.3   201  TRP201     -0.1241
    122  CA         0.1760    2.0540    6.8130 C.3   201  TRP201      0.1605
    123  C         -0.3910    2.5390    5.5010 C.2   201  TRP201      0.2264
    124  O         -0.9480    1.7440    4.7350 O.2   201  TRP201     -0.2867
    125  CB         1.6960    2.0190    6.7250 C.3   201  TRP201      0.0550
    126  CG         2.1510    1.1710    5.5640 C.ar  201  TRP201      0.0003
    127  CD1        2.3270   -0.1810    5.5560 C.ar  201  TRP201      0.0946
    128  CD2        2.4500    1.6250    4.2420 C.ar  201  TRP201      0.0152
    129  NE1        2.7250   -0.6010    4.3040 N.ar  201  TRP201     -0.2442
    130  CE2        2.8180    0.4920    3.4840 C.ar  201  TRP201      0.0810
    131  CE3        2.4630    2.8790    3.6270 C.ar  201  TRP201      0.0012
    132  CZ2        3.1800    0.5790    2.1380 C.ar  201  TRP201      0.0191
    133  CZ3        2.8370    2.9650    2.2940 C.ar  201  TRP201      0.0001
    134  CH2        3.1820    1.8170    1.5630 C.ar  201  TRP201      0.0015
    135  N         11.7550    4.9190   13.8110 N.3   256  TRP256     -0.1227
    136  CA        11.3160    3.9160   12.8360 C.3   256  TRP256      0.1737
    137  C         11.0030    2.5570   13.4520 C.2   256  TRP256      0.2595
    138  O         10.0730    1.8830   13.0120 O.2   256  TRP256     -0.2718
    139  CB        12.3600    3.6940   11.7470 C.3   256  TRP256      0.0564
    140  CG        12.4260    4.7670   10.7200 C.ar  256  TRP256      0.0003
    141  CD1       11.3820    5.4840   10.2090 C.ar  256  TRP256      0.0946
    142  CD2       13.6100    5.2660   10.0960 C.ar  256  TRP256      0.0152
    143  NE1       11.8490    6.4020    9.2950 N.ar  256  TRP256     -0.2442
    144  CE2       13.2150    6.2860    9.2100 C.ar  256  TRP256      0.0810
    145  CE3       14.9760    4.9450   10.1990 C.ar  256  TRP256      0.0012
    146  CZ2       14.1290    6.9880    8.4310 C.ar  256  TRP256      0.0191
    147  CZ3       15.8860    5.6540    9.4180 C.ar  256  TRP256      0.0001
    148  CH2       15.4560    6.6590    8.5510 C.ar  256  TRP256      0.0015
    149  N         11.7990    2.1340   14.4290 N.am  257  TYR257     -0.1962
    150  CA        11.7540    0.7430   14.9010 C.3   257  TYR257      0.1771
    151  C         10.8360    0.5390   16.1240 C.2   257  TYR257      0.2619
    152  O         10.3250    1.5030   16.6970 O.2   257  TYR257     -0.2715
    153  CB        13.1970    0.2690   15.1710 C.3   257  TYR257      0.0574
    154  CG        13.9690    0.2360   13.8670 C.ar  257  TYR257     -0.0198
    155  CD1       13.7290   -0.7680   12.9460 C.ar  257  TYR257     -0.0009
    156  CD2       14.8700    1.2350   13.5280 C.ar  257  TYR257     -0.0009
    157  CE1       14.3860   -0.8060   11.7320 C.ar  257  TYR257      0.0417
    158  CE2       15.5330    1.2100   12.2990 C.ar  257  TYR257      0.0417
    159  CZ        15.2760    0.1870   11.4120 C.ar  257  TYR257      0.1957
    160  OH        15.9150    0.1390   10.1930 O.3   257  TYR257     -0.2866
    161  N         10.5980   -0.7210   16.4950 N.am  258  ASN258     -0.1972
    162  CA         9.7360   -1.0350   17.6330 C.3   258  ASN258      0.1688
    163  C         10.3300   -2.1220   18.5280 C.2   258  ASN258      0.2292
    164  O          9.6130   -2.8220   19.2270 O.2   258  ASN258     -0.2864
    165  CB         8.3140   -1.4300   17.1630 C.3   258  ASN258      0.1181
    166  CG         8.2780   -2.6600   16.2460 C.2   258  ASN258      0.2629
    167  OD1        9.2570   -3.3810   16.0780 O.2   258  ASN258     -0.2716
    168  ND2        7.1130   -2.8990   15.6500 N.am  258  ASN258     -0.0877
@<TRIPOS>BOND
     1    79    78    1
     2    78    76   ar
     3    78    77   ar
     4   134   132   ar
     5   134   133   ar
     6    60    59    2
     7    76    74   ar
     8   132   130   ar
     9    66    64   ar
    10    66    67   ar
    11    59    58    1
    12   133   131   ar
    13    77    75   ar
    14    64    62   ar
    15    67    65   ar
    16    74    73   ar
    17   130   128   ar
    18   130   129   ar
    19   131   128   ar
    20    75    73   ar
    21    62    61    1
    22    62    63   ar
    23    58    61    1
    24    58    57    1
    25    27    26    2
    26    65    63   ar
    27    73    72    1
    28   128   126   ar
    29   129   127   ar
    30    26    25    1
    31   124   123    2
    32    68    69    1
    33    69    72    1
    34    69    70    1
    35    23    21   am
    36    28    25    1
    37    28    29    1
    38   123   122    1
    39   127   126   ar
    40   126   125    1
    41    21    22    2
    42    21    20    1
    43    25    24    1
    44    51    50    2
    45    31    29   ar
    46    31    33   ar
    47    20    19    1
    48    29    30   ar
    49    70    71    2
    50   125   122    1
    51   122   121    1
    52    33    34   ar
    53   103   105   ar
    54   103   101   ar
    55    50    49    1
    56   105   104   ar
    57    30    32   ar
    58    19    16    1
    59    91    90    1
    60   100   101   ar
    61   100    98   ar
    62    15    16    1
    63   101    99   ar
    64    53    54    1
    65    53    52    1
    66    56    54   ar
    67    16    17    1
    68   120   118    1
    69    34    32   ar
    70    34    35    1
    71    54    55   ar
    72    52    49    1
    73    49    48    1
    74   104   102   ar
    75    88    90   ar
    76    88    86   ar
    77   146   148   ar
    78   146   144   ar
    79    90    89   ar
    80   148   147   ar
    81    36    37    1
    82     7     6    1
    83     7     1    1
    84    98    97   ar
    85    99   102   ar
    86    99    97   ar
    87     6     5    1
    88    40    37    1
    89    40    41    1
    90   118   119    1
    91   118   117    2
    92   144   143   ar
    93   144   142   ar
    94    86    85   ar
    95   143   141   ar
    96   147   145   ar
    97    89    87   ar
    98    17    18    2
    99    97    96    1
   100    37    38    1
   101    80    81    1
   102   117   116    1
   103     1     2    1
   104    43    41   ar
   105    43    45   ar
   106   142   145   ar
   107   142   140   ar
   108    41    42   ar
   109   160   159    1
   110    85    87   ar
   111    85    84    1
   112   141   140   ar
   113    81    82    1
   114    81    84    1
   115    38    39    2
   116     5     2    1
   117   140   139    1
   118    96    93    1
   119    45    46   ar
   120    82    83    2
   121    13    12    1
   122     2     3    1
   123   116   115    1
   124    42    44   ar
   125   159   157   ar
   126   159   158   ar
   127    95    94    2
   128   115   114    1
   129     8     3   am
   130     8     9    1
   131   157   155   ar
   132   139   136    1
   133    12     9    1
   134    12    14    1
   135    93    94    1
   136    93    92    1
   137    46    44   ar
   138    46    47    1
   139     3     4    2
   140   158   156   ar
   141    94   106   am
   142     9    10    1
   143   136   137    1
   144   136   135    1
   145   114   111    1
   146   155   154   ar
   147   138   137    2
   148   137   149   am
   149   156   154   ar
   150   106   107    1
   151   154   153    1
   152    10    11    2
   153   107   108    1
   154   110   108   am
   155   110   111    1
   156   108   109    2
   157   111   112    1
   158   149   150    1
   159   150   153    1
   160   150   151    1
   161   113   112    2
   162   168   166   am
   163   167   166    2
   164   151   161   am
   165   151   152    2
   166   166   165    1
   167   161   162    1
   168   165   162    1
   169   162   163    1
   170   163   164    2
