@<TRIPOS>MOLECULE
tmp/5fm0B01.pdb
 125 117 0 0 0
SMALL
GASTEIGER

@<TRIPOS>ATOM
      1  N         17.0970  -30.9170    6.0510 N.3    17  HIS17      -0.1226
      2  CA        17.0560  -32.2880    5.5470 C.3    17  HIS17       0.1752
      3  C         15.9430  -33.0810    6.2460 C.2    17  HIS17       0.2596
      4  O         15.8360  -33.1110    7.4680 O.2    17  HIS17      -0.2718
      5  CB        18.4150  -32.9560    5.7540 C.3    17  HIS17       0.0759
      6  CG        18.4190  -34.4340    5.5060 C.ar   17  HIS17       0.0818
      7  ND1       18.4120  -34.9760    4.2380 N.ar   17  HIS17      -0.2268
      8  CD2       18.4610  -35.4840    6.3640 C.ar   17  HIS17       0.1154
      9  CE1       18.4390  -36.2930    4.3260 C.ar   17  HIS17       0.1986
     10  NE2       18.4700  -36.6280    5.6050 N.ar   17  HIS17      -0.2212
     11  N         15.0990  -33.7050    5.4520 N.am   18  ILE18      -0.1966
     12  CA        14.0030  -34.4930    5.9750 C.3    18  ILE18       0.1727
     13  C         14.3430  -35.9750    5.8510 C.2    18  ILE18       0.2617
     14  O         14.2770  -36.7270    6.8320 O.2    18  ILE18      -0.2715
     15  CB        12.6990  -34.2050    5.1960 C.3    18  ILE18       0.0290
     16  CG1       12.2300  -32.7800    5.4680 C.3    18  ILE18       0.0022
     17  CG2       11.5980  -35.1810    5.5860 C.3    18  ILE18       0.0023
     18  CD1       11.8390  -32.5500    6.9190 C.3    18  ILE18       0.0001
     19  N         14.7270  -36.3880    4.6440 N.am   19  SER19      -0.1936
     20  CA        14.9040  -37.7830    4.3550 C.3    19  SER19       0.2055
     21  C         15.8420  -38.0290    3.1780 C.2    19  SER19       0.2643
     22  O         16.1210  -37.1430    2.3510 O.2    19  SER19      -0.2714
     23  CB        13.5480  -38.4230    4.0740 C.3    19  SER19       0.2130
     24  OG        13.6810  -39.8220    3.8590 O.3    19  SER19      -0.2179
     25  N         16.3370  -39.2550    3.1270 N.am   20  GLY20      -0.1954
     26  CA        17.2570  -39.6900    2.0930 C.3    20  GLY20       0.1869
     27  C         17.1470  -41.1900    2.0100 C.2    20  GLY20       0.2309
     28  O         16.8270  -41.8400    2.9900 O.2    20  GLY20      -0.2863
     29  N         18.6380  -44.8460   -0.4600 N.3    22  GLU22      -0.1245
     30  CA        19.4380  -45.4040   -1.5190 C.3    22  GLU22       0.1567
     31  C         19.0960  -46.8760   -1.7030 C.2    22  GLU22       0.2260
     32  O         18.9660  -47.5960   -0.7580 O.2    22  GLU22      -0.2867
     33  CB        20.9330  -45.2170   -1.2420 C.3    22  GLU22       0.0388
     34  CG        21.3160  -45.3200    0.2180 C.3    22  GLU22       0.1160
     35  CD        21.1190  -44.0100    0.9900 C.2    22  GLU22       0.3649
     36  OE1       21.3720  -42.9170    0.4140 O.co2  22  GLU22      -0.2457
     37  OE2       20.7300  -44.0870    2.1920 O.co2  22  GLU22      -0.2457
     38  N          8.4530  -42.7860    1.5610 N.3    40  LYS40      -0.1245
     39  CA         9.3350  -42.6280    2.7060 C.3    40  LYS40       0.1561
     40  C          9.6600  -41.1590    2.9410 C.2    40  LYS40       0.2260
     41  O          9.7540  -40.7020    4.0820 O.2    40  LYS40      -0.2867
     42  CB        10.5760  -43.4820    2.4710 C.3    40  LYS40       0.0271
     43  CG        11.7920  -43.1750    3.2860 C.3    40  LYS40       0.0035
     44  CD        12.8770  -44.1780    2.8880 C.3    40  LYS40       0.0206
     45  CE        14.2650  -43.7690    3.3390 C.3    40  LYS40       0.1093
     46  NZ        14.5540  -44.2270    4.7230 N.3    40  LYS40      -0.1314
     47  N          7.4860  -38.6660    6.5370 N.3    44  HIS44      -0.1241
     48  CA         8.5830  -38.7340    7.4910 C.3    44  HIS44       0.1621
     49  C          8.2850  -37.9150    8.7530 C.2    44  HIS44       0.2264
     50  O          7.7240  -36.8160    8.6900 O.2    44  HIS44      -0.2867
     51  CB         9.8950  -38.2780    6.8540 C.3    44  HIS44       0.0745
     52  CG        11.1110  -38.8090    7.5480 C.ar   44  HIS44       0.0817
     53  ND1       11.7280  -38.1390    8.5820 N.ar   44  HIS44      -0.2268
     54  CD2       11.8050  -39.9610    7.3800 C.ar   44  HIS44       0.1154
     55  CE1       12.7540  -38.8510    9.0150 C.ar   44  HIS44       0.1986
     56  NE2       12.8260  -39.9600    8.3000 N.ar   44  HIS44      -0.2212
     57  N         24.3450  -34.1610    6.3200 N.3   114  ARG114     -0.1245
     58  CA        23.3370  -34.9590    5.6270 C.3   114  ARG114      0.1563
     59  C         23.7780  -36.4050    5.4020 C.2   114  ARG114      0.2260
     60  O         22.9450  -37.3300    5.3200 O.2   114  ARG114     -0.2867
     61  CB        23.0070  -34.3020    4.2880 C.3   114  ARG114      0.0307
     62  CG        22.3940  -32.9110    4.4440 C.3   114  ARG114      0.0489
     63  CD        22.3700  -32.1310    3.1400 C.3   114  ARG114      0.2205
     64  NE        22.6690  -30.7200    3.3880 N.pl3 114  ARG114     -0.0865
     65  CZ        23.4080  -29.9490    2.5850 C.cat 114  ARG114      0.5346
     66  NH1       23.9200  -30.4460    1.4610 N.pl3 114  ARG114      0.1354
     67  NH2       23.6440  -28.6790    2.9090 N.pl3 114  ARG114      0.1354
     68  N         27.9510  -39.5510    1.4770 N.3   136  ARG136     -0.1245
     69  CA        26.7000  -40.3210    1.3680 C.3   136  ARG136      0.1563
     70  C         27.0390  -41.6830    0.7840 C.2   136  ARG136      0.2260
     71  O         27.4870  -41.7870   -0.3440 O.2   136  ARG136     -0.2867
     72  CB        25.6640  -39.5970    0.4910 C.3   136  ARG136      0.0307
     73  CG        24.2470  -40.1870    0.5420 C.3   136  ARG136      0.0489
     74  CD        23.4460  -39.7360    1.7890 C.3   136  ARG136      0.2205
     75  NE        22.2780  -40.6020    2.0810 N.pl3 136  ARG136     -0.0865
     76  CZ        21.4450  -40.4360    3.1200 C.cat 136  ARG136      0.5346
     77  NH1       21.6360  -39.4330    3.9630 N.pl3 136  ARG136      0.1354
     78  NH2       20.4240  -41.2770    3.3270 N.pl3 136  ARG136      0.1354
     79  N         14.0830  -50.1080    8.4740 N.3   161  ARG161     -0.1245
     80  CA        15.0750  -49.2180    9.0250 C.3   161  ARG161      0.1563
     81  C         16.3240  -50.0000    9.4500 C.2   161  ARG161      0.2260
     82  O         17.4550  -49.4930    9.4020 O.2   161  ARG161     -0.2867
     83  CB        14.4710  -48.4960   10.2100 C.3   161  ARG161      0.0307
     84  CG        15.3300  -47.4260   10.8160 C.3   161  ARG161      0.0489
     85  CD        14.8670  -47.1310   12.2220 C.3   161  ARG161      0.2205
     86  NE        13.6600  -46.3060   12.2730 N.pl3 161  ARG161     -0.0865
     87  CZ        13.6470  -44.9850   12.1180 C.cat 161  ARG161      0.5346
     88  NH1       14.7740  -44.3360   11.8640 N.pl3 161  ARG161      0.1354
     89  NH2       12.5050  -44.3140   12.2050 N.pl3 161  ARG161      0.1354
     90  N         18.0730  -51.2780    6.1920 N.3   164  GLU164     -0.1245
     91  CA        18.8780  -50.2290    5.5840 C.3   164  GLU164      0.1567
     92  C         20.1510  -49.9430    6.3960 C.2   164  GLU164      0.2260
     93  O         21.2240  -49.7860    5.8340 O.2   164  GLU164     -0.2867
     94  CB        18.0750  -48.9470    5.3820 C.3   164  GLU164      0.0388
     95  CG        16.9660  -49.0560    4.3400 C.3   164  GLU164      0.1160
     96  CD        15.7670  -48.1140    4.6110 C.2   164  GLU164      0.3649
     97  OE1       15.8610  -47.2090    5.4680 O.co2 164  GLU164     -0.2457
     98  OE2       14.7160  -48.2770    3.9510 O.co2 164  GLU164     -0.2457
     99  N         18.4040  -39.6820   13.3640 N.3   186  ASP186     -0.1225
    100  CA        18.0260  -38.2760   13.5270 C.3   186  ASP186      0.1805
    101  C         16.4970  -38.1400   13.6720 C.2   186  ASP186      0.2597
    102  O         15.9810  -37.0470   13.8330 O.2   186  ASP186     -0.2718
    103  CB        18.5820  -37.3890   12.3840 C.3   186  ASP186      0.1424
    104  CG        18.1450  -37.8490   10.9940 C.2   186  ASP186      0.3668
    105  OD1       17.5960  -38.9630   10.8490 O.co2 186  ASP186     -0.2456
    106  OD2       18.3610  -37.0890   10.0360 O.co2 186  ASP186     -0.2456
    107  N         15.8050  -39.2770   13.6420 N.am  187  ASP187     -0.1974
    108  CA        14.3610  -39.3440   13.8170 C.3   187  ASP187      0.1709
    109  C         13.9930  -39.3310   15.3020 C.2   187  ASP187      0.2293
    110  O         14.5100  -40.1430   16.0850 O.2   187  ASP187     -0.2864
    111  CB        13.8100  -40.6080   13.1580 C.3   187  ASP187      0.1436
    112  CG        14.2640  -40.7700   11.6650 C.2   187  ASP187      0.3671
    113  OD1       15.0400  -39.9280   11.1380 O.co2 187  ASP187     -0.2456
    114  OD2       13.8390  -41.7580   11.0180 O.co2 187  ASP187     -0.2456
    115  N         26.3740  -40.0200   12.4450 N.3   218  ARG218     -0.1245
    116  CA        27.0230  -41.0660   11.6640 C.3   218  ARG218      0.1563
    117  C         28.4900  -40.7130   11.5030 C.2   218  ARG218      0.2260
    118  O         28.8400  -39.8160   10.7440 O.2   218  ARG218     -0.2867
    119  CB        26.3920  -41.1910   10.2790 C.3   218  ARG218      0.0307
    120  CG        26.3490  -42.5920    9.6840 C.3   218  ARG218      0.0489
    121  CD        25.2150  -43.3180   10.3290 C.3   218  ARG218      0.2205
    122  NE        24.8790  -44.6400    9.8170 N.pl3 218  ARG218     -0.0865
    123  CZ        23.7090  -44.9400    9.2670 C.cat 218  ARG218      0.5346
    124  NH1       22.8030  -44.0050    9.0610 N.pl3 218  ARG218      0.1354
    125  NH2       23.4420  -46.1810    8.9260 N.pl3 218  ARG218      0.1354
@<TRIPOS>BOND
     1    31    30    1
     2    31    32    2
     3    30    33    1
     4    30    29    1
     5    33    34    1
     6    71    70    2
     7    34    35    1
     8    36    35   ar
     9    72    73    1
    10    72    69    1
    11    73    74    1
    12    70    69    1
    13    35    37   ar
    14    69    68    1
    15    66    65    1
    16    38    39    1
    17    74    75    1
    18    27    26    1
    19    27    28    2
    20    75    76    2
    21    26    25    1
    22    22    21    2
    23    42    39    1
    24    42    43    1
    25    65    67    1
    26    65    64    2
    27    39    40    1
    28    44    43    1
    29    44    45    1
    30    40    41    2
    31    76    78    1
    32    76    77    1
    33    25    21   am
    34    63    64    1
    35    63    62    1
    36    21    20    1
    37    45    46    1
    38    24    23    1
    39    98    96   ar
    40    23    20    1
    41     7     9   ar
    42     7     6   ar
    43    61    62    1
    44    61    58    1
    45     9    10   ar
    46    95    96    1
    47    95    94    1
    48    20    19    1
    49    96    97   ar
    50    19    13   am
    51    15    16    1
    52    15    17    1
    53    15    12    1
    54    60    59    2
    55    94    91    1
    56    59    58    1
    57    11    12    1
    58    11     3   am
    59    16    18    1
    60     6     5    1
    61     6     8   ar
    62     2     5    1
    63     2     1    1
    64     2     3    1
    65    91    90    1
    66    91    92    1
    67    10     8   ar
    68    58    57    1
    69    93    92    2
    70    13    12    1
    71    13    14    2
    72     3     4    2
    73    47    48    1
    74    51    48    1
    75    51    52    1
    76    54    52   ar
    77    54    56   ar
    78    48    49    1
    79    52    53   ar
    80    56    55   ar
    81    79    80    1
    82    53    55   ar
    83    50    49    2
    84   125   123    1
    85    80    81    1
    86    80    83    1
    87   124   123    1
    88   123   122    2
    89    82    81    2
    90   120   119    1
    91   120   121    1
    92   122   121    1
    93   106   104   ar
    94    83    84    1
    95   119   116    1
    96   118   117    2
    97    84    85    1
    98   105   104   ar
    99   104   103    1
   100   114   112   ar
   101   113   112   ar
   102   117   116    1
   103   116   115    1
   104   112   111    1
   105    88    87    1
   106    87    89    1
   107    87    86    2
   108    85    86    1
   109   103   100    1
   110   111   108    1
   111    99   100    1
   112   100   101    1
   113   107   101   am
   114   107   108    1
   115   101   102    2
   116   108   109    1
   117   109   110    2
