@<TRIPOS>MOLECULE
tmp/5fm7B00.pdb
 183 174 0 0 0
SMALL
GASTEIGER

@<TRIPOS>ATOM
      1  N        205.6470   39.2460   42.8900 N.3    11  ALA11      -0.1231
      2  CA       204.8560   39.8760   43.9410 C.3    11  ALA11       0.1694
      3  C        205.7520   40.7170   44.8450 C.2    11  ALA11       0.2592
      4  O        205.3480   41.1210   45.9340 O.2    11  ALA11      -0.2718
      5  CB       204.1140   38.8290   44.7530 C.3    11  ALA11       0.0304
      6  N        206.9790   40.9580   44.3910 N.am   12  HIS12      -0.1976
      7  CA       207.9320   41.7840   45.1260 C.3    12  HIS12       0.1656
      8  C        208.3170   42.9930   44.2770 C.2    12  HIS12       0.2291
      9  O        209.4540   43.1020   43.8200 O.2    12  HIS12      -0.2864
     10  CB       209.1930   40.9930   45.4990 C.3    12  HIS12       0.0771
     11  CG       208.9270   39.6550   46.1230 C.ar   12  HIS12       0.0820
     12  ND1      207.6890   39.2770   46.5980 N.ar   12  HIS12      -0.2267
     13  CD2      209.7510   38.6050   46.3490 C.ar   12  HIS12       0.1154
     14  CE1      207.7600   38.0490   47.0810 C.ar   12  HIS12       0.1986
     15  NE2      209.0010   37.6210   46.9470 N.ar   12  HIS12      -0.2212
     16  N        209.0090   45.9260   44.9440 N.3    14  HIS14      -0.1241
     17  CA       209.6370   46.9760   45.7420 C.3    14  HIS14       0.1621
     18  C        211.1310   46.7440   45.9540 C.2    14  HIS14       0.2264
     19  O        211.6840   47.1320   46.9830 O.2    14  HIS14      -0.2867
     20  CB       208.9370   47.0900   47.0980 C.3    14  HIS14       0.0745
     21  CG       208.8280   45.7910   47.8340 C.ar   14  HIS14       0.0817
     22  ND1      209.9270   45.1160   48.3240 N.ar   14  HIS14      -0.2268
     23  CD2      207.7510   45.0410   48.1650 C.ar   14  HIS14       0.1154
     24  CE1      209.5310   44.0080   48.9230 C.ar   14  HIS14       0.1986
     25  NE2      208.2150   43.9380   48.8420 N.ar   14  HIS14      -0.2212
     26  N        213.6260   49.1880   47.7720 N.3    33  GLY33      -0.1210
     27  CA       213.6190   49.4660   49.1930 C.3    33  GLY33       0.1956
     28  C        213.2290   48.2360   49.9870 C.2    33  GLY33       0.2612
     29  O        212.0570   48.0360   50.2990 O.2    33  GLY33      -0.2717
     30  N        214.2120   47.4010   50.3080 N.am   34  LEU34      -0.1965
     31  CA       213.9430   46.1910   51.0650 C.3    34  LEU34       0.1728
     32  C        214.4090   46.3640   52.5140 C.2    34  LEU34       0.2616
     33  O        215.5100   46.8500   52.7760 O.2    34  LEU34      -0.2715
     34  CB       214.5960   44.9770   50.3890 C.3    34  LEU34       0.0311
     35  CG       215.9330   44.3970   50.8440 C.3    34  LEU34       0.0022
     36  CD1      215.6930   43.1770   51.7150 C.3    34  LEU34       0.0001
     37  CD2      216.8070   44.0400   49.6480 C.3    34  LEU34       0.0001
     38  N        213.5460   45.9770   53.4470 N.am   35  VAL35      -0.1977
     39  CA       213.6840   46.3470   54.8540 C.3    35  VAL35       0.1596
     40  C        214.3760   45.2940   55.7160 C.2    35  VAL35       0.2287
     41  O        214.0470   44.1120   55.6500 O.2    35  VAL35      -0.2864
     42  CB       212.2980   46.6390   55.4670 C.3    35  VAL35       0.0276
     43  CG1      212.4250   47.0190   56.9330 C.3    35  VAL35       0.0022
     44  CG2      211.5960   47.7330   54.6790 C.3    35  VAL35       0.0022
     45  N        217.0820   42.7170   57.5980 N.3    37  GLN37      -0.1245
     46  CA       217.9340   41.6140   57.1500 C.3    37  GLN37       0.1566
     47  C        219.3080   42.0980   56.7100 C.2    37  GLN37       0.2260
     48  O        219.8670   41.6020   55.7310 O.2    37  GLN37      -0.2867
     49  CB       217.2650   40.8410   56.0090 C.3    37  GLN37       0.0367
     50  CG       216.2400   39.8350   56.4790 C.3    37  GLN37       0.0905
     51  CD       216.8070   38.8640   57.4940 C.2    37  GLN37       0.2608
     52  OE1      216.2010   38.6100   58.5340 O.2    37  GLN37      -0.2717
     53  NE2      217.9800   38.3180   57.1970 N.am   37  GLN37      -0.0878
     54  N        210.2080   30.6330   57.3080 N.3    67  PRO67      -0.2102
     55  CA       209.2760   31.1360   56.2930 C.3    67  PRO67       0.1504
     56  C        208.8430   32.5700   56.5830 C.2    67  PRO67       0.2576
     57  O        209.0060   33.0380   57.7120 O.2    67  PRO67      -0.2718
     58  CB       208.0890   30.1690   56.3900 C.3    67  PRO67       0.0282
     59  CG       208.2280   29.5060   57.7170 C.3    67  PRO67       0.0208
     60  CD       209.6960   29.4260   57.9770 C.3    67  PRO67       0.0893
     61  N        208.3000   33.2450   55.5740 N.am   68  SER68      -0.1938
     62  CA       207.9400   34.6600   55.6630 C.3    68  SER68       0.2055
     63  C        209.1610   35.5110   56.0140 C.2    68  SER68       0.2644
     64  O        209.1150   36.3380   56.9240 O.2    68  SER68      -0.2714
     65  CB       206.8190   34.8830   56.6860 C.3    68  SER68       0.2130
     66  OG       207.2650   34.6520   58.0130 O.3    68  SER68      -0.2179
     67  N        210.2500   35.2910   55.2840 N.am   69  THR69      -0.1936
     68  CA       211.4680   36.0810   55.4450 C.3    69  THR69       0.2028
     69  C        212.0610   36.3680   54.0670 C.2    69  THR69       0.2643
     70  O        211.9290   35.5640   53.1480 O.2    69  THR69      -0.2714
     71  CB       212.5050   35.3660   56.3310 C.3    69  THR69       0.1808
     72  OG1      211.8520   34.8150   57.4810 O.3    69  THR69      -0.2208
     73  CG2      213.5770   36.3390   56.7870 C.3    69  THR69       0.0379
     74  N        212.7220   37.5100   53.9250 N.am   70  GLY70      -0.1939
     75  CA       213.1090   38.0050   52.6160 C.3    70  GLY70       0.2014
     76  C        214.2050   37.2840   51.8560 C.2    70  GLY70       0.2639
     77  O        214.9140   37.9190   51.0780 O.2    70  GLY70      -0.2714
     78  N        214.3440   35.9750   52.0530 N.am   71  LYS71      -0.1963
     79  CA       215.3410   35.2060   51.3110 C.3    71  LYS71       0.1728
     80  C        215.0760   35.2780   49.8090 C.2    71  LYS71       0.2617
     81  O        216.0060   35.3830   49.0060 O.2    71  LYS71      -0.2715
     82  CB       215.3660   33.7470   51.7730 C.3    71  LYS71       0.0311
     83  CG       214.2410   33.3560   52.7040 C.3    71  LYS71       0.0038
     84  CD       214.3670   31.9030   53.1180 C.3    71  LYS71       0.0206
     85  CE       213.1360   31.4460   53.8740 C.3    71  LYS71       0.1093
     86  NZ       213.2080   29.9970   54.1990 N.3    71  LYS71      -0.1314
     87  N        213.8010   35.2200   49.4380 N.am   72  THR72      -0.1937
     88  CA       213.4000   35.3930   48.0490 C.3    72  THR72       0.2028
     89  C        213.6040   36.8440   47.6300 C.2    72  THR72       0.2642
     90  O        214.1030   37.1340   46.5370 O.2    72  THR72      -0.2714
     91  CB       211.9300   34.9970   47.8270 C.3    72  THR72       0.1808
     92  OG1      211.7040   33.6750   48.3330 O.3    72  THR72      -0.2208
     93  CG2      211.5870   35.0380   46.3450 C.3    72  THR72       0.0379
     94  N        213.2170   37.7510   48.5210 N.am   73  ALA73      -0.1977
     95  CA       213.3980   39.1800   48.3040 C.3    73  ALA73       0.1597
     96  C        214.8760   39.5220   48.1470 C.2    73  ALA73       0.2287
     97  O        215.2530   40.3310   47.2950 O.2    73  ALA73      -0.2864
     98  CB       212.7870   39.9720   49.4550 C.3    73  ALA73       0.0319
     99  N        213.4230   27.8700   45.0200 N.3   265  ASP265     -0.1239
    100  CA       212.8190   27.9250   46.3440 C.3   265  ASP265      0.1674
    101  C        212.5220   26.5110   46.8380 C.2   265  ASP265      0.2266
    102  O        212.4180   25.5800   46.0330 O.2   265  ASP265     -0.2867
    103  CB       211.5450   28.7690   46.3200 C.3   265  ASP265      0.1410
    104  CG       211.0630   29.1410   47.7110 C.2   265  ASP265      0.3668
    105  OD1      211.8910   29.1540   48.6480 O.co2 265  ASP265     -0.2456
    106  OD2      209.8570   29.4280   47.8650 O.co2 265  ASP265     -0.2456
    107  N        216.7510   28.4230   48.1720 N.3   293  ALA293     -0.1245
    108  CA       216.1870   28.8350   49.4550 C.3   293  ALA293      0.1562
    109  C        215.6770   27.6390   50.2480 C.2   293  ALA293      0.2260
    110  O        215.1940   26.6650   49.6710 O.2   293  ALA293     -0.2867
    111  CB       215.0690   29.8400   49.2480 C.3   293  ALA293      0.0290
    112  N        213.4630   26.4490   53.9720 N.3   295  ASN295     -0.1240
    113  CA       212.6760   26.7520   55.1620 C.3   295  ASN295      0.1653
    114  C        212.8960   25.7230   56.2690 C.2   295  ASN295      0.2266
    115  O        212.4980   25.9350   57.4140 O.2   295  ASN295     -0.2867
    116  CB       211.1850   26.8180   54.8150 C.3   295  ASN295      0.1155
    117  CG       210.8840   27.8040   53.6990 C.2   295  ASN295      0.2627
    118  OD1      210.6270   28.9830   53.9480 O.2   295  ASN295     -0.2716
    119  ND2      210.9060   27.3210   52.4600 N.am  295  ASN295     -0.0877
    120  N        211.5390   38.8600   61.8030 N.3   328  TYR328     -0.1241
    121  CA       211.5090   40.3160   61.7890 C.3   328  TYR328      0.1605
    122  C        210.9740   40.9040   63.0860 C.2   328  TYR328      0.2264
    123  O        210.0630   40.3540   63.7020 O.2   328  TYR328     -0.2867
    124  CB       210.6610   40.8180   60.6210 C.3   328  TYR328      0.0534
    125  CG       211.2190   40.4690   59.2650 C.ar  328  TYR328     -0.0201
    126  CD1      212.5800   40.5510   59.0140 C.ar  328  TYR328     -0.0009
    127  CD2      210.3870   40.0460   58.2380 C.ar  328  TYR328     -0.0009
    128  CE1      213.0970   40.2300   57.7790 C.ar  328  TYR328      0.0417
    129  CE2      210.8950   39.7210   56.9980 C.ar  328  TYR328      0.0417
    130  CZ       212.2510   39.8150   56.7740 C.ar  328  TYR328      0.1957
    131  OH       212.7640   39.4930   55.5390 O.3   328  TYR328     -0.2866
    132  N        207.2150   46.6500   56.0090 N.3   336  ILE336     -0.1245
    133  CA       207.0360   45.7500   54.8730 C.3   336  ILE336      0.1561
    134  C        205.5720   45.6730   54.4530 C.2   336  ILE336      0.2260
    135  O        205.2480   45.7780   53.2680 O.2   336  ILE336     -0.2867
    136  CB       207.5430   44.3290   55.1940 C.3   336  ILE336      0.0252
    137  CG1      209.0650   44.3210   55.3270 C.3   336  ILE336      0.0019
    138  CG2      207.1180   43.3490   54.1130 C.3   336  ILE336      0.0019
    139  CD1      209.6250   42.9910   55.7760 C.3   336  ILE336      0.0001
    140  N        204.4570   48.9300   52.7530 N.3   339  ILE339     -0.1231
    141  CA       204.9690   48.9820   51.3890 C.3   339  ILE339      0.1692
    142  C        204.1380   48.0840   50.4830 C.2   339  ILE339      0.2591
    143  O        203.7470   48.4760   49.3830 O.2   339  ILE339     -0.2718
    144  CB       206.4450   48.5490   51.3170 C.3   339  ILE339      0.0266
    145  CG1      207.3180   49.4750   52.1650 C.3   339  ILE339      0.0019
    146  CG2      206.9300   48.5470   49.8780 C.3   339  ILE339      0.0020
    147  CD1      208.7740   49.0660   52.2070 C.3   339  ILE339      0.0001
    148  N        203.8630   46.8780   50.9680 N.am  340  ARG340     -0.1980
    149  CA       203.0770   45.9030   50.2270 C.3   340  ARG340      0.1597
    150  C        201.6450   46.3910   50.0400 C.2   340  ARG340      0.2287
    151  O        200.9680   46.0130   49.0860 O.2   340  ARG340     -0.2864
    152  CB       203.0890   44.5540   50.9520 C.3   340  ARG340      0.0334
    153  CG       202.6720   43.3620   50.1050 C.3   340  ARG340      0.0492
    154  CD       203.6810   43.0890   49.0050 C.3   340  ARG340      0.2205
    155  NE       203.2800   43.6820   47.7330 N.pl3 340  ARG340     -0.0865
    156  CZ       204.0720   43.7730   46.6720 C.cat 340  ARG340      0.5346
    157  NH1      205.3150   43.3160   46.7310 N.pl3 340  ARG340      0.1354
    158  NH2      203.6250   44.3250   45.5520 N.pl3 340  ARG340      0.1354
    159  N        204.0650   36.8120   57.1150 N.3   365  LEU365     -0.1231
    160  CA       203.8990   37.9390   56.2030 C.3   365  LEU365      0.1693
    161  C        202.9680   37.6250   55.0340 C.2   365  LEU365      0.2591
    162  O        202.1470   38.4590   54.6500 O.2   365  LEU365     -0.2718
    163  CB       205.2580   38.3900   55.6660 C.3   365  LEU365      0.0284
    164  CG       206.0460   39.3670   56.5360 C.3   365  LEU365      0.0019
    165  CD1      207.4160   39.6390   55.9370 C.3   365  LEU365      0.0001
    166  CD2      205.2690   40.6610   56.6980 C.3   365  LEU365      0.0001
    167  N        203.1070   36.4300   54.4690 N.am  366  ARG366     -0.1980
    168  CA       202.3220   36.0340   53.3040 C.3   366  ARG366      0.1597
    169  C        200.8310   36.0740   53.6140 C.2   366  ARG366      0.2287
    170  O        200.0230   36.5080   52.7890 O.2   366  ARG366     -0.2864
    171  CB       202.7270   34.6340   52.8340 C.3   366  ARG366      0.0334
    172  CG       202.0930   34.1930   51.5200 C.3   366  ARG366      0.0492
    173  CD       202.7660   34.8440   50.3170 C.3   366  ARG366      0.2205
    174  NE       202.2680   36.1910   50.0540 N.pl3 366  ARG366     -0.0865
    175  CZ       201.2730   36.4660   49.2170 C.cat 366  ARG366      0.5346
    176  NH1      200.6660   35.4850   48.5620 N.pl3 366  ARG366      0.1354
    177  NH2      200.8830   37.7200   49.0360 N.pl3 366  ARG366      0.1354
    178  N        199.6600   39.7320   53.8570 N.3   369  SER369     -0.1217
    179  CA       199.5630   40.2370   52.4930 C.3   369  SER369      0.1889
    180  C        198.2890   39.7320   51.8330 C.2   369  SER369      0.2288
    181  O        197.6080   40.4750   51.1270 O.2   369  SER369     -0.2866
    182  CB       200.7840   39.8190   51.6730 C.3   369  SER369      0.2089
    183  OG       201.9720   40.3620   52.2190 O.3   369  SER369     -0.2183
@<TRIPOS>BOND
     1     1     2    1
     2     9     8    2
     3     2     5    1
     4     2     3    1
     5     8     7    1
     6     6     3   am
     7     6     7    1
     8     3     4    2
     9    16    17    1
    10    99   100    1
    11     7    10    1
    12    10    11    1
    13   158   156    1
    14    17    18    1
    15    17    20    1
    16    18    19    2
    17   102   101    2
    18    11    13   ar
    19    11    12   ar
    20   103   100    1
    21   103   104    1
    22   100   101    1
    23    93    91    1
    24    13    15   ar
    25    90    89    2
    26    12    14   ar
    27   156   157    1
    28   156   155    2
    29    15    14   ar
    30    20    21    1
    31    97    96    2
    32    89    88    1
    33    89    94   am
    34   104   106   ar
    35   104   105   ar
    36   155   154    1
    37    26    27    1
    38    91    88    1
    39    91    92    1
    40    21    23   ar
    41    21    22   ar
    42    88    87    1
    43    96    95    1
    44    23    25   ar
    45   107   108    1
    46    95    94    1
    47    95    98    1
    48    22    24   ar
    49   176   175    1
    50    25    24   ar
    51   154   153    1
    52    81    80    2
    53   177   175    1
    54   151   150    2
    55    27    28    1
    56   175   174    2
    57   111   108    1
    58   143   142    2
    59    87    80   am
    60   108   109    1
    61    37    35    1
    62   110   109    2
    63    80    79    1
    64   146   144    1
    65    28    29    2
    66    28    30   am
    67   150   149    1
    68   174   173    1
    69   153   152    1
    70   149   152    1
    71   149   148    1
    72    30    31    1
    73   173   172    1
    74    34    35    1
    75    34    31    1
    76   142   148   am
    77   142   141    1
    78    35    36    1
    79    31    32    1
    80    77    76    2
    81   181   180    2
    82    79    82    1
    83    79    78    1
    84   144   141    1
    85   144   145    1
    86   141   140    1
    87   172   171    1
    88   182   183    1
    89   182   179    1
    90    82    83    1
    91   180   179    1
    92    76    78   am
    93    76    75    1
    94   145   147    1
    95   119   117   am
    96   179   178    1
    97    32    33    2
    98    32    38   am
    99    75    74    1
   100    83    84    1
   101   170   169    2
   102   171   168    1
   103    84    85    1
   104    70    69    2
   105   135   134    2
   106   168   169    1
   107   168   167    1
   108    38    39    1
   109   117   118    2
   110   117   116    1
   111    85    86    1
   112    74    69   am
   113   112   113    1
   114    69    68    1
   115   138   136    1
   116   134   133    1
   117   167   161   am
   118   162   161    2
   119    44    42    1
   120   116   113    1
   121    39    42    1
   122    39    40    1
   123   133   136    1
   124   133   132    1
   125   161   160    1
   126   113   114    1
   127   136   137    1
   128    67    68    1
   129    67    63   am
   130   137   139    1
   131    68    71    1
   132    42    43    1
   133   131   130    1
   134    61    62    1
   135    61    56   am
   136    41    40    2
   137    62    63    1
   138    62    65    1
   139   163   160    1
   140   163   164    1
   141    48    47    2
   142   165   164    1
   143    49    50    1
   144    49    46    1
   145    63    64    2
   146   160   159    1
   147   114   115    2
   148    55    58    1
   149    55    56    1
   150    55    54    1
   151    71    73    1
   152    71    72    1
   153    58    59    1
   154    50    51    1
   155   164   166    1
   156    56    57    2
   157    65    66    1
   158    47    46    1
   159   130   129   ar
   160   130   128   ar
   161   129   127   ar
   162    46    45    1
   163    53    51   am
   164    54    60    1
   165    51    52    2
   166    59    60    1
   167   128   126   ar
   168   127   125   ar
   169   126   125   ar
   170   125   124    1
   171   124   121    1
   172   121   120    1
   173   121   122    1
   174   122   123    2
