@<TRIPOS>MOLECULE
tmp/5fm7A00.pdb
 189 182 0 0 0
SMALL
GASTEIGER

@<TRIPOS>ATOM
      1  N        172.1350   16.3020   45.2350 N.3    16  ALA16      -0.1231
      2  CA       171.8920   16.6030   46.6410 C.3    16  ALA16       0.1694
      3  C        172.0600   18.0910   46.9320 C.2    16  ALA16       0.2592
      4  O        172.1240   18.5010   48.0920 O.2    16  ALA16      -0.2718
      5  CB       172.8190   15.7840   47.5230 C.3    16  ALA16       0.0304
      6  N        172.1300   18.8950   45.8760 N.am   17  HIS17      -0.1976
      7  CA       172.2990   20.3360   46.0260 C.3    17  HIS17       0.1656
      8  C        171.3630   21.1040   45.1000 C.2    17  HIS17       0.2291
      9  O        171.6580   22.2300   44.6990 O.2    17  HIS17      -0.2864
     10  CB       173.7500   20.7370   45.7520 C.3    17  HIS17       0.0771
     11  CG       174.7550   19.9280   46.5100 C.ar   17  HIS17       0.0820
     12  ND1      175.1540   18.6700   46.1100 N.ar   17  HIS17      -0.2267
     13  CD2      175.4450   20.1960   47.6450 C.ar   17  HIS17       0.1154
     14  CE1      176.0440   18.1990   46.9640 C.ar   17  HIS17       0.1986
     15  NE2      176.2380   19.1050   47.9050 N.ar   17  HIS17      -0.2212
     16  N        168.5680   22.3030   45.8700 N.3    19  HIS19      -0.1226
     17  CA       167.9320   23.3650   46.6400 C.3    19  HIS19       0.1752
     18  C        168.8300   24.5930   46.7540 C.2    19  HIS19       0.2595
     19  O        168.3520   25.7000   47.0010 O.2    19  HIS19      -0.2718
     20  CB       167.5580   22.8580   48.0310 C.3    19  HIS19       0.0759
     21  CG       168.7090   22.2750   48.7880 C.ar   19  HIS19       0.0818
     22  ND1      169.1750   20.9970   48.5640 N.ar   19  HIS19      -0.2268
     23  CD2      169.4930   22.7970   49.7600 C.ar   19  HIS19       0.1154
     24  CE1      170.1950   20.7570   49.3670 C.ar   19  HIS19       0.1986
     25  NE2      170.4080   21.8310   50.1050 N.ar   19  HIS19      -0.2212
     26  N        170.1320   24.3920   46.5800 N.am   20  ILE20      -0.1980
     27  CA       171.0820   25.4950   46.6450 C.3    20  ILE20       0.1595
     28  C        170.9890   26.3710   45.4000 C.2    20  ILE20       0.2287
     29  O        171.3520   25.9490   44.3010 O.2    20  ILE20      -0.2864
     30  CB       172.5230   24.9870   46.8030 C.3    20  ILE20       0.0276
     31  CG1      172.6670   24.2100   48.1130 C.3    20  ILE20       0.0022
     32  CG2      173.5030   26.1490   46.7550 C.3    20  ILE20       0.0022
     33  CD1      172.3260   25.0210   49.3450 C.3    20  ILE20       0.0001
     34  N        168.3800   28.7820   50.0030 N.3    37  GLY37      -0.1210
     35  CA       168.6530   27.3630   50.1240 C.3    37  GLY37       0.1956
     36  C        169.6060   27.0170   51.2510 C.2    37  GLY37       0.2612
     37  O        169.6070   25.8900   51.7430 O.2    37  GLY37      -0.2717
     38  N        170.4180   27.9850   51.6630 N.am   38  PHE38      -0.1962
     39  CA       171.3960   27.7620   52.7240 C.3    38  PHE38       0.1771
     40  C        170.8010   27.9610   54.1130 C.2    38  PHE38       0.2619
     41  O        169.9470   28.8190   54.3120 O.2    38  PHE38      -0.2715
     42  CB       172.5990   28.6880   52.5460 C.3    38  PHE38       0.0574
     43  CG       173.7310   28.0720   51.7820 C.ar   38  PHE38      -0.0200
     44  CD1      174.6990   27.3300   52.4340 C.ar   38  PHE38      -0.0042
     45  CD2      173.8310   28.2360   50.4120 C.ar   38  PHE38      -0.0042
     46  CE1      175.7460   26.7610   51.7350 C.ar   38  PHE38      -0.0003
     47  CE2      174.8750   27.6710   49.7070 C.ar   38  PHE38      -0.0003
     48  CZ       175.8340   26.9320   50.3680 C.ar   38  PHE38      -0.0000
     49  N        171.2610   27.1620   55.0710 N.am   39  VAL39      -0.1977
     50  CA       170.8170   27.2820   56.4540 C.3    39  VAL39       0.1596
     51  C        172.0110   27.4710   57.3800 C.2    39  VAL39       0.2287
     52  O        172.8080   26.5540   57.5690 O.2    39  VAL39      -0.2864
     53  CB       170.0190   26.0460   56.9080 C.3    39  VAL39       0.0276
     54  CG1      169.6220   26.1800   58.3700 C.3    39  VAL39       0.0022
     55  CG2      168.7920   25.8550   56.0340 C.3    39  VAL39       0.0022
     56  N        175.6620   28.6460   58.6270 N.3    41  GLN41      -0.1245
     57  CA       176.9790   28.6570   57.9900 C.3    41  GLN41       0.1566
     58  C        177.2720   30.0410   57.4110 C.2    41  GLN41       0.2260
     59  O        177.7750   30.1700   56.2940 O.2    41  GLN41      -0.2867
     60  CB       177.0630   27.5810   56.8990 C.3    41  GLN41       0.0367
     61  CG       178.4770   27.1610   56.5240 C.3    41  GLN41       0.0905
     62  CD       179.1990   26.4560   57.6550 C.2    41  GLN41       0.2608
     63  OE1      179.9810   27.0660   58.3840 O.2    41  GLN41      -0.2717
     64  NE2      178.9390   25.1620   57.8070 N.am   41  GLN41      -0.0878
     65  N        182.8920   16.2250   57.4570 N.3    71  PRO71      -0.2102
     66  CA       182.0140   15.6090   56.4550 C.3    71  PRO71       0.1504
     67  C        180.5760   16.1270   56.5230 C.2    71  PRO71       0.2576
     68  O        179.8510   16.0550   55.5300 O.2    71  PRO71      -0.2718
     69  CB       182.0640   14.1190   56.8110 C.3    71  PRO71       0.0282
     70  CG       183.3180   13.9500   57.6030 C.3    71  PRO71       0.0208
     71  CD       183.4680   15.2250   58.3700 C.3    71  PRO71       0.0893
     72  N        180.1730   16.6400   57.6820 N.am   72  GLY72      -0.1943
     73  CA       178.8190   17.1290   57.8670 C.3    72  GLY72       0.2014
     74  C        178.5960   18.5100   57.2780 C.2    72  GLY72       0.2640
     75  O        177.4660   18.8790   56.9520 O.2    72  GLY72      -0.2714
     76  N        179.6790   19.2690   57.1390 N.am   73  THR73      -0.1936
     77  CA       179.6140   20.6260   56.6110 C.3    73  THR73       0.2028
     78  C        179.2590   20.6160   55.1290 C.2    73  THR73       0.2643
     79  O        179.1750   19.5530   54.5170 O.2    73  THR73      -0.2714
     80  CB       180.9440   21.3690   56.8080 C.3    73  THR73       0.1808
     81  OG1      181.9130   20.8910   55.8670 O.3    73  THR73      -0.2208
     82  CG2      181.4690   21.1570   58.2190 C.3    73  THR73       0.0379
     83  N        179.0600   21.7970   54.5520 N.am   74  GLY74      -0.1939
     84  CA       178.6570   21.8900   53.1600 C.3    74  GLY74       0.2014
     85  C        179.6570   22.5980   52.2660 C.2    74  GLY74       0.2639
     86  O        179.4260   23.7280   51.8430 O.2    74  GLY74      -0.2714
     87  N        180.7630   21.9280   51.9620 N.am   75  LYS75      -0.1963
     88  CA       181.7970   22.5120   51.1150 C.3    75  LYS75       0.1728
     89  C        181.3680   22.5280   49.6480 C.2    75  LYS75       0.2617
     90  O        181.4940   23.5480   48.9620 O.2    75  LYS75      -0.2715
     91  CB       183.1110   21.7430   51.2660 C.3    75  LYS75       0.0311
     92  CG       183.5170   21.4780   52.7060 C.3    75  LYS75       0.0038
     93  CD       184.8010   20.6670   52.7730 C.3    75  LYS75       0.0206
     94  CE       184.8450   19.8070   54.0230 C.3    75  LYS75       0.1093
     95  NZ       183.7810   18.7620   54.0130 N.3    75  LYS75      -0.1314
     96  N        180.8640   21.3900   49.1790 N.am   76  THR76      -0.1937
     97  CA       180.4120   21.2480   47.7990 C.3    76  THR76       0.2028
     98  C        179.3180   22.2590   47.4720 C.2    76  THR76       0.2642
     99  O        179.3600   22.9210   46.4320 O.2    76  THR76      -0.2714
    100  CB       179.8850   19.8240   47.5210 C.3    76  THR76       0.1808
    101  OG1      180.9340   18.8710   47.7350 O.3    76  THR76      -0.2208
    102  CG2      179.3840   19.7030   46.0890 C.3    76  THR76       0.0379
    103  N        178.3460   22.3770   48.3710 N.am   77  ALA77      -0.1977
    104  CA       177.2500   23.3220   48.2030 C.3    77  ALA77       0.1597
    105  C        177.7720   24.7520   48.1260 C.2    77  ALA77       0.2287
    106  O        177.2550   25.5710   47.3650 O.2    77  ALA77      -0.2864
    107  CB       176.2500   23.1810   49.3410 C.3    77  ALA77       0.0319
    108  N        187.3900   17.8220   45.7710 N.3   271  ASP271     -0.1239
    109  CA       187.2770   17.2560   47.1090 C.3   271  ASP271      0.1674
    110  C        188.4360   16.2930   47.3490 C.2   271  ASP271      0.2266
    111  O        189.0560   15.8210   46.3960 O.2   271  ASP271     -0.2867
    112  CB       185.9340   16.5430   47.2830 C.3   271  ASP271      0.1410
    113  CG       185.5600   16.3470   48.7410 C.2   271  ASP271      0.3668
    114  OD1      186.4720   16.2610   49.5890 O.co2 271  ASP271     -0.2456
    115  OD2      184.3490   16.2780   49.0390 O.co2 271  ASP271     -0.2456
    116  N        188.8600   17.3200   54.7050 N.3   301  ASN301     -0.1240
    117  CA       188.3510   16.9780   56.0240 C.3   301  ASN301      0.1653
    118  C        189.4520   16.3830   56.8900 C.2   301  ASN301      0.2266
    119  O        189.1800   15.6980   57.8780 O.2   301  ASN301     -0.2867
    120  CB       187.1770   16.0040   55.9110 C.3   301  ASN301      0.1155
    121  CG       187.4470   14.8810   54.9350 C.2   301  ASN301      0.2627
    122  OD1      188.1260   13.9070   55.2630 O.2   301  ASN301     -0.2716
    123  ND2      186.9160   15.0100   53.7250 N.am  301  ASN301     -0.0877
    124  N        176.8330   21.5520   62.4290 N.3   335  TYR335     -0.1241
    125  CA       175.5190   22.1710   62.5640 C.3   335  TYR335      0.1605
    126  C        174.8010   21.8400   63.8700 C.2   335  TYR335      0.2264
    127  O        174.8460   20.7090   64.3550 O.2   335  TYR335     -0.2867
    128  CB       174.6360   21.7710   61.3820 C.3   335  TYR335      0.0534
    129  CG       175.1140   22.3300   60.0650 C.ar  335  TYR335     -0.0201
    130  CD1      174.7770   23.6200   59.6750 C.ar  335  TYR335     -0.0009
    131  CD2      175.9090   21.5750   59.2140 C.ar  335  TYR335     -0.0009
    132  CE1      175.2150   24.1400   58.4750 C.ar  335  TYR335      0.0417
    133  CE2      176.3520   22.0870   58.0100 C.ar  335  TYR335      0.0417
    134  CZ       176.0020   23.3700   57.6470 C.ar  335  TYR335      0.1957
    135  OH       176.4380   23.8860   56.4490 O.3   335  TYR335     -0.2866
    136  N        167.4850   21.9020   57.4690 N.3   343  ILE343     -0.1245
    137  CA       168.0580   21.3400   56.2490 C.3   343  ILE343      0.1561
    138  C        167.2900   20.1000   55.7910 C.2   343  ILE343      0.2260
    139  O        166.9780   19.9550   54.6070 O.2   343  ILE343     -0.2867
    140  CB       169.5480   20.9810   56.4450 C.3   343  ILE343      0.0252
    141  CG1      170.3860   22.2550   56.5650 C.3   343  ILE343      0.0019
    142  CG2      170.0580   20.1330   55.2920 C.3   343  ILE343      0.0019
    143  CD1      171.8660   21.9970   56.7020 C.3   343  ILE343      0.0001
    144  N        164.0700   21.1220   54.2800 N.3   346  ILE346     -0.1231
    145  CA       164.2660   21.6480   52.9340 C.3   346  ILE346      0.1692
    146  C        164.4690   20.5170   51.9290 C.2   346  ILE346      0.2591
    147  O        163.9270   20.5530   50.8230 O.2   346  ILE346     -0.2718
    148  CB       165.4660   22.6120   52.8720 C.3   346  ILE346      0.0266
    149  CG1      165.1950   23.8470   53.7320 C.3   346  ILE346      0.0019
    150  CG2      165.7500   23.0310   51.4360 C.3   346  ILE346      0.0020
    151  CD1      166.2460   24.9210   53.6050 C.3   346  ILE346      0.0001
    152  N        165.2420   19.5090   52.3220 N.am  347  ARG347     -0.1980
    153  CA       165.4960   18.3580   51.4600 C.3   347  ARG347      0.1597
    154  C        164.2220   17.5740   51.1700 C.2   347  ARG347      0.2287
    155  O        163.8830   17.3370   50.0120 O.2   347  ARG347     -0.2864
    156  CB       166.5400   17.4340   52.0890 C.3   347  ARG347      0.0334
    157  CG       167.9690   17.9210   51.9380 C.3   347  ARG347      0.0492
    158  CD       168.3020   18.1720   50.4770 C.3   347  ARG347      0.2205
    159  NE       168.1240   16.9780   49.6550 N.pl3 347  ARG347     -0.0865
    160  CZ       168.2400   16.9610   48.3310 C.cat 347  ARG347      0.5346
    161  NH1      168.5320   18.0760   47.6740 N.pl3 347  ARG347      0.1354
    162  NH2      168.0610   15.8300   47.6630 N.pl3 347  ARG347      0.1354
    163  N        175.6530   14.2520   58.4100 N.3   372  LEU372     -0.1231
    164  CA       174.4160   14.7720   57.8420 C.3   372  LEU372      0.1693
    165  C        173.9990   13.9590   56.6200 C.2   372  LEU372      0.2591
    166  O        172.8080   13.7400   56.3800 O.2   372  LEU372     -0.2718
    167  CB       174.5860   16.2490   57.4730 C.3   372  LEU372      0.0284
    168  CG       173.4470   16.9600   56.7380 C.3   372  LEU372      0.0019
    169  CD1      172.1560   16.8880   57.5350 C.3   372  LEU372      0.0001
    170  CD2      173.8220   18.4080   56.4550 C.3   372  LEU372      0.0001
    171  N        174.9910   13.4970   55.8650 N.am  373  ARG373     -0.1980
    172  CA       174.7430   12.7700   54.6250 C.3   373  ARG373      0.1597
    173  C        173.9300   11.4980   54.8400 C.2   373  ARG373      0.2287
    174  O        173.0170   11.2090   54.0700 O.2   373  ARG373     -0.2864
    175  CB       176.0670   12.4290   53.9380 C.3   373  ARG373      0.0334
    176  CG       176.7590   13.6280   53.3130 C.3   373  ARG373      0.0492
    177  CD       177.9530   13.2000   52.4760 C.3   373  ARG373      0.2205
    178  NE       178.4280   14.2820   51.6190 N.pl3 373  ARG373     -0.0865
    179  CZ       179.4030   14.1510   50.7260 C.cat 373  ARG373      0.5346
    180  NH1      180.0120   12.9810   50.5690 N.pl3 373  ARG373      0.1354
    181  NH2      179.7720   15.1890   49.9860 N.pl3 373  ARG373      0.1354
    182  N        170.3640   12.2610   55.7050 N.3   376  LEU376     -0.1245
    183  CA       169.7330   12.7220   54.4730 C.3   376  LEU376      0.1561
    184  C        169.4390   11.5520   53.5340 C.2   376  LEU376      0.2260
    185  O        168.5020   11.6070   52.7380 O.2   376  LEU376     -0.2867
    186  CB       170.6090   13.7600   53.7700 C.3   376  LEU376      0.0270
    187  CG       170.6950   15.1270   54.4530 C.3   376  LEU376      0.0019
    188  CD1      171.5140   16.0970   53.6180 C.3   376  LEU376      0.0001
    189  CD2      169.3050   15.6840   54.7250 C.3   376  LEU376      0.0001
@<TRIPOS>BOND
     1    29    28    2
     2     9     8    2
     3     8     7    1
     4     1     2    1
     5    28    27    1
     6    10     7    1
     7    10    11    1
     8   108   109    1
     9    16    17    1
    10     6     7    1
    11     6     3   am
    12   102   100    1
    13    12    11   ar
    14    12    14   ar
    15   111   110    2
    16    99    98    2
    17    11    13   ar
    18    26    27    1
    19    26    18   am
    20    17    18    1
    21    17    20    1
    22     2     3    1
    23     2     5    1
    24    27    30    1
    25    18    19    2
    26    32    30    1
    27    30    31    1
    28     3     4    2
    29    14    15   ar
    30   109   112    1
    31   109   110    1
    32   112   113    1
    33   106   105    2
    34    98    97    1
    35    98   103   am
    36   100   101    1
    37   100    97    1
    38    13    15   ar
    39   162   160    1
    40   161   160    1
    41    97    96    1
    42    20    21    1
    43    31    33    1
    44   105   104    1
    45   104   103    1
    46   104   107    1
    47   160   159    2
    48    22    21   ar
    49    22    24   ar
    50   113   115   ar
    51   113   114   ar
    52    21    23   ar
    53    90    89    2
    54    96    89   am
    55    24    25   ar
    56    89    88    1
    57   159   158    1
    58    47    48   ar
    59    47    45   ar
    60    23    25   ar
    61   181   179    1
    62    34    35    1
    63   155   154    2
    64    35    36    1
    65    48    46   ar
    66    45    43   ar
    67   158   157    1
    68   180   179    1
    69   179   178    2
    70   147   146    2
    71    88    91    1
    72    88    87    1
    73   154   153    1
    74    36    38   am
    75    36    37    2
    76    91    92    1
    77   150   148    1
    78   153   156    1
    79   153   152    1
    80   178   177    1
    81    38    39    1
    82    46    44   ar
    83    43    44   ar
    84    43    42    1
    85    86    85    2
    86   146   152   am
    87   146   145    1
    88   157   156    1
    89    87    85   am
    90    85    84    1
    91   177   176    1
    92    42    39    1
    93    92    93    1
    94    39    40    1
    95   185   184    2
    96    93    94    1
    97   148   145    1
    98   148   149    1
    99   145   144    1
   100    84    83    1
   101   176   175    1
   102   184   183    1
   103   151   149    1
   104   188   187    1
   105   123   121   am
   106   186   187    1
   107   186   183    1
   108   175   172    1
   109    95    94    1
   110   174   173    2
   111    40    41    2
   112    40    49   am
   113   187   189    1
   114   183   182    1
   115    79    78    2
   116    83    78   am
   117   139   138    2
   118   172   173    1
   119   172   171    1
   120   116   117    1
   121   121   122    2
   122   121   120    1
   123    49    50    1
   124    78    77    1
   125   142   140    1
   126    68    67    2
   127   138   137    1
   128   171   165   am
   129    81    80    1
   130   120   117    1
   131   117   118    1
   132    55    53    1
   133   137   140    1
   134   137   136    1
   135    59    58    2
   136   166   165    2
   137   140   141    1
   138   135   134    1
   139    50    53    1
   140    50    51    1
   141    66    67    1
   142    66    69    1
   143    66    65    1
   144   170   168    1
   145    67    72   am
   146    61    60    1
   147    61    62    1
   148   141   143    1
   149    77    80    1
   150    77    76    1
   151   165   164    1
   152   168   167    1
   153   168   169    1
   154    80    82    1
   155    69    70    1
   156   118   119    2
   157    60    57    1
   158    53    54    1
   159    75    74    2
   160    76    74   am
   161    74    73    1
   162    51    52    2
   163    58    57    1
   164    65    71    1
   165   167   164    1
   166    70    71    1
   167   134   133   ar
   168   134   132   ar
   169    62    64   am
   170    62    63    2
   171    72    73    1
   172   164   163    1
   173    57    56    1
   174   133   131   ar
   175   132   130   ar
   176   131   129   ar
   177   130   129   ar
   178   129   128    1
   179   128   125    1
   180   124   125    1
   181   125   126    1
   182   126   127    2
