@<TRIPOS>MOLECULE
tmp/5fmbB03.pdb
 105 105 0 0 0
SMALL
GASTEIGER

@<TRIPOS>ATOM
      1  N        -10.4170  -17.7440   16.2460 N.3    36  TRP36      -0.1241
      2  CA        -9.4980  -18.2840   15.2770 C.3    36  TRP36       0.1605
      3  C         -8.1380  -18.5580   15.9030 C.2    36  TRP36       0.2264
      4  O         -7.5960  -17.7020   16.5930 O.2    36  TRP36      -0.2867
      5  CB        -9.3180  -17.2950   14.1090 C.3    36  TRP36       0.0550
      6  CG        -8.2150  -17.7130   13.1940 C.ar   36  TRP36       0.0003
      7  CD1       -6.9070  -17.3930   13.3060 C.ar   36  TRP36       0.0946
      8  CD2       -8.3230  -18.5810   12.0620 C.ar   36  TRP36       0.0152
      9  NE1       -6.1850  -17.9960   12.3190 N.ar   36  TRP36      -0.2442
     10  CE2       -7.0310  -18.7370   11.5380 C.ar   36  TRP36       0.0810
     11  CE3       -9.3870  -19.2500   11.4510 C.ar   36  TRP36       0.0012
     12  CZ2       -6.7650  -19.5240   10.4130 C.ar   36  TRP36       0.0191
     13  CZ3       -9.1270  -20.0370   10.3330 C.ar   36  TRP36       0.0001
     14  CH2       -7.8230  -20.1680    9.8290 C.ar   36  TRP36       0.0015
     15  N         -4.2400  -20.5180   14.5270 N.3    38  ASN38      -0.1240
     16  CA        -3.4860  -21.3330   13.6010 C.3    38  ASN38       0.1653
     17  C         -2.1480  -21.8030   14.2050 C.2    38  ASN38       0.2266
     18  O         -2.1750  -22.4760   15.2480 O.2    38  ASN38      -0.2867
     19  CB        -3.4550  -20.7560   12.1510 C.3    38  ASN38       0.1155
     20  CG        -2.8570  -19.3580   12.0320 C.2    38  ASN38       0.2627
     21  OD1       -3.4250  -18.3690   12.4970 O.2    38  ASN38      -0.2716
     22  ND2       -1.7550  -19.2620   11.3080 N.am   38  ASN38      -0.0877
     23  N         -8.7260  -15.5840    9.9420 N.3    64  TRP64      -0.1241
     24  CA        -7.4300  -14.9840   10.2680 C.3    64  TRP64       0.1605
     25  C         -7.4380  -13.4540   10.1920 C.2    64  TRP64       0.2264
     26  O         -8.2020  -12.8570    9.4280 O.2    64  TRP64      -0.2867
     27  CB        -6.4150  -15.5520    9.2820 C.3    64  TRP64       0.0550
     28  CG        -4.9930  -15.1570    9.4010 C.ar   64  TRP64       0.0003
     29  CD1       -4.0030  -15.8550   10.0410 C.ar   64  TRP64       0.0946
     30  CD2       -4.3540  -14.0480    8.7650 C.ar   64  TRP64       0.0152
     31  NE1       -2.7950  -15.2320    9.8660 N.ar   64  TRP64      -0.2442
     32  CE2       -2.9830  -14.1150    9.0920 C.ar   64  TRP64       0.0810
     33  CE3       -4.8080  -12.9890    7.9570 C.ar   64  TRP64       0.0012
     34  CZ2       -2.0650  -13.1640    8.6530 C.ar   64  TRP64       0.0191
     35  CZ3       -3.8920  -12.0430    7.5180 C.ar   64  TRP64       0.0001
     36  CH2       -2.5350  -12.1380    7.8650 C.ar   64  TRP64       0.0015
     37  N          3.4540  -12.4540   13.2160 N.3   104  PHE104     -0.1241
     38  CA         3.5010  -13.7950   12.6260 C.3   104  PHE104      0.1605
     39  C          4.3380  -14.7220   13.5270 C.2   104  PHE104      0.2264
     40  O          4.7390  -14.3390   14.6330 O.2   104  PHE104     -0.2867
     41  CB         4.0940  -13.7170   11.2010 C.3   104  PHE104      0.0534
     42  CG         3.1240  -13.3010   10.1190 C.ar  104  PHE104     -0.0203
     43  CD1        2.0560  -12.4330   10.3640 C.ar  104  PHE104     -0.0042
     44  CD2        3.3250  -13.7410    8.8130 C.ar  104  PHE104     -0.0042
     45  CE1        1.1980  -12.0470    9.3430 C.ar  104  PHE104     -0.0003
     46  CE2        2.4740  -13.3530    7.7870 C.ar  104  PHE104     -0.0003
     47  CZ         1.4070  -12.5110    8.0500 C.ar  104  PHE104     -0.0000
     48  N          7.1300  -22.5850    4.6690 N.3   262  GLU262     -0.1245
     49  CA         6.6460  -21.9230    5.8750 C.3   262  GLU262      0.1567
     50  C          6.9940  -22.7710    7.0980 C.2   262  GLU262      0.2260
     51  O          7.1340  -23.9980    7.0060 O.2   262  GLU262     -0.2867
     52  CB         5.1350  -21.7070    5.8180 C.3   262  GLU262      0.0388
     53  CG         4.6710  -20.8070    4.6760 C.3   262  GLU262      0.1160
     54  CD         3.1750  -20.5670    4.6940 C.2   262  GLU262      0.3649
     55  OE1        2.4090  -21.5420    4.5900 O.co2 262  GLU262     -0.2457
     56  OE2        2.7680  -19.3940    4.8220 O.co2 262  GLU262     -0.2457
     57  N         -5.7440  -27.4290    1.6500 N.3   300  GLN300     -0.1231
     58  CA        -5.3990  -25.9990    1.6300 C.3   300  GLN300      0.1698
     59  C         -4.0490  -25.7350    0.9660 C.2   300  GLN300      0.2592
     60  O         -3.3140  -24.8190    1.3440 O.2   300  GLN300     -0.2718
     61  CB        -5.4820  -25.4450    3.0630 C.3   300  GLN300      0.0381
     62  CG        -6.8370  -25.7630    3.7080 C.3   300  GLN300      0.0905
     63  CD        -7.1580  -24.9800    4.9810 C.2   300  GLN300      0.2608
     64  OE1       -8.3290  -24.9040    5.4050 O.2   300  GLN300     -0.2717
     65  NE2       -6.1310  -24.4160    5.6060 N.am  300  GLN300     -0.0878
     66  N         -3.7430  -26.5520   -0.0470 N.am  301  ASN301     -0.1960
     67  CA        -2.4950  -26.4850   -0.8030 C.3   301  ASN301      0.1819
     68  C         -1.2250  -26.6340    0.0280 C.2   301  ASN301      0.2621
     69  O         -0.1620  -26.1580   -0.3750 O.2   301  ASN301     -0.2715
     70  CB        -2.4590  -25.1950   -1.6430 C.3   301  ASN301      0.1195
     71  CG        -3.7730  -24.9420   -2.3670 C.2   301  ASN301      0.2630
     72  OD1       -4.1750  -25.7190   -3.2400 O.2   301  ASN301     -0.2716
     73  ND2       -4.4570  -23.8710   -1.9960 N.am  301  ASN301     -0.0877
     74  N         -1.3250  -27.3500    1.1520 N.am  302  HIS302     -0.1973
     75  CA        -0.2720  -27.3790    2.1740 C.3   302  HIS302      0.1656
     76  C          0.2040  -28.7870    2.5490 C.2   302  HIS302      0.2291
     77  O         -0.6050  -29.6220    2.9240 O.2   302  HIS302     -0.2864
     78  CB        -0.8010  -26.7040    3.4380 C.3   302  HIS302      0.0771
     79  CG        -0.8060  -25.2110    3.3740 C.ar  302  HIS302      0.0820
     80  ND1       -1.7180  -24.4500    4.0720 N.ar  302  HIS302     -0.2267
     81  CD2       -0.0180  -24.3380    2.7040 C.ar  302  HIS302      0.1154
     82  CE1       -1.4910  -23.1700    3.8320 C.ar  302  HIS302      0.1986
     83  NE2       -0.4580  -23.0740    3.0150 N.ar  302  HIS302     -0.2212
     84  N         -0.7120  -27.6690   13.9010 N.3   352  TRP352     -0.1241
     85  CA        -2.0500  -27.0930   13.9170 C.3   352  TRP352      0.1605
     86  C         -2.9660  -27.9290   13.0410 C.2   352  TRP352      0.2264
     87  O         -2.6190  -28.2180   11.8970 O.2   352  TRP352     -0.2867
     88  CB        -1.9720  -25.6570   13.3880 C.3   352  TRP352      0.0550
     89  CG        -3.2100  -25.0690   12.7720 C.ar  352  TRP352      0.0003
     90  CD1       -4.4130  -24.8610   13.3670 C.ar  352  TRP352      0.0946
     91  CD2       -3.3240  -24.5520   11.4420 C.ar  352  TRP352      0.0152
     92  NE1       -5.2840  -24.2470   12.4840 N.ar  352  TRP352     -0.2442
     93  CE2       -4.6330  -24.0550   11.2940 C.ar  352  TRP352      0.0810
     94  CE3       -2.4490  -24.4820   10.3560 C.ar  352  TRP352      0.0012
     95  CZ2       -5.0860  -23.4750   10.0990 C.ar  352  TRP352      0.0191
     96  CZ3       -2.8980  -23.9080    9.1770 C.ar  352  TRP352      0.0001
     97  CH2       -4.2090  -23.4150    9.0600 C.ar  352  TRP352      0.0015
     98  N        -14.0360  -25.5170    4.6700 N.3   358  ASP358     -0.1239
     99  CA       -13.2780  -24.5480    3.8750 C.3   358  ASP358      0.1674
    100  C        -14.1280  -23.4500    3.2340 C.2   358  ASP358      0.2266
    101  O        -13.6000  -22.3810    2.9440 O.2   358  ASP358     -0.2867
    102  CB       -12.4320  -25.2340    2.7990 C.3   358  ASP358      0.1410
    103  CG       -11.2450  -25.9910    3.3720 C.2   358  ASP358      0.3668
    104  OD1      -10.9820  -25.9280    4.5920 O.co2 358  ASP358     -0.2456
    105  OD2      -10.5650  -26.6740    2.5850 O.co2 358  ASP358     -0.2456
@<TRIPOS>BOND
     1    72    71    2
     2    71    73   am
     3    71    70    1
     4    70    67    1
     5    67    66    1
     6    67    68    1
     7    69    68    2
     8    66    59   am
     9    68    74   am
    10    59    60    2
    11    59    58    1
    12    74    75    1
    13    58    57    1
    14    58    61    1
    15    75    76    1
    16    75    78    1
    17    76    77    2
    18   105   103   ar
    19    81    83   ar
    20    81    79   ar
    21   102   103    1
    22   102    99    1
    23   101   100    2
    24    83    82   ar
    25    61    62    1
    26   100    99    1
    27   103   104   ar
    28    79    78    1
    29    79    80   ar
    30    62    63    1
    31    82    80   ar
    32    99    98    1
    33    55    54   ar
    34    48    49    1
    35    53    54    1
    36    53    52    1
    37    54    56   ar
    38    63    64    2
    39    63    65   am
    40    52    49    1
    41    49    50    1
    42    51    50    2
    43    35    36   ar
    44    35    33   ar
    45    46    47   ar
    46    46    44   ar
    47    36    34   ar
    48    33    30   ar
    49    47    45   ar
    50    34    32   ar
    51    30    32   ar
    52    30    28   ar
    53    44    42   ar
    54    97    96   ar
    55    97    95   ar
    56    32    31   ar
    57    96    94   ar
    58    27    28    1
    59    27    24    1
    60    45    43   ar
    61    28    29   ar
    62    26    25    2
    63    14    13   ar
    64    14    12   ar
    65    31    29   ar
    66    23    24    1
    67    95    93   ar
    68    42    43   ar
    69    42    41    1
    70    25    24    1
    71    13    11   ar
    72    94    91   ar
    73    12    10   ar
    74    41    38    1
    75    93    91   ar
    76    93    92   ar
    77    22    20   am
    78    91    89   ar
    79    11     8   ar
    80    10     8   ar
    81    10     9   ar
    82    87    86    2
    83    20    19    1
    84    20    21    2
    85     8     6   ar
    86    19    16    1
    87     9     7   ar
    88    92    90   ar
    89    38    37    1
    90    38    39    1
    91    89    90   ar
    92    89    88    1
    93    86    85    1
    94     6     7   ar
    95     6     5    1
    96    88    85    1
    97    39    40    2
    98    16    17    1
    99    16    15    1
   100    84    85    1
   101     5     2    1
   102    17    18    2
   103     2     3    1
   104     2     1    1
   105     3     4    2
