@<TRIPOS>MOLECULE
tmp/5fmcA05.pdb
 86 83 0 0 0
SMALL
GASTEIGER

@<TRIPOS>ATOM
      1  N         26.7660  -13.2650   56.4390 N.3    17  ASN17      -0.1240
      2  CA        25.3570  -13.5670   56.2010 C.3    17  ASN17       0.1653
      3  C         25.1890  -14.4660   54.9830 C.2    17  ASN17       0.2266
      4  O         25.7910  -14.2070   53.9450 O.2    17  ASN17      -0.2867
      5  CB        24.5800  -12.2870   55.9420 C.3    17  ASN17       0.1155
      6  CG        24.5780  -11.3410   57.1220 C.2    17  ASN17       0.2627
      7  OD1       24.8730  -11.7120   58.2640 O.2    17  ASN17      -0.2716
      8  ND2       24.2410  -10.0970   56.8370 N.am   17  ASN17      -0.0877
      9  N         15.8510  -13.3750   59.5630 N.3    62  ILE62      -0.1245
     10  CA        15.8890  -14.7560   60.0580 C.3    62  ILE62       0.1561
     11  C         15.1510  -14.9530   61.3910 C.2    62  ILE62       0.2260
     12  O         15.2300  -16.0130   62.0020 O.2    62  ILE62      -0.2867
     13  CB        17.3240  -15.3430   60.0550 C.3    62  ILE62       0.0252
     14  CG1       18.3410  -14.4230   60.7350 C.3    62  ILE62       0.0019
     15  CG2       17.7550  -15.5940   58.6210 C.3    62  ILE62       0.0019
     16  CD1       18.0790  -14.1610   62.2080 C.3    62  ILE62       0.0001
     17  N         21.7570  -16.2580   60.8740 N.3   364  LYS364     -0.1245
     18  CA        22.2280  -15.2610   59.9110 C.3   364  LYS364      0.1561
     19  C         23.1520  -15.8670   58.8550 C.2   364  LYS364      0.2260
     20  O         23.0640  -15.5360   57.6630 O.2   364  LYS364     -0.2867
     21  CB        22.9130  -14.0820   60.6200 C.3   364  LYS364      0.0271
     22  CG        21.9450  -13.1900   61.3790 C.3   364  LYS364      0.0035
     23  CD        22.6580  -12.1740   62.2690 C.3   364  LYS364      0.0206
     24  CE        23.4610  -11.1680   61.4560 C.3   364  LYS364      0.1093
     25  NZ        24.1490  -10.1810   62.3330 N.3   364  LYS364     -0.1314
     26  N         20.4760  -11.2290   50.6990 N.3   607  GLY607     -0.1210
     27  CA        21.0490  -10.5490   51.8550 C.3   607  GLY607      0.1956
     28  C         20.0340  -10.3920   52.9740 C.2   607  GLY607      0.2612
     29  O         18.8470  -10.6560   52.8000 O.2   607  GLY607     -0.2717
     30  N         20.5250   -9.9740   54.1280 N.am  608  LEU608     -0.1965
     31  CA        19.7060   -9.7660   55.3090 C.3   608  LEU608      0.1728
     32  C         19.7830   -8.3060   55.7090 C.2   608  LEU608      0.2616
     33  O         20.7840   -7.6390   55.4450 O.2   608  LEU608     -0.2715
     34  CB        20.1990  -10.6420   56.4490 C.3   608  LEU608      0.0311
     35  CG        20.1660  -12.1480   56.2010 C.3   608  LEU608      0.0022
     36  CD1       20.7910  -12.8600   57.3840 C.3   608  LEU608      0.0001
     37  CD2       18.7410  -12.6340   55.9640 C.3   608  LEU608      0.0001
     38  N         18.7270   -7.8180   56.3510 N.am  609  VAL609     -0.1963
     39  CA        18.6550   -6.4230   56.7640 C.3   609  VAL609      0.1727
     40  C         18.2330   -6.3270   58.2130 C.2   609  VAL609      0.2616
     41  O         17.6530   -7.2660   58.7680 O.2   609  VAL609     -0.2715
     42  CB        17.7020   -5.5900   55.8750 C.3   609  VAL609      0.0290
     43  CG1       18.1710   -5.5950   54.4250 C.3   609  VAL609      0.0023
     44  CG2       16.2570   -6.0820   55.9790 C.3   609  VAL609      0.0023
     45  N         18.5500   -5.1810   58.8170 N.am  610  TRP610     -0.1974
     46  CA        18.1510   -4.8470   60.1690 C.3   610  TRP610      0.1640
     47  C         17.1050   -3.7340   60.1190 C.2   610  TRP610      0.2290
     48  O         17.2540   -2.7740   59.3680 O.2   610  TRP610     -0.2864
     49  CB        19.3670   -4.3790   60.9640 C.3   610  TRP610      0.0576
     50  CG        19.0930   -4.0670   62.3910 C.ar  610  TRP610      0.0006
     51  CD1       18.3120   -4.7800   63.2550 C.ar  610  TRP610      0.0946
     52  CD2       19.6050   -2.9620   63.1360 C.ar  610  TRP610      0.0152
     53  NE1       18.2950   -4.1810   64.4910 N.ar  610  TRP610     -0.2442
     54  CE2       19.0920   -3.0690   64.4490 C.ar  610  TRP610      0.0810
     55  CE3       20.4680   -1.9010   62.8310 C.ar  610  TRP610      0.0012
     56  CZ2       19.3950   -2.1410   65.4510 C.ar  610  TRP610      0.0191
     57  CZ3       20.7760   -0.9810   63.8310 C.ar  610  TRP610      0.0001
     58  CH2       20.2390   -1.1040   65.1180 C.ar  610  TRP610      0.0015
     59  N         16.5800   -1.5950   62.3850 N.3   612  GLY612     -0.1210
     60  CA        17.1300   -0.4220   63.0260 C.3   612  GLY612      0.1940
     61  C         16.6060   -0.2660   64.4380 C.2   612  GLY612      0.2453
     62  O         15.9020   -1.1510   64.9500 O.2   612  GLY612     -0.2732
     63  N         16.9690    0.8460   65.0990 N.am  613  PRO613     -0.2728
     64  CA        16.6140    1.0590   66.5000 C.3   613  PRO613      0.1401
     65  C         15.1110    1.1270   66.7870 C.2   613  PRO613      0.2269
     66  O         14.7100    0.8680   67.9280 O.2   613  PRO613     -0.2865
     67  CB        17.2910    2.4060   66.8310 C.3   613  PRO613      0.0296
     68  CG        18.4500    2.4610   65.8980 C.3   613  PRO613      0.0237
     69  CD        17.9230    1.8720   64.6230 C.3   613  PRO613      0.0939
     70  N         11.5180   -8.7320   66.4140 N.3   622  ALA622     -0.1245
     71  CA        12.9200   -8.7340   66.8270 C.3   622  ALA622      0.1562
     72  C         13.7410   -7.7010   66.0410 C.2   622  ALA622      0.2260
     73  O         14.5740   -7.0110   66.6180 O.2   622  ALA622     -0.2867
     74  CB        13.5320  -10.1130   66.6850 C.3   622  ALA622      0.0290
     75  N         15.4220   -8.4290   63.0000 N.3   624  TYR624     -0.1241
     76  CA        16.4330   -9.0590   62.1440 C.3   624  TYR624      0.1605
     77  C         15.9680  -10.4530   61.7690 C.2   624  TYR624      0.2264
     78  O         14.8570  -10.8560   62.1230 O.2   624  TYR624     -0.2867
     79  CB        17.7920   -9.1210   62.8680 C.3   624  TYR624      0.0534
     80  CG        17.6860   -9.6750   64.2540 C.ar  624  TYR624     -0.0201
     81  CD1       17.3980   -8.8430   65.3320 C.ar  624  TYR624     -0.0009
     82  CD2       17.8450  -11.0340   64.4980 C.ar  624  TYR624     -0.0009
     83  CE1       17.2810   -9.3480   66.6160 C.ar  624  TYR624      0.0417
     84  CE2       17.7190  -11.5480   65.7760 C.ar  624  TYR624      0.0417
     85  CZ        17.4330  -10.7050   66.8240 C.ar  624  TYR624      0.1957
     86  OH        17.3120  -11.2110   68.0910 O.3   624  TYR624     -0.2866
@<TRIPOS>BOND
     1    26    27    1
     2    27    28    1
     3    29    28    2
     4    28    30   am
     5     4     3    2
     6    30    31    1
     7    43    42    1
     8     3     2    1
     9    31    32    1
    10    31    34    1
    11    33    32    2
    12    32    38   am
    13    42    44    1
    14    42    39    1
    15     5     2    1
    16     5     6    1
    17    37    35    1
    18    35    34    1
    19    35    36    1
    20     2     1    1
    21    38    39    1
    22    39    40    1
    23     8     6   am
    24     6     7    2
    25    20    19    2
    26    40    41    2
    27    40    45   am
    28    15    13    1
    29    45    46    1
    30    19    18    1
    31    48    47    2
    32     9    10    1
    33    18    21    1
    34    18    17    1
    35    13    10    1
    36    13    14    1
    37    10    11    1
    38    47    46    1
    39    46    49    1
    40    21    22    1
    41    14    16    1
    42    49    50    1
    43    22    23    1
    44    11    12    2
    45    24    23    1
    46    24    25    1
    47    77    78    2
    48    77    76    1
    49    76    79    1
    50    76    75    1
    51    59    60    1
    52    50    52   ar
    53    50    51   ar
    54    55    52   ar
    55    55    57   ar
    56    79    80    1
    57    60    61    1
    58    52    54   ar
    59    51    53   ar
    60    57    58   ar
    61    80    82   ar
    62    80    81   ar
    63    61    62    2
    64    61    63   am
    65    54    53   ar
    66    54    56   ar
    67    82    84   ar
    68    69    63    1
    69    69    68    1
    70    63    64    1
    71    58    56   ar
    72    81    83   ar
    73    84    85   ar
    74    68    67    1
    75    72    73    2
    76    72    71    1
    77    70    71    1
    78    64    65    1
    79    64    67    1
    80    83    85   ar
    81    74    71    1
    82    65    66    2
    83    85    86    1
