@<TRIPOS>MOLECULE
tmp/5fmcA04.pdb
 146 142 0 0 0
SMALL
GASTEIGER

@<TRIPOS>ATOM
      1  N         12.9650  -15.8810   56.6260 N.3    36  TRP36      -0.1241
      2  CA        12.1470  -16.5560   57.6170 C.3    36  TRP36       0.1605
      3  C         10.8530  -17.0610   57.0100 C.2    36  TRP36       0.2264
      4  O         10.1720  -16.3170   56.2960 O.2    36  TRP36      -0.2867
      5  CB        11.8050  -15.5960   58.7730 C.3    36  TRP36       0.0550
      6  CG        10.7900  -16.1790   59.6900 C.ar   36  TRP36       0.0003
      7  CD1        9.4320  -16.0850   59.5710 C.ar   36  TRP36       0.0946
      8  CD2       11.0390  -17.0140   60.8190 C.ar   36  TRP36       0.0152
      9  NE1        8.8220  -16.8010   60.5610 N.ar   36  TRP36      -0.2442
     10  CE2        9.7850  -17.3730   61.3540 C.ar   36  TRP36       0.0810
     11  CE3       12.2040  -17.4780   61.4510 C.ar   36  TRP36       0.0012
     12  CZ2        9.6570  -18.1850   62.4830 C.ar   36  TRP36       0.0191
     13  CZ3       12.0770  -18.2910   62.5750 C.ar   36  TRP36       0.0001
     14  CH2       10.8130  -18.6410   63.0770 C.ar   36  TRP36       0.0015
     15  N          7.3060  -19.5760   58.4470 N.3    38  ASN38      -0.1240
     16  CA         6.6690  -20.5060   59.3720 C.3    38  ASN38       0.1653
     17  C          5.4180  -21.1710   58.7640 C.2    38  ASN38       0.2266
     18  O          5.5500  -21.8650   57.7490 O.2    38  ASN38      -0.2867
     19  CB         6.5420  -19.9410   60.8200 C.3    38  ASN38       0.1155
     20  CG         5.7640  -18.6390   60.9350 C.2    38  ASN38       0.2627
     21  OD1        6.1690  -17.5980   60.4370 O.2    38  ASN38      -0.2716
     22  ND2        4.6540  -18.6860   61.6760 N.am   38  ASN38      -0.0877
     23  N         10.9910  -13.9580   62.9270 N.3    64  TRP64      -0.1241
     24  CA         9.6220  -13.5630   62.6020 C.3    64  TRP64       0.1605
     25  C          9.4050  -12.0540   62.6930 C.2    64  TRP64       0.2264
     26  O          9.9900  -11.3670   63.5310 O.2    64  TRP64      -0.2867
     27  CB         8.7000  -14.3070   63.5710 C.3    64  TRP64       0.0550
     28  CG         7.2220  -14.1570   63.4490 C.ar   64  TRP64       0.0003
     29  CD1        6.3620  -15.0140   62.8300 C.ar   64  TRP64       0.0946
     30  CD2        6.4130  -13.1590   64.0750 C.ar   64  TRP64       0.0152
     31  NE1        5.0680  -14.5880   62.9950 N.ar   64  TRP64      -0.2442
     32  CE2        5.0680  -13.4580   63.7660 C.ar   64  TRP64       0.0810
     33  CE3        6.6950  -12.0330   64.8650 C.ar   64  TRP64       0.0012
     34  CZ2        4.0090  -12.6760   64.2110 C.ar   64  TRP64       0.0191
     35  CZ3        5.6360  -11.2520   65.3090 C.ar   64  TRP64       0.0001
     36  CH2        4.3070  -11.5790   64.9780 C.ar   64  TRP64       0.0015
     37  N         -1.5570  -12.8290   59.6960 N.3   104  PHE104     -0.1241
     38  CA        -1.3950  -14.1430   60.3030 C.3   104  PHE104      0.1605
     39  C         -2.0780  -15.2010   59.4130 C.2   104  PHE104      0.2264
     40  O         -2.5040  -14.9080   58.2840 O.2   104  PHE104     -0.2867
     41  CB        -1.9770  -14.1510   61.7310 C.3   104  PHE104      0.0534
     42  CG        -1.0710  -13.5930   62.8020 C.ar  104  PHE104     -0.0203
     43  CD1       -0.1510  -12.5750   62.5430 C.ar  104  PHE104     -0.0042
     44  CD2       -1.2060  -14.0410   64.1110 C.ar  104  PHE104     -0.0042
     45  CE1        0.6260  -12.0470   63.5600 C.ar  104  PHE104     -0.0003
     46  CE2       -0.4240  -13.5240   65.1320 C.ar  104  PHE104     -0.0003
     47  CZ         0.4910  -12.5180   64.8560 C.ar  104  PHE104     -0.0000
     48  N          0.0720   -9.4700   72.5550 N.3   129  LEU129     -0.1231
     49  CA        -0.5050  -10.5580   71.7740 C.3   129  LEU129      0.1693
     50  C          0.1760  -11.8470   72.2150 C.2   129  LEU129      0.2593
     51  O          1.3770  -12.0240   71.9990 O.2   129  LEU129     -0.2718
     52  CB        -0.2930  -10.3060   70.2790 C.3   129  LEU129      0.0284
     53  CG        -1.1610  -11.0970   69.2790 C.3   129  LEU129      0.0019
     54  CD1       -1.0030  -10.5120   67.8820 C.3   129  LEU129      0.0001
     55  CD2       -0.8350  -12.5800   69.2770 C.3   129  LEU129      0.0001
     56  N         -0.5820  -12.7390   72.8450 N.am  130  GLY130     -0.1942
     57  CA        -0.0480  -14.0310   73.2420 C.3   130  GLY130      0.2014
     58  C         -0.8160  -14.6520   74.3780 C.2   130  GLY130      0.2638
     59  O         -1.4070  -13.9470   75.1950 O.2   130  GLY130     -0.2714
     60  N         -0.7530  -15.9790   74.4370 N.am  131  ALA131     -0.1977
     61  CA        -1.4790  -16.7710   75.4220 C.3   131  ALA131      0.1597
     62  C         -1.0000  -16.5640   76.8620 C.2   131  ALA131      0.2287
     63  O         -1.7680  -16.7960   77.7920 O.2   131  ALA131     -0.2864
     64  CB        -1.3940  -18.2420   75.0500 C.3   131  ALA131      0.0319
     65  N          0.2180  -13.5100   77.8330 N.3   133  LEU133     -0.1245
     66  CA         0.1480  -12.0700   78.0340 C.3   133  LEU133      0.1561
     67  C         -1.2970  -11.6650   78.2720 C.2   133  LEU133      0.2260
     68  O         -2.1930  -12.5050   78.2730 O.2   133  LEU133     -0.2867
     69  CB         0.7220  -11.3420   76.8160 C.3   133  LEU133      0.0270
     70  CG         2.1850  -11.6460   76.4820 C.3   133  LEU133      0.0019
     71  CD1        2.6060  -10.9050   75.2230 C.3   133  LEU133      0.0001
     72  CD2        3.1020  -11.2890   77.6520 C.3   133  LEU133      0.0001
     73  N         -7.4200  -16.5210   66.7010 N.3   179  ARG179     -0.1245
     74  CA        -6.7900  -16.5070   65.3850 C.3   179  ARG179      0.1563
     75  C         -6.9270  -17.7920   64.5950 C.2   179  ARG179      0.2260
     76  O         -7.4370  -18.8070   65.1000 O.2   179  ARG179     -0.2867
     77  CB        -5.2960  -16.1420   65.5290 C.3   179  ARG179      0.0307
     78  CG        -4.4660  -17.0440   66.4300 C.3   179  ARG179      0.0489
     79  CD        -2.9650  -16.7440   66.3020 C.3   179  ARG179      0.2205
     80  NE        -2.1900  -17.3730   67.3690 N.pl3 179  ARG179     -0.0865
     81  CZ        -2.1180  -16.9430   68.6350 C.cat 179  ARG179      0.5346
     82  NH1       -2.7670  -15.8520   69.0280 N.pl3 179  ARG179      0.1354
     83  NH2       -1.4010  -17.6200   69.5250 N.pl3 179  ARG179      0.1354
     84  N         -3.7420  -23.2980   68.3270 N.3   262  GLU262     -0.1245
     85  CA        -3.3680  -22.5770   67.1220 C.3   262  GLU262      0.1567
     86  C         -3.6020  -23.4660   65.9090 C.2   262  GLU262      0.2260
     87  O         -3.5520  -24.6980   66.0090 O.2   262  GLU262     -0.2867
     88  CB        -1.8920  -22.1510   67.1840 C.3   262  GLU262      0.0388
     89  CG        -1.5570  -21.2160   68.3440 C.3   262  GLU262      0.1160
     90  CD        -0.1020  -20.7890   68.3410 C.2   262  GLU262      0.3649
     91  OE1        0.7690  -21.6730   68.4980 O.co2 262  GLU262     -0.2457
     92  OE2        0.1660  -19.5670   68.1970 O.co2 262  GLU262     -0.2457
     93  N         -0.1600  -24.9030   72.6660 N.3   293  GLU293     -0.1245
     94  CA         1.0170  -24.2920   73.2410 C.3   293  GLU293      0.1567
     95  C          1.0280  -24.3070   74.7670 C.2   293  GLU293      0.2260
     96  O         -0.0170  -24.3550   75.4190 O.2   293  GLU293     -0.2867
     97  CB         1.2530  -22.8790   72.7050 C.3   293  GLU293      0.0388
     98  CG         0.0840  -21.9410   72.7180 C.3   293  GLU293      0.1160
     99  CD         0.4460  -20.5600   72.1550 C.2   293  GLU293      0.3649
    100  OE1        1.6510  -20.2130   72.0940 O.co2 293  GLU293     -0.2457
    101  OE2       -0.4810  -19.8210   71.7840 O.co2 293  GLU293     -0.2457
    102  N          9.7140  -26.0430   71.3760 N.3   300  GLN300     -0.1245
    103  CA         9.1520  -24.6990   71.3750 C.3   300  GLN300      0.1566
    104  C          7.7780  -24.6340   72.0570 C.2   300  GLN300      0.2260
    105  O          6.9330  -23.8190   71.6980 O.2   300  GLN300     -0.2867
    106  CB         9.1520  -24.1380   69.9370 C.3   300  GLN300      0.0367
    107  CG        10.5570  -24.1810   69.3240 C.3   300  GLN300      0.0905
    108  CD        10.7480  -23.3890   68.0280 C.2   300  GLN300      0.2608
    109  OE1       11.8910  -23.1750   67.5810 O.2   300  GLN300     -0.2717
    110  NE2        9.6550  -22.9770   67.4110 N.am  300  GLN300     -0.0878
    111  N          5.0190  -26.6140   71.8990 N.3   302  HIS302     -0.1241
    112  CA         4.1610  -26.9630   70.7630 C.3   302  HIS302      0.1621
    113  C          4.1450  -28.4510   70.4390 C.2   302  HIS302      0.2264
    114  O          5.2020  -29.0410   70.2280 O.2   302  HIS302     -0.2867
    115  CB         4.6460  -26.2400   69.5120 C.3   302  HIS302      0.0745
    116  CG         4.5740  -24.7510   69.5870 C.ar  302  HIS302      0.0817
    117  ND1        5.2280  -23.9130   68.7060 N.ar  302  HIS302     -0.2268
    118  CD2        3.9530  -23.9460   70.4790 C.ar  302  HIS302      0.1154
    119  CE1        4.9940  -22.6550   69.0410 C.ar  302  HIS302      0.1986
    120  NE2        4.2220  -22.6490   70.1130 N.ar  302  HIS302     -0.2212
    121  N          5.0410  -28.2010   63.3560 N.3   335  TYR335     -0.1241
    122  CA         3.9000  -27.5240   63.9490 C.3   335  TYR335      0.1605
    123  C          3.1060  -26.8380   62.8410 C.2   335  TYR335      0.2264
    124  O          3.5590  -26.7880   61.6940 O.2   335  TYR335     -0.2867
    125  CB         4.3910  -26.4790   64.9460 C.3   335  TYR335      0.0534
    126  CG         3.3490  -25.9190   65.8910 C.ar  335  TYR335     -0.0201
    127  CD1        2.6330  -26.7480   66.7490 C.ar  335  TYR335     -0.0009
    128  CD2        3.1050  -24.5450   65.9510 C.ar  335  TYR335     -0.0009
    129  CE1        1.7040  -26.2280   67.6450 C.ar  335  TYR335      0.0417
    130  CE2        2.1740  -24.0230   66.8270 C.ar  335  TYR335      0.0417
    131  CZ         1.4730  -24.8660   67.6740 C.ar  335  TYR335      0.1957
    132  OH         0.5650  -24.3490   68.5590 O.3   335  TYR335     -0.2866
    133  N          4.8630  -27.1300   59.1040 N.3   352  TRP352     -0.1241
    134  CA         6.1010  -26.3580   59.1160 C.3   352  TRP352      0.1605
    135  C          7.1180  -27.0780   59.9780 C.2   352  TRP352      0.2264
    136  O          6.8220  -27.4020   61.1250 O.2   352  TRP352     -0.2867
    137  CB         5.8170  -24.9740   59.6740 C.3   352  TRP352      0.0550
    138  CG         6.9580  -24.1950   60.2630 C.ar  352  TRP352      0.0003
    139  CD1        8.1170  -23.8290   59.6460 C.ar  352  TRP352      0.0946
    140  CD2        6.9940  -23.6170   61.5620 C.ar  352  TRP352      0.0152
    141  NE1        8.8920  -23.0780   60.4950 N.ar  352  TRP352     -0.2442
    142  CE2        8.2210  -22.9210   61.6780 C.ar  352  TRP352      0.0810
    143  CE3        6.1060  -23.6120   62.6450 C.ar  352  TRP352      0.0012
    144  CZ2        8.5840  -22.2390   62.8320 C.ar  352  TRP352      0.0191
    145  CZ3        6.4690  -22.9300   63.8060 C.ar  352  TRP352      0.0001
    146  CH2        7.7010  -22.2570   63.8910 C.ar  352  TRP352      0.0015
@<TRIPOS>BOND
     1     4     3    2
     2     1     2    1
     3     3     2    1
     4     2     5    1
     5    18    17    2
     6    40    39    2
     7    15    16    1
     8    17    16    1
     9     5     6    1
    10   133   134    1
    11   134   137    1
    12   134   135    1
    13    16    19    1
    14    39    38    1
    15     7     6   ar
    16     7     9   ar
    17   139   138   ar
    18   139   141   ar
    19   137   138    1
    20     6     8   ar
    21    37    38    1
    22   135   136    2
    23   138   140   ar
    24    38    41    1
    25    21    20    2
    26   141   142   ar
    27     9    10   ar
    28     8    10   ar
    29     8    11   ar
    30    19    20    1
    31    20    22   am
    32    10    12   ar
    33    11    13   ar
    34   140   142   ar
    35   140   143   ar
    36   142   144   ar
    37   124   123    2
    38    41    42    1
    39    12    14   ar
    40    43    42   ar
    41    43    45   ar
    42    13    14   ar
    43    24    25    1
    44    24    23    1
    45    24    27    1
    46   143   145   ar
    47    25    26    2
    48    42    44   ar
    49    29    31   ar
    50    29    28   ar
    51   144   146   ar
    52   123   122    1
    53    31    32   ar
    54   121   122    1
    55    28    27    1
    56    28    30   ar
    57    45    47   ar
    58    32    30   ar
    59    32    34   ar
    60   145   146   ar
    61   122   125    1
    62    30    33   ar
    63    44    46   ar
    64    34    36   ar
    65    75    76    2
    66    75    74    1
    67    47    46   ar
    68    33    35   ar
    69   125   126    1
    70    36    35   ar
    71    74    77    1
    72    74    73    1
    73    77    78    1
    74   126   128   ar
    75   126   127   ar
    76    86    87    2
    77    86    85    1
    78   128   130   ar
    79    79    78    1
    80    79    80    1
    81   127   129   ar
    82   130   131   ar
    83    85    88    1
    84    85    84    1
    85    88    89    1
    86    80    81    2
    87   110   108   am
    88   109   108    2
    89   129   131   ar
    90   131   132    1
    91    54    53    1
    92   108   107    1
    93    92    90   ar
    94    90    89    1
    95    90    91   ar
    96    81    82    1
    97    81    83    1
    98   117   119   ar
    99   117   116   ar
   100   119   120   ar
   101    55    53    1
   102    53    52    1
   103   107   106    1
   104   115   116    1
   105   115   112    1
   106   116   118   ar
   107   106   103    1
   108   120   118   ar
   109   114   113    2
   110    52    49    1
   111   113   112    1
   112   112   111    1
   113   103   102    1
   114   103   104    1
   115   105   104    2
   116    49    50    1
   117    49    48    1
   118   101    99   ar
   119    51    50    2
   120   100    99   ar
   121    99    98    1
   122    50    56   am
   123    93    94    1
   124    97    98    1
   125    97    94    1
   126    56    57    1
   127    94    95    1
   128    57    58    1
   129    58    60   am
   130    58    59    2
   131    60    61    1
   132    95    96    2
   133    64    61    1
   134    71    70    1
   135    61    62    1
   136    70    69    1
   137    70    72    1
   138    69    66    1
   139    62    63    2
   140    65    66    1
   141    66    67    1
   142    67    68    2
