@<TRIPOS>MOLECULE
tmp/5fmcA02.pdb
 73 69 0 0 0
SMALL
GASTEIGER

@<TRIPOS>ATOM
      1  N         35.0260  -22.5930   55.0240 N.3     3  LEU3       -0.1245
      2  CA        33.9400  -23.4830   54.6170 C.3     3  LEU3        0.1561
      3  C         34.4690  -24.8540   54.1870 C.2     3  LEU3        0.2260
      4  O         33.8510  -25.5400   53.3700 O.2     3  LEU3       -0.2867
      5  CB        33.1350  -22.8330   53.4890 C.3     3  LEU3        0.0270
      6  CG        32.6080  -21.4250   53.7980 C.3     3  LEU3        0.0019
      7  CD1       31.8110  -20.9100   52.6140 C.3     3  LEU3        0.0001
      8  CD2       31.7720  -21.4030   55.0660 C.3     3  LEU3        0.0001
      9  N         26.7660  -13.2650   56.4390 N.3    17  ASN17      -0.1225
     10  CA        25.3570  -13.5670   56.2010 C.3    17  ASN17       0.1785
     11  C         25.1890  -14.4660   54.9830 C.2    17  ASN17       0.2597
     12  O         25.7910  -14.2070   53.9450 O.2    17  ASN17      -0.2718
     13  CB        24.5800  -12.2870   55.9420 C.3    17  ASN17       0.1169
     14  CG        24.5780  -11.3410   57.1220 C.2    17  ASN17       0.2627
     15  OD1       24.8730  -11.7120   58.2640 O.2    17  ASN17      -0.2716
     16  ND2       24.2410  -10.0970   56.8370 N.am   17  ASN17      -0.0877
     17  N         24.3910  -15.5250   55.1160 N.am   18  ALA18      -0.1966
     18  CA        24.0830  -16.4430   54.0100 C.3    18  ALA18       0.1728
     19  C         25.3080  -17.1800   53.4160 C.2    18  ALA18       0.2616
     20  O         25.2270  -17.7160   52.3120 O.2    18  ALA18      -0.2715
     21  CB        23.3160  -15.7170   52.9160 C.3    18  ALA18       0.0334
     22  N         26.4310  -17.2080   54.1390 N.am   19  THR19      -0.1951
     23  CA        27.6060  -17.9620   53.6850 C.3    19  THR19       0.1897
     24  C         27.3770  -19.4640   53.8230 C.2    19  THR19       0.2313
     25  O         28.0170  -20.2410   53.1250 O.2    19  THR19      -0.2863
     26  CB        28.8790  -17.5570   54.4590 C.3    19  THR19       0.1794
     27  OG1       28.6260  -17.6240   55.8660 O.3    19  THR19      -0.2208
     28  CG2       29.2810  -16.1590   54.0940 C.3    19  THR19       0.0378
     29  N         24.3870  -20.8120   53.1260 N.3    21  PHE21      -0.1227
     30  CA        23.0440  -20.9010   52.5170 C.3    21  PHE21       0.1736
     31  C         22.7420  -22.2880   51.9660 C.2    21  PHE21       0.2596
     32  O         21.6980  -22.8560   52.2800 O.2    21  PHE21      -0.2718
     33  CB        22.8580  -19.8480   51.4360 C.3    21  PHE21       0.0547
     34  CG        21.4350  -19.7150   50.9540 C.ar   21  PHE21      -0.0202
     35  CD1       20.5520  -18.8440   51.5830 C.ar   21  PHE21      -0.0042
     36  CD2       20.9820  -20.4580   49.8720 C.ar   21  PHE21      -0.0042
     37  CE1       19.2410  -18.7190   51.1380 C.ar   21  PHE21      -0.0003
     38  CE2       19.6750  -20.3330   49.4280 C.ar   21  PHE21      -0.0003
     39  CZ        18.8070  -19.4680   50.0610 C.ar   21  PHE21      -0.0000
     40  N         23.6630  -22.8550   51.1890 N.am   22  THR22      -0.1953
     41  CA        23.4340  -24.1640   50.5770 C.3    22  THR22       0.1897
     42  C         23.8530  -25.3600   51.4340 C.2    22  THR22       0.2313
     43  O         23.4450  -26.4830   51.1460 O.2    22  THR22      -0.2863
     44  CB        24.1270  -24.2760   49.2090 C.3    22  THR22       0.1794
     45  OG1       25.5370  -24.2040   49.3880 O.3    22  THR22      -0.2208
     46  CG2       23.6850  -23.1480   48.2870 C.3    22  THR22       0.0378
     47  N         21.6700  -20.3980   45.1160 N.3   603  ASN603     -0.1240
     48  CA        21.6750  -19.3660   46.1370 C.3   603  ASN603      0.1653
     49  C         20.6560  -18.2860   45.7980 C.2   603  ASN603      0.2266
     50  O         20.9100  -17.4320   44.9560 O.2   603  ASN603     -0.2867
     51  CB        23.0820  -18.7490   46.2880 C.3   603  ASN603      0.1155
     52  CG        23.1670  -17.7610   47.4460 C.2   603  ASN603      0.2627
     53  OD1       22.1970  -17.5730   48.1920 O.2   603  ASN603     -0.2716
     54  ND2       24.3350  -17.1280   47.6080 N.am  603  ASN603     -0.0877
     55  N         19.5140  -16.2200   48.2210 N.3   605  SER605     -0.1202
     56  CA        19.6400  -15.1450   49.1940 C.3   605  SER605      0.2020
     57  C         19.5940  -13.7820   48.5030 C.2   605  SER605      0.2619
     58  O         20.1130  -13.6220   47.4050 O.2   605  SER605     -0.2717
     59  CB        20.9540  -15.2450   49.9790 C.3   605  SER605      0.2103
     60  OG        21.0620  -14.1600   50.8860 O.3   605  SER605     -0.2182
     61  N         18.9580  -12.8190   49.1550 N.am  606  GLN606     -0.1965
     62  CA        19.0310  -11.4200   48.7500 C.3   606  GLN606      0.1733
     63  C         19.6970  -10.5870   49.8340 C.2   606  GLN606      0.2616
     64  O         19.5210   -9.3760   49.8820 O.2   606  GLN606     -0.2715
     65  CB        17.6240  -10.8960   48.4450 C.3   606  GLN606      0.0408
     66  CG        17.0340  -11.4930   47.1810 C.3   606  GLN606      0.0908
     67  CD        15.6250  -11.0050   46.9210 C.2   606  GLN606      0.2608
     68  OE1       15.2980   -9.8390   47.1710 O.2   606  GLN606     -0.2717
     69  NE2       14.7750  -11.8960   46.4210 N.am  606  GLN606     -0.0878
     70  N         20.4760  -11.2290   50.6990 N.am  607  GLY607     -0.1955
     71  CA        21.0490  -10.5490   51.8550 C.3   607  GLY607      0.1869
     72  C         20.0340  -10.3920   52.9740 C.2   607  GLY607      0.2309
     73  O         18.8470  -10.6560   52.8000 O.2   607  GLY607     -0.2863
@<TRIPOS>BOND
     1    50    49    2
     2    47    48    1
     3    49    48    1
     4    48    51    1
     5    51    52    1
     6    69    67   am
     7    67    68    2
     8    67    66    1
     9    66    65    1
    10    58    57    2
    11    52    54   am
    12    52    53    2
    13    55    56    1
    14    46    44    1
    15    65    62    1
    16    57    61   am
    17    57    56    1
    18    62    61    1
    19    62    63    1
    20    56    59    1
    21    44    45    1
    22    44    41    1
    23    38    36   ar
    24    38    39   ar
    25    63    64    2
    26    63    70   am
    27    36    34   ar
    28    59    60    1
    29    39    37   ar
    30    41    40    1
    31    41    42    1
    32    70    71    1
    33    34    33    1
    34    34    35   ar
    35    37    35   ar
    36    43    42    2
    37    40    31   am
    38    33    30    1
    39    71    72    1
    40    31    32    2
    41    31    30    1
    42    20    19    2
    43    30    29    1
    44     7     6    1
    45    73    72    2
    46    21    18    1
    47    25    24    2
    48     4     3    2
    49    19    18    1
    50    19    22   am
    51     5     6    1
    52     5     2    1
    53    23    24    1
    54    23    22    1
    55    23    26    1
    56     6     8    1
    57    12    11    2
    58    18    17    1
    59    28    26    1
    60     3     2    1
    61    26    27    1
    62     2     1    1
    63    11    17   am
    64    11    10    1
    65    13    10    1
    66    13    14    1
    67    10     9    1
    68    16    14   am
    69    14    15    2
