@<TRIPOS>MOLECULE
tmp/5fmcA03.pdb
 131 129 0 0 0
SMALL
GASTEIGER

@<TRIPOS>ATOM
      1  N          7.3060  -19.5760   58.4470 N.3    38  ASN38      -0.1225
      2  CA         6.6690  -20.5060   59.3720 C.3    38  ASN38       0.1785
      3  C          5.4180  -21.1710   58.7640 C.2    38  ASN38       0.2597
      4  O          5.5500  -21.8650   57.7490 O.2    38  ASN38      -0.2718
      5  CB         6.5420  -19.9410   60.8200 C.3    38  ASN38       0.1169
      6  CG         5.7640  -18.6390   60.9350 C.2    38  ASN38       0.2627
      7  OD1        6.1690  -17.5980   60.4370 O.2    38  ASN38      -0.2716
      8  ND2        4.6540  -18.6860   61.6760 N.am   38  ASN38      -0.0877
      9  N          4.2330  -20.9730   59.3460 N.am   39  ALA39      -0.1979
     10  CA         3.0460  -21.7870   59.0620 C.3    39  ALA39       0.1597
     11  C          2.6060  -21.7420   57.6070 C.2    39  ALA39       0.2287
     12  O          2.5830  -20.6610   57.0090 O.2    39  ALA39      -0.2864
     13  CB         1.8890  -21.3130   59.9290 C.3    39  ALA39       0.0319
     14  N          3.5010  -18.1530   55.9860 N.3    56  GLN56      -0.1245
     15  CA         3.9480  -17.0380   56.8080 C.3    56  GLN56       0.1566
     16  C          5.4190  -16.7580   56.4620 C.2    56  GLN56       0.2260
     17  O          6.2420  -17.6700   56.5010 O.2    56  GLN56      -0.2867
     18  CB         3.8010  -17.3730   58.2870 C.3    56  GLN56       0.0367
     19  CG         2.3590  -17.5340   58.7480 C.3    56  GLN56       0.0905
     20  CD         1.6720  -16.2090   58.9710 C.2    56  GLN56       0.2608
     21  OE1        1.7750  -15.6430   60.0460 O.2    56  GLN56      -0.2717
     22  NE2        0.9620  -15.7100   57.9620 N.am   56  GLN56      -0.0878
     23  N         10.9910  -13.9580   62.9270 N.3    64  TRP64      -0.1241
     24  CA         9.6220  -13.5630   62.6020 C.3    64  TRP64       0.1605
     25  C          9.4050  -12.0540   62.6930 C.2    64  TRP64       0.2264
     26  O          9.9900  -11.3670   63.5310 O.2    64  TRP64      -0.2867
     27  CB         8.7000  -14.3070   63.5710 C.3    64  TRP64       0.0550
     28  CG         7.2220  -14.1570   63.4490 C.ar   64  TRP64       0.0003
     29  CD1        6.3620  -15.0140   62.8300 C.ar   64  TRP64       0.0946
     30  CD2        6.4130  -13.1590   64.0750 C.ar   64  TRP64       0.0152
     31  NE1        5.0680  -14.5880   62.9950 N.ar   64  TRP64      -0.2442
     32  CE2        5.0680  -13.4580   63.7660 C.ar   64  TRP64       0.0810
     33  CE3        6.6950  -12.0330   64.8650 C.ar   64  TRP64       0.0012
     34  CZ2        4.0090  -12.6760   64.2110 C.ar   64  TRP64       0.0191
     35  CZ3        5.6360  -11.2520   65.3090 C.ar   64  TRP64       0.0001
     36  CH2        4.3070  -11.5790   64.9780 C.ar   64  TRP64       0.0015
     37  N         -1.5570  -12.8290   59.6960 N.3   104  PHE104     -0.1227
     38  CA        -1.3950  -14.1430   60.3030 C.3   104  PHE104      0.1736
     39  C         -2.0780  -15.2010   59.4130 C.2   104  PHE104      0.2595
     40  O         -2.5040  -14.9080   58.2840 O.2   104  PHE104     -0.2718
     41  CB        -1.9770  -14.1510   61.7310 C.3   104  PHE104      0.0547
     42  CG        -1.0710  -13.5930   62.8020 C.ar  104  PHE104     -0.0202
     43  CD1       -0.1510  -12.5750   62.5430 C.ar  104  PHE104     -0.0042
     44  CD2       -1.2060  -14.0410   64.1110 C.ar  104  PHE104     -0.0042
     45  CE1        0.6260  -12.0470   63.5600 C.ar  104  PHE104     -0.0003
     46  CE2       -0.4240  -13.5240   65.1320 C.ar  104  PHE104     -0.0003
     47  CZ         0.4910  -12.5180   64.8560 C.ar  104  PHE104     -0.0000
     48  N         -2.1430  -16.4380   59.9030 N.am  105  ASP105     -0.1974
     49  CA        -2.7170  -17.5550   59.1620 C.3   105  ASP105      0.1709
     50  C         -4.1430  -17.2480   58.6690 C.2   105  ASP105      0.2293
     51  O         -4.8970  -16.4950   59.2980 O.2   105  ASP105     -0.2864
     52  CB        -2.7080  -18.7890   60.0750 C.3   105  ASP105      0.1436
     53  CG        -3.0670  -20.0950   59.3740 C.2   105  ASP105      0.3671
     54  OD1       -3.0140  -20.2230   58.1320 O.co2 105  ASP105     -0.2456
     55  OD2       -3.4040  -21.0360   60.1380 O.co2 105  ASP105     -0.2456
     56  N         -7.4200  -16.5210   66.7010 N.3   179  ARG179     -0.1231
     57  CA        -6.7900  -16.5070   65.3850 C.3   179  ARG179      0.1694
     58  C         -6.9270  -17.7920   64.5950 C.2   179  ARG179      0.2592
     59  O         -7.4370  -18.8070   65.1000 O.2   179  ARG179     -0.2718
     60  CB        -5.2960  -16.1420   65.5290 C.3   179  ARG179      0.0321
     61  CG        -4.4660  -17.0440   66.4300 C.3   179  ARG179      0.0489
     62  CD        -2.9650  -16.7440   66.3020 C.3   179  ARG179      0.2205
     63  NE        -2.1900  -17.3730   67.3690 N.pl3 179  ARG179     -0.0865
     64  CZ        -2.1180  -16.9430   68.6350 C.cat 179  ARG179      0.5346
     65  NH1       -2.7670  -15.8520   69.0280 N.pl3 179  ARG179      0.1354
     66  NH2       -1.4010  -17.6200   69.5250 N.pl3 179  ARG179      0.1354
     67  N         -6.4430  -17.7170   63.3500 N.am  180  ASP180     -0.1974
     68  CA        -6.2680  -18.8540   62.4630 C.3   180  ASP180      0.1709
     69  C         -7.6220  -19.3860   62.0070 C.2   180  ASP180      0.2293
     70  O         -7.9330  -20.5650   62.2090 O.2   180  ASP180     -0.2864
     71  CB        -5.4130  -19.9530   63.1020 C.3   180  ASP180      0.1436
     72  CG        -4.0730  -19.4340   63.6170 C.2   180  ASP180      0.3671
     73  OD1       -3.6460  -18.3430   63.1810 O.co2 180  ASP180     -0.2456
     74  OD2       -3.4620  -20.1300   64.4520 O.co2 180  ASP180     -0.2456
     75  N         -3.7420  -23.2980   68.3270 N.3   262  GLU262     -0.1231
     76  CA        -3.3680  -22.5770   67.1220 C.3   262  GLU262      0.1699
     77  C         -3.6020  -23.4660   65.9090 C.2   262  GLU262      0.2592
     78  O         -3.5520  -24.6980   66.0090 O.2   262  GLU262     -0.2718
     79  CB        -1.8920  -22.1510   67.1840 C.3   262  GLU262      0.0402
     80  CG        -1.5570  -21.2160   68.3440 C.3   262  GLU262      0.1161
     81  CD        -0.1020  -20.7890   68.3410 C.2   262  GLU262      0.3649
     82  OE1        0.7690  -21.6730   68.4980 O.co2 262  GLU262     -0.2457
     83  OE2        0.1660  -19.5670   68.1970 O.co2 262  GLU262     -0.2457
     84  N         -3.8440  -22.8150   64.7700 N.am  263  THR263     -0.1953
     85  CA        -3.9810  -23.4360   63.4460 C.3   263  THR263      0.1897
     86  C         -4.8900  -24.6670   63.4120 C.2   263  THR263      0.2313
     87  O         -4.5940  -25.6330   62.7070 O.2   263  THR263     -0.2863
     88  CB        -2.6110  -23.7620   62.7770 C.3   263  THR263      0.1794
     89  OG1       -2.0190  -24.9280   63.3580 O.3   263  THR263     -0.2208
     90  CG2       -1.6480  -22.5940   62.8980 C.3   263  THR263      0.0378
     91  N          5.0190  -26.6140   71.8990 N.3   302  HIS302     -0.1241
     92  CA         4.1610  -26.9630   70.7630 C.3   302  HIS302      0.1621
     93  C          4.1450  -28.4510   70.4390 C.2   302  HIS302      0.2264
     94  O          5.2020  -29.0410   70.2280 O.2   302  HIS302     -0.2867
     95  CB         4.6460  -26.2400   69.5120 C.3   302  HIS302      0.0745
     96  CG         4.5740  -24.7510   69.5870 C.ar  302  HIS302      0.0817
     97  ND1        5.2280  -23.9130   68.7060 N.ar  302  HIS302     -0.2268
     98  CD2        3.9530  -23.9460   70.4790 C.ar  302  HIS302      0.1154
     99  CE1        4.9940  -22.6550   69.0410 C.ar  302  HIS302      0.1986
    100  NE2        4.2220  -22.6490   70.1130 N.ar  302  HIS302     -0.2212
    101  N          5.0410  -28.2010   63.3560 N.3   335  TYR335     -0.1227
    102  CA         3.9000  -27.5240   63.9490 C.3   335  TYR335      0.1736
    103  C          3.1060  -26.8380   62.8410 C.2   335  TYR335      0.2595
    104  O          3.5590  -26.7880   61.6940 O.2   335  TYR335     -0.2718
    105  CB         4.3910  -26.4790   64.9460 C.3   335  TYR335      0.0548
    106  CG         3.3490  -25.9190   65.8910 C.ar  335  TYR335     -0.0200
    107  CD1        2.6330  -26.7480   66.7490 C.ar  335  TYR335     -0.0009
    108  CD2        3.1050  -24.5450   65.9510 C.ar  335  TYR335     -0.0009
    109  CE1        1.7040  -26.2280   67.6450 C.ar  335  TYR335      0.0417
    110  CE2        2.1740  -24.0230   66.8270 C.ar  335  TYR335      0.0417
    111  CZ         1.4730  -24.8660   67.6740 C.ar  335  TYR335      0.1957
    112  OH         0.5650  -24.3490   68.5590 O.3   335  TYR335     -0.2866
    113  N          1.9290  -26.3230   63.1930 N.am  336  ALA336     -0.1980
    114  CA         1.1360  -25.4790   62.3050 C.3   336  ALA336      0.1597
    115  C          0.6750  -26.2480   61.0740 C.2   336  ALA336      0.2287
    116  O          0.7550  -25.7490   59.9620 O.2   336  ALA336     -0.2864
    117  CB         1.8950  -24.2140   61.9220 C.3   336  ALA336      0.0319
    118  N          4.8630  -27.1300   59.1040 N.3   352  TRP352     -0.1241
    119  CA         6.1010  -26.3580   59.1160 C.3   352  TRP352      0.1605
    120  C          7.1180  -27.0780   59.9780 C.2   352  TRP352      0.2264
    121  O          6.8220  -27.4020   61.1250 O.2   352  TRP352     -0.2867
    122  CB         5.8170  -24.9740   59.6740 C.3   352  TRP352      0.0550
    123  CG         6.9580  -24.1950   60.2630 C.ar  352  TRP352      0.0003
    124  CD1        8.1170  -23.8290   59.6460 C.ar  352  TRP352      0.0946
    125  CD2        6.9940  -23.6170   61.5620 C.ar  352  TRP352      0.0152
    126  NE1        8.8920  -23.0780   60.4950 N.ar  352  TRP352     -0.2442
    127  CE2        8.2210  -22.9210   61.6780 C.ar  352  TRP352      0.0810
    128  CE3        6.1060  -23.6120   62.6450 C.ar  352  TRP352      0.0012
    129  CZ2        8.5840  -22.2390   62.8320 C.ar  352  TRP352      0.0191
    130  CZ3        6.4690  -22.9300   63.8060 C.ar  352  TRP352      0.0001
    131  CH2        7.7010  -22.2570   63.8910 C.ar  352  TRP352      0.0015
@<TRIPOS>BOND
     1    14    15    1
     2    16    17    2
     3    16    15    1
     4    15    18    1
     5    12    11    2
     6    11    10    1
     7     4     3    2
     8    22    20   am
     9    54    53   ar
    10    40    39    2
    11    18    19    1
    12     1     2    1
    13    50    49    1
    14    50    51    2
    15    19    20    1
    16     3     9   am
    17     3     2    1
    18    20    21    2
    19    10     9    1
    20    10    13    1
    21   118   119    1
    22   119   122    1
    23   119   120    1
    24    49    48    1
    25    49    52    1
    26     2     5    1
    27    53    52    1
    28    53    55   ar
    29    39    48   am
    30    39    38    1
    31   124   123   ar
    32   124   126   ar
    33   122   123    1
    34    37    38    1
    35   116   115    2
    36   120   121    2
    37   123   125   ar
    38    38    41    1
    39     7     6    2
    40   126   127   ar
    41     5     6    1
    42     6     8   am
    43   115   114    1
    44   125   127   ar
    45   125   128   ar
    46   127   129   ar
    47   104   103    2
    48    41    42    1
    49   117   114    1
    50    69    70    2
    51    69    68    1
    52   114   113    1
    53    68    71    1
    54    68    67    1
    55    43    42   ar
    56    43    45   ar
    57    24    25    1
    58    24    23    1
    59    24    27    1
    60   128   130   ar
    61    25    26    2
    62    87    86    2
    63    88    90    1
    64    88    89    1
    65    88    85    1
    66    42    44   ar
    67    29    31   ar
    68    29    28   ar
    69   129   131   ar
    70   103   113   am
    71   103   102    1
    72    31    32   ar
    73    71    72    1
    74    73    72   ar
    75    67    58   am
    76   101   102    1
    77    86    85    1
    78    85    84    1
    79    28    27    1
    80    28    30   ar
    81    45    47   ar
    82    72    74   ar
    83    32    30   ar
    84    32    34   ar
    85   130   131   ar
    86   102   105    1
    87    30    33   ar
    88    44    46   ar
    89    34    36   ar
    90    58    59    2
    91    58    57    1
    92    84    77   am
    93    47    46   ar
    94    33    35   ar
    95   105   106    1
    96    36    35   ar
    97    57    60    1
    98    57    56    1
    99    60    61    1
   100   106   108   ar
   101   106   107   ar
   102    77    78    2
   103    77    76    1
   104   108   110   ar
   105    62    61    1
   106    62    63    1
   107   107   109   ar
   108   110   111   ar
   109    76    79    1
   110    76    75    1
   111    79    80    1
   112    63    64    2
   113   109   111   ar
   114   111   112    1
   115    83    81   ar
   116    81    80    1
   117    81    82   ar
   118    64    65    1
   119    64    66    1
   120    97    99   ar
   121    97    96   ar
   122    99   100   ar
   123    95    96    1
   124    95    92    1
   125    96    98   ar
   126   100    98   ar
   127    94    93    2
   128    93    92    1
   129    92    91    1
