@<TRIPOS>MOLECULE
tmp/5fmdB01.pdb
 220 215 0 0 0
SMALL
GASTEIGER

@<TRIPOS>ATOM
      1  N        -10.4000  -17.7620   16.3040 N.3    36  TRP36      -0.1241
      2  CA        -9.4850  -18.3110   15.3190 C.3    36  TRP36       0.1605
      3  C         -8.1310  -18.6070   15.9360 C.2    36  TRP36       0.2264
      4  O         -7.5770  -17.7570   16.6230 O.2    36  TRP36      -0.2867
      5  CB        -9.2880  -17.3110   14.1620 C.3    36  TRP36       0.0550
      6  CG        -8.1870  -17.7230   13.2480 C.ar   36  TRP36       0.0003
      7  CD1       -6.8610  -17.4240   13.3780 C.ar   36  TRP36       0.0946
      8  CD2       -8.2990  -18.5680   12.1070 C.ar   36  TRP36       0.0152
      9  NE1       -6.1440  -18.0180   12.3780 N.ar   36  TRP36      -0.2442
     10  CE2       -7.0020  -18.7300   11.5820 C.ar   36  TRP36       0.0810
     11  CE3       -9.3750  -19.2070   11.4730 C.ar   36  TRP36       0.0012
     12  CZ2       -6.7460  -19.5040   10.4500 C.ar   36  TRP36       0.0191
     13  CZ3       -9.1220  -19.9770   10.3470 C.ar   36  TRP36       0.0001
     14  CH2       -7.8200  -20.1170    9.8450 C.ar   36  TRP36       0.0015
     15  N         -4.2310  -20.5470   14.5090 N.3    38  ASN38      -0.1225
     16  CA        -3.4750  -21.3770   13.5770 C.3    38  ASN38       0.1785
     17  C         -2.1400  -21.8490   14.1750 C.2    38  ASN38       0.2597
     18  O         -2.1670  -22.5570   15.1900 O.2    38  ASN38      -0.2718
     19  CB        -3.4400  -20.8200   12.1120 C.3    38  ASN38       0.1169
     20  CG        -2.8200  -19.4320   11.9690 C.2    38  ASN38       0.2627
     21  OD1       -3.3490  -18.4320   12.4520 O.2    38  ASN38      -0.2716
     22  ND2       -1.7290  -19.3620   11.2220 N.am   38  ASN38      -0.0877
     23  N         -1.0040  -21.4650   13.6000 N.am   39  ALA39      -0.1979
     24  CA         0.2730  -22.0990   13.8930 C.3    39  ALA39       0.1597
     25  C          0.7060  -21.9760   15.3610 C.2    39  ALA39       0.2287
     26  O          0.6070  -20.8870   15.9340 O.2    39  ALA39      -0.2864
     27  CB         1.3470  -21.4790   13.0260 C.3    39  ALA39       0.0319
     28  N         -0.7170  -18.5490   16.9540 N.3    56  GLN56      -0.1245
     29  CA        -1.3150  -17.5110   16.1220 C.3    56  GLN56       0.1566
     30  C         -2.8000  -17.4490   16.4560 C.2    56  GLN56       0.2260
     31  O         -3.4840  -18.4670   16.4010 O.2    56  GLN56      -0.2867
     32  CB        -1.0940  -17.8370   14.6400 C.3    56  GLN56       0.0367
     33  CG         0.3580  -17.7700   14.2090 C.3    56  GLN56       0.0905
     34  CD         0.8130  -16.3550   13.9720 C.2    56  GLN56       0.2608
     35  OE1        0.5890  -15.8060   12.8940 O.2    56  GLN56      -0.2717
     36  NE2        1.4490  -15.7460   14.9720 N.am   56  GLN56      -0.0878
     37  N        -12.0960  -16.0470   11.1590 N.3    63  GLN63      -0.1231
     38  CA       -11.0950  -16.0350   10.1080 C.3    63  GLN63       0.1698
     39  C         -9.8580  -15.3120   10.6110 C.2    63  GLN63       0.2592
     40  O         -9.9140  -14.5430   11.5660 O.2    63  GLN63      -0.2718
     41  CB       -11.6260  -15.3570    8.8340 C.3    63  GLN63       0.0381
     42  CG       -12.7700  -16.1120    8.1650 C.3    63  GLN63       0.0905
     43  CD       -12.2920  -17.3510    7.4370 C.2    63  GLN63       0.2608
     44  OE1      -11.9000  -17.2760    6.2710 O.2    63  GLN63      -0.2717
     45  NE2      -12.2840  -18.4900    8.1240 N.am   63  GLN63      -0.0878
     46  N         -8.7460  -15.5740    9.9450 N.am   64  TRP64      -0.1976
     47  CA        -7.4390  -14.9930   10.2630 C.3    64  TRP64       0.1640
     48  C         -7.4360  -13.4610   10.1820 C.2    64  TRP64       0.2290
     49  O         -8.1470  -12.8650    9.3660 O.2    64  TRP64      -0.2864
     50  CB        -6.4360  -15.5950    9.2790 C.3    64  TRP64       0.0576
     51  CG        -5.0020  -15.2180    9.4020 C.ar   64  TRP64       0.0006
     52  CD1       -4.0200  -15.9420   10.0240 C.ar   64  TRP64       0.0946
     53  CD2       -4.3510  -14.0920    8.8040 C.ar   64  TRP64       0.0152
     54  NE1       -2.8100  -15.3210    9.8740 N.ar   64  TRP64      -0.2442
     55  CE2       -2.9820  -14.1850    9.1290 C.ar   64  TRP64       0.0810
     56  CE3       -4.7900  -13.0060    8.0270 C.ar   64  TRP64       0.0012
     57  CZ2       -2.0530  -13.2300    8.7260 C.ar   64  TRP64       0.0191
     58  CZ3       -3.8610  -12.0560    7.6160 C.ar   64  TRP64       0.0001
     59  CH2       -2.5080  -12.1760    7.9630 C.ar   64  TRP64       0.0015
     60  N          0.5260   -5.1860   10.7220 N.3   101  ARG101     -0.1245
     61  CA        -0.2440   -6.0660    9.8520 C.3   101  ARG101      0.1563
     62  C         -0.3380   -7.4950   10.3950 C.2   101  ARG101      0.2260
     63  O         -1.0740   -8.3090    9.8500 O.2   101  ARG101     -0.2867
     64  CB         0.3670   -6.0400    8.4400 C.3   101  ARG101      0.0307
     65  CG        -0.4930   -6.6600    7.3500 C.3   101  ARG101      0.0489
     66  CD         0.0470   -7.9920    6.8410 C.3   101  ARG101      0.2205
     67  NE        -0.6090   -8.3480    5.5870 N.pl3 101  ARG101     -0.0865
     68  CZ        -0.3130   -7.8340    4.3910 C.cat 101  ARG101      0.5346
     69  NH1        0.6600   -6.9380    4.2410 N.pl3 101  ARG101      0.1354
     70  NH2       -1.0020   -8.2390    3.3220 N.pl3 101  ARG101      0.1354
     71  N          3.4810  -12.5070   13.2000 N.3   104  PHE104     -0.1227
     72  CA         3.5140  -13.8450   12.6070 C.3   104  PHE104      0.1736
     73  C          4.3510  -14.7810   13.5000 C.2   104  PHE104      0.2595
     74  O          4.7380  -14.4250   14.6190 O.2   104  PHE104     -0.2718
     75  CB         4.0950  -13.7590   11.1760 C.3   104  PHE104      0.0547
     76  CG         3.1130  -13.3280   10.1060 C.ar  104  PHE104     -0.0202
     77  CD1        2.0660  -12.4400   10.3620 C.ar  104  PHE104     -0.0042
     78  CD2        3.2930  -13.7680    8.7940 C.ar  104  PHE104     -0.0042
     79  CE1        1.2060  -12.0370    9.3480 C.ar  104  PHE104     -0.0003
     80  CE2        2.4370  -13.3660    7.7790 C.ar  104  PHE104     -0.0003
     81  CZ         1.3880  -12.5030    8.0530 C.ar  104  PHE104     -0.0000
     82  N          4.6010  -15.9900   13.0110 N.am  105  ASP105     -0.1974
     83  CA         5.3360  -17.0130   13.7440 C.3   105  ASP105      0.1709
     84  C          6.7030  -16.5120   14.2180 C.2   105  ASP105      0.2293
     85  O          7.3270  -15.6470   13.5980 O.2   105  ASP105     -0.2864
     86  CB         5.4780  -18.2370   12.8210 C.3   105  ASP105      0.1436
     87  CG         6.0410  -19.4720   13.5020 C.2   105  ASP105      0.3671
     88  OD1        6.0090  -19.6110   14.7470 O.co2 105  ASP105     -0.2456
     89  OD2        6.5250  -20.3480   12.7380 O.co2 105  ASP105     -0.2456
     90  N          1.3530   -9.4580    0.3280 N.3   129  LEU129     -0.1231
     91  CA         2.0920  -10.4470    1.1020 C.3   129  LEU129      0.1693
     92  C          1.6170  -11.8230    0.6790 C.2   129  LEU129      0.2592
     93  O          0.4590  -12.1800    0.8890 O.2   129  LEU129     -0.2718
     94  CB         1.8660  -10.2220    2.6070 C.3   129  LEU129      0.0284
     95  CG         2.8350  -10.8910    3.5970 C.3   129  LEU129      0.0019
     96  CD1        2.6190  -10.3250    4.9990 C.3   129  LEU129      0.0001
     97  CD2        2.6960  -12.4060    3.6100 C.3   129  LEU129      0.0001
     98  N          2.5080  -12.5860    0.0590 N.am  130  GLY130     -0.1957
     99  CA         2.1670  -13.9360   -0.3550 C.3   130  GLY130      0.1869
    100  C          3.0370  -14.4530   -1.4740 C.2   130  GLY130      0.2309
    101  O          3.5510  -13.6750   -2.2880 O.2   130  GLY130     -0.2863
    102  N          9.8310  -15.3090    6.1930 N.3   179  ARG179     -0.1231
    103  CA         9.1800  -15.3930    7.4960 C.3   179  ARG179      0.1694
    104  C          9.5060  -16.6480    8.2900 C.2   179  ARG179      0.2592
    105  O         10.1920  -17.5640    7.8110 O.2   179  ARG179     -0.2718
    106  CB         7.6610  -15.2400    7.3400 C.3   179  ARG179      0.0321
    107  CG         6.9710  -16.2860    6.4770 C.3   179  ARG179      0.0489
    108  CD         5.4530  -16.2150    6.6010 C.3   179  ARG179      0.2205
    109  NE         4.8020  -16.9760    5.5340 N.pl3 179  ARG179     -0.0865
    110  CZ         4.6850  -16.5740    4.2630 C.cat 179  ARG179      0.5346
    111  NH1        5.1470  -15.3900    3.8680 N.pl3 179  ARG179      0.1354
    112  NH2        4.0880  -17.3650    3.3770 N.pl3 179  ARG179      0.1354
    113  N          9.0040  -16.6500    9.5240 N.am  180  ASP180     -0.1974
    114  CA         9.0220  -17.8020   10.4260 C.3   180  ASP180      0.1709
    115  C         10.4470  -18.1230   10.8780 C.2   180  ASP180      0.2293
    116  O         10.9360  -19.2340   10.6540 O.2   180  ASP180     -0.2864
    117  CB         8.3330  -19.0150    9.7850 C.3   180  ASP180      0.1436
    118  CG         6.9470  -18.6900    9.2620 C.2   180  ASP180      0.3671
    119  OD1        6.3680  -17.6650    9.6940 O.co2 180  ASP180     -0.2456
    120  OD2        6.4270  -19.4660    8.4230 O.co2 180  ASP180     -0.2456
    121  N          7.2630  -22.6040    4.6370 N.3   262  GLU262     -0.1231
    122  CA         6.7530  -21.9340    5.8310 C.3   262  GLU262      0.1699
    123  C          7.1220  -22.7670    7.0580 C.2   262  GLU262      0.2592
    124  O          7.3050  -23.9850    6.9680 O.2   262  GLU262     -0.2718
    125  CB         5.2370  -21.7630    5.7530 C.3   262  GLU262      0.0402
    126  CG         4.7880  -20.8980    4.5770 C.3   262  GLU262      0.1161
    127  CD         3.2850  -20.7760    4.4470 C.2   262  GLU262      0.3649
    128  OE1        2.5660  -21.7690    4.6410 O.co2 262  GLU262     -0.2457
    129  OE2        2.8200  -19.6750    4.1330 O.co2 262  GLU262     -0.2457
    130  N          7.2440  -22.0770    8.1920 N.am  263  THR263     -0.1953
    131  CA         7.4870  -22.6710    9.5100 C.3   263  THR263      0.1897
    132  C          8.5820  -23.7410    9.5360 C.2   263  THR263      0.2313
    133  O          8.4190  -24.7820   10.1750 O.2   263  THR263     -0.2863
    134  CB         6.1850  -23.2200   10.1610 C.3   263  THR263      0.1794
    135  OG1        5.7630  -24.4250    9.5000 O.3   263  THR263     -0.2208
    136  CG2        5.0680  -22.1860   10.1280 C.3   263  THR263      0.0378
    137  N          3.9380  -24.7300    0.2820 N.3   293  GLU293     -0.1231
    138  CA         2.6660  -24.3080   -0.2800 C.3   293  GLU293      0.1699
    139  C          2.6170  -24.3830   -1.8130 C.2   293  GLU293      0.2592
    140  O          3.6410  -24.2950   -2.4890 O.2   293  GLU293     -0.2718
    141  CB         2.2450  -22.9250    0.2200 C.3   293  GLU293      0.0402
    142  CG         3.2380  -21.8030    0.0370 C.3   293  GLU293      0.1161
    143  CD         2.7170  -20.4650    0.5690 C.2   293  GLU293      0.3649
    144  OE1        1.4820  -20.2650    0.6270 O.co2 293  GLU293     -0.2457
    145  OE2        3.5490  -19.6190    0.9370 O.co2 293  GLU293     -0.2457
    146  N          1.3940  -24.5650   -2.3020 N.am  294  GLN294     -0.1979
    147  CA         1.0530  -24.6010   -3.7320 C.3   294  GLN294      0.1601
    148  C          1.5800  -25.8300   -4.4800 C.2   294  GLN294      0.2287
    149  O          1.5570  -25.8440   -5.7090 O.2   294  GLN294     -0.2864
    150  CB         1.4650  -23.2970   -4.4430 C.3   294  GLN294      0.0394
    151  CG         1.0000  -22.0150   -3.7580 C.3   294  GLN294      0.0908
    152  CD        -0.4990  -21.9740   -3.5340 C.2   294  GLN294      0.2608
    153  OE1       -1.2800  -22.4000   -4.3810 O.2   294  GLN294     -0.2717
    154  NE2       -0.9080  -21.4680   -2.3780 N.am  294  GLN294     -0.0878
    155  N         -5.6490  -27.3290    1.7450 N.3   300  GLN300     -0.1231
    156  CA        -5.2500  -25.9100    1.7470 C.3   300  GLN300      0.1698
    157  C         -3.9150  -25.6630    1.0230 C.2   300  GLN300      0.2592
    158  O         -3.1470  -24.7570    1.3700 O.2   300  GLN300     -0.2718
    159  CB        -5.2570  -25.3800    3.1940 C.3   300  GLN300      0.0381
    160  CG        -6.5840  -25.6940    3.8920 C.3   300  GLN300      0.0905
    161  CD        -6.8730  -24.8840    5.1480 C.2   300  GLN300      0.2608
    162  OE1       -8.0310  -24.8250    5.6030 O.2   300  GLN300     -0.2717
    163  NE2       -5.8400  -24.2710    5.7260 N.am  300  GLN300     -0.0878
    164  N         -3.6610  -26.4820   -0.0020 N.am  301  ASN301     -0.1960
    165  CA        -2.4250  -26.4560   -0.7900 C.3   301  ASN301      0.1819
    166  C         -1.1270  -26.6770   -0.0100 C.2   301  ASN301      0.2621
    167  O         -0.0560  -26.3170   -0.4960 O.2   301  ASN301     -0.2715
    168  CB        -2.3430  -25.1470   -1.5940 C.3   301  ASN301      0.1195
    169  CG        -3.6720  -24.7690   -2.2180 C.2   301  ASN301      0.2630
    170  OD1       -4.2090  -25.5060   -3.0460 O.2   301  ASN301     -0.2716
    171  ND2       -4.2250  -23.6350   -1.8020 N.am  301  ASN301     -0.0877
    172  N         -1.2200  -27.3130    1.1600 N.am  302  HIS302     -0.1973
    173  CA        -0.1290  -27.3580    2.1380 C.3   302  HIS302      0.1656
    174  C          0.3480  -28.7770    2.4490 C.2   302  HIS302      0.2291
    175  O         -0.4690  -29.6230    2.7830 O.2   302  HIS302     -0.2864
    176  CB        -0.6280  -26.8030    3.4700 C.3   302  HIS302      0.0771
    177  CG        -0.7270  -25.3140    3.5380 C.ar  302  HIS302      0.0820
    178  ND1        0.1350  -24.4600    2.8810 N.ar  302  HIS302     -0.2267
    179  CD2       -1.5620  -24.5280    4.2540 C.ar  302  HIS302      0.1154
    180  CE1       -0.1860  -23.2090    3.1660 C.ar  302  HIS302      0.1986
    181  NE2       -1.2110  -23.2240    3.9980 N.ar  302  HIS302     -0.2212
    182  N         -0.6850  -28.8110    9.6560 N.3   335  TYR335     -0.1227
    183  CA         0.3280  -27.9740    9.0540 C.3   335  TYR335      0.1736
    184  C          1.0100  -27.1780   10.1590 C.2   335  TYR335      0.2595
    185  O          0.5440  -27.1980   11.2980 O.2   335  TYR335     -0.2718
    186  CB        -0.3580  -27.0130    8.0730 C.3   335  TYR335      0.0548
    187  CG         0.5610  -26.3150    7.1330 C.ar  335  TYR335     -0.0200
    188  CD1        1.3850  -27.0420    6.2780 C.ar  335  TYR335     -0.0009
    189  CD2        0.6170  -24.9210    7.0810 C.ar  335  TYR335     -0.0009
    190  CE1        2.2370  -26.4040    5.3920 C.ar  335  TYR335      0.0417
    191  CE2        1.4680  -24.2720    6.2000 C.ar  335  TYR335      0.0417
    192  CZ         2.2670  -25.0190    5.3410 C.ar  335  TYR335      0.1957
    193  OH         3.1250  -24.4070    4.4520 O.3   335  TYR335     -0.2866
    194  N          2.1150  -26.5180    9.8280 N.am  336  ALA336     -0.1980
    195  CA         2.7730  -25.5570   10.7140 C.3   336  ALA336      0.1597
    196  C          3.3640  -26.2300   11.9490 C.2   336  ALA336      0.2287
    197  O          3.1500  -25.7940   13.0770 O.2   336  ALA336     -0.2864
    198  CB         1.8230  -24.4270   11.0910 C.3   336  ALA336      0.0319
    199  N         -0.6970  -27.6740   13.8920 N.3   352  TRP352     -0.1241
    200  CA        -2.0370  -27.1080   13.8870 C.3   352  TRP352      0.1605
    201  C         -2.9370  -27.9850   13.0350 C.2   352  TRP352      0.2264
    202  O         -2.5930  -28.2660   11.8930 O.2   352  TRP352     -0.2867
    203  CB        -1.9640  -25.6910   13.3120 C.3   352  TRP352      0.0550
    204  CG        -3.2160  -25.0980   12.7490 C.ar  352  TRP352      0.0003
    205  CD1       -4.4230  -24.9580   13.3630 C.ar  352  TRP352      0.0946
    206  CD2       -3.3470  -24.4920   11.4640 C.ar  352  TRP352      0.0152
    207  NE1       -5.3090  -24.3130   12.5270 N.ar  352  TRP352     -0.2442
    208  CE2       -4.6710  -24.0200   11.3530 C.ar  352  TRP352      0.0810
    209  CE3       -2.4750  -24.3080   10.3930 C.ar  352  TRP352      0.0012
    210  CZ2       -5.1430  -23.3630   10.2070 C.ar  352  TRP352      0.0191
    211  CZ3       -2.9490  -23.6680    9.2430 C.ar  352  TRP352      0.0001
    212  CH2       -4.2720  -23.2100    9.1650 C.ar  352  TRP352      0.0015
    213  N        -13.9880  -25.5960    4.7170 N.3   358  ASP358     -0.1239
    214  CA       -13.2250  -24.6300    3.9160 C.3   358  ASP358      0.1674
    215  C        -14.0720  -23.5500    3.2290 C.2   358  ASP358      0.2266
    216  O        -13.5390  -22.4990    2.8860 O.2   358  ASP358     -0.2867
    217  CB       -12.3370  -25.3340    2.8810 C.3   358  ASP358      0.1410
    218  CG       -11.1600  -26.0750    3.5130 C.2   358  ASP358      0.3668
    219  OD1      -10.7980  -25.8070    4.6810 O.co2 358  ASP358     -0.2456
    220  OD2      -10.5830  -26.9420    2.8320 O.co2 358  ASP358     -0.2456
@<TRIPOS>BOND
     1   149   148    2
     2   148   147    1
     3   150   151    1
     4   150   147    1
     5   153   152    2
     6   151   152    1
     7   147   146    1
     8   152   154   am
     9   170   169    2
    10   140   139    2
    11   146   139   am
    12   101   100    2
    13   169   171   am
    14   169   168    1
    15   139   138    1
    16   168   165    1
    17   100    99    1
    18   165   166    1
    19   165   164    1
    20   167   166    2
    21    99    98    1
    22   138   141    1
    23   138   137    1
    24   166   172   am
    25   164   157   am
    26   142   141    1
    27   142   143    1
    28    98    92   am
    29    90    91    1
    30   143   144   ar
    31   143   145   ar
    32    92    93    2
    33    92    91    1
    34   157   158    2
    35   157   156    1
    36    91    94    1
    37   172   173    1
    38   155   156    1
    39   156   159    1
    40   173   174    1
    41   173   176    1
    42   174   175    2
    43    94    95    1
    44   220   218   ar
    45   178   180   ar
    46   178   177   ar
    47   217   218    1
    48   217   214    1
    49   216   215    2
    50   180   181   ar
    51   159   160    1
    52   215   214    1
    53    70    68    1
    54   112   110    1
    55   176   177    1
    56   218   219   ar
    57   177   179   ar
    58    95    97    1
    59    95    96    1
    60   111   110    1
    61   160   161    1
    62   214   213    1
    63   181   179   ar
    64   129   127   ar
    65    69    68    1
    66   110   109    2
    67    68    67    2
    68   127   126    1
    69   127   128   ar
    70   193   192    1
    71   126   125    1
    72   121   122    1
    73   161   162    2
    74   161   163   am
    75   192   190   ar
    76   192   191   ar
    77   190   188   ar
    78   109   108    1
    79    67    66    1
    80   125   122    1
    81   122   123    1
    82   102   103    1
    83   191   189   ar
    84    44    43    2
    85   188   187   ar
    86   107   108    1
    87   107   106    1
    88    66    65    1
    89   124   123    2
    90   123   130   am
    91   189   187   ar
    92   187   186    1
    93   106   103    1
    94    65    64    1
    95    43    45   am
    96    43    42    1
    97   103   104    1
    98    58    59   ar
    99    58    56   ar
   100    80    81   ar
   101    80    78   ar
   102   105   104    2
   103    59    57   ar
   104    56    53   ar
   105    81    79   ar
   106   186   183    1
   107    42    41    1
   108   130   131    1
   109   104   113   am
   110   120   118   ar
   111    64    61    1
   112    57    55   ar
   113    78    76   ar
   114    53    55   ar
   115    53    51   ar
   116    41    38    1
   117   183   182    1
   118   183   184    1
   119    55    54   ar
   120   212   211   ar
   121   212   210   ar
   122   211   209   ar
   123   118   119   ar
   124   118   117    1
   125    50    51    1
   126    50    47    1
   127    79    77   ar
   128    49    48    2
   129    51    52   ar
   130   135   134    1
   131   131   132    1
   132   131   134    1
   133   113   114    1
   134   132   133    2
   135   117   114    1
   136   194   184   am
   137   194   195    1
   138    14    13   ar
   139    14    12   ar
   140    63    62    2
   141    61    62    1
   142    61    60    1
   143    54    52   ar
   144    46    47    1
   145    46    39   am
   146    76    77   ar
   147    76    75    1
   148    38    39    1
   149    38    37    1
   150   136   134    1
   151   184   185    2
   152    48    47    1
   153   210   208   ar
   154    13    11   ar
   155   209   206   ar
   156   114   115    1
   157    12    10   ar
   158    39    40    2
   159   116   115    2
   160   195   198    1
   161   195   196    1
   162    75    72    1
   163    22    20   am
   164   208   206   ar
   165   208   207   ar
   166   206   204   ar
   167    11     8   ar
   168    10     8   ar
   169    10     9   ar
   170   202   201    2
   171   196   197    2
   172    20    19    1
   173    20    21    2
   174     8     6   ar
   175    19    16    1
   176     9     7   ar
   177   207   205   ar
   178    72    71    1
   179    72    73    1
   180    89    87   ar
   181   204   203    1
   182   204   205   ar
   183    86    87    1
   184    86    83    1
   185    35    34    2
   186    82    73   am
   187    82    83    1
   188    27    24    1
   189   201   200    1
   190     6     7   ar
   191     6     5    1
   192   203   200    1
   193    73    74    2
   194    87    88   ar
   195    16    17    1
   196    16    15    1
   197    85    84    2
   198    23    24    1
   199    23    17   am
   200    83    84    1
   201   200   199    1
   202    24    25    1
   203    34    33    1
   204    34    36   am
   205     5     2    1
   206    17    18    2
   207    33    32    1
   208    32    29    1
   209     2     3    1
   210     2     1    1
   211    25    26    2
   212     3     4    2
   213    29    30    1
   214    29    28    1
   215    31    30    2
