@<TRIPOS>MOLECULE
tmp/5fmgJ00.pdb
 95 90 0 0 0
SMALL
GASTEIGER

@<TRIPOS>ATOM
      1  N         16.4230  -21.8170   -1.6760 N.3    92  ARG92      -0.1245
      2  CA        16.8610  -20.5250   -1.1780 C.3    92  ARG92       0.1563
      3  C         16.2040  -20.2060    0.1500 C.2    92  ARG92       0.2260
      4  O         16.8160  -19.6200    1.0350 O.2    92  ARG92      -0.2867
      5  CB        16.5290  -19.4210   -2.1910 C.3    92  ARG92       0.0307
      6  CG        17.3560  -19.4470   -3.4540 C.3    92  ARG92       0.0489
      7  CD        17.1160  -18.2770   -4.3380 C.3    92  ARG92       0.2205
      8  NE        17.6740  -17.0130   -3.8530 N.pl3  92  ARG92      -0.0865
      9  CZ        17.0350  -16.0790   -3.1170 C.cat  92  ARG92       0.5346
     10  NH1       15.7360  -16.2460   -2.7230 N.pl3  92  ARG92       0.1354
     11  NH2       17.6700  -14.9320   -2.8330 N.pl3  92  ARG92       0.1354
     12  N         25.9880  -17.6900    5.4180 N.3    99  ASN99      -0.1240
     13  CA        27.1970  -17.5420    4.6360 C.3    99  ASN99       0.1653
     14  C         28.3020  -18.3990    5.2070 C.2    99  ASN99       0.2266
     15  O         29.1290  -17.9310    5.9720 O.2    99  ASN99      -0.2867
     16  CB        27.6210  -16.0780    4.5630 C.3    99  ASN99       0.1155
     17  CG        27.8880  -15.6100    3.1370 C.2    99  ASN99       0.2627
     18  OD1       27.9050  -16.4080    2.1930 O.2    99  ASN99      -0.2716
     19  ND2       28.0810  -14.3050    2.9750 N.am   99  ASN99      -0.0877
     20  N         34.5970  -20.4740    0.2070 N.3   113  ALA113     -0.1231
     21  CA        33.4940  -19.7370    0.8160 C.3   113  ALA113      0.1694
     22  C         32.2530  -19.7390   -0.0180 C.2   113  ALA113      0.2592
     23  O         32.2180  -19.1750   -1.1030 O.2   113  ALA113     -0.2718
     24  CB        33.8900  -18.3470    1.0870 C.3   113  ALA113      0.0304
     25  N         31.2270  -20.3830    0.5000 N.am  114  TYR114     -0.1962
     26  CA        29.9710  -20.4750   -0.2020 C.3   114  TYR114      0.1771
     27  C         29.1700  -19.1780   -0.1000 C.2   114  TYR114      0.2620
     28  O         29.3780  -18.3750    0.7990 O.2   114  TYR114     -0.2715
     29  CB        29.1440  -21.6430    0.3360 C.3   114  TYR114      0.0574
     30  CG        30.0270  -22.7980    0.6560 C.ar  114  TYR114     -0.0198
     31  CD1       30.6500  -22.9120    1.9090 C.ar  114  TYR114     -0.0009
     32  CD2       30.2980  -23.7620   -0.3070 C.ar  114  TYR114     -0.0009
     33  CE1       31.5190  -23.9740    2.1870 C.ar  114  TYR114      0.0417
     34  CE2       31.1780  -24.8200   -0.0510 C.ar  114  TYR114      0.0417
     35  CZ        31.7840  -24.9010    1.1970 C.ar  114  TYR114      0.1957
     36  OH        32.6280  -25.9320    1.4280 O.3   114  TYR114     -0.2866
     37  N         28.3030  -18.9590   -1.0780 N.am  115  ASP115     -0.1957
     38  CA        27.2230  -17.9900   -0.9950 C.3   115  ASP115      0.1840
     39  C         26.0160  -18.7390   -0.4780 C.2   115  ASP115      0.2622
     40  O         26.0520  -19.9560   -0.3850 O.2   115  ASP115     -0.2715
     41  CB        26.9360  -17.3660   -2.3570 C.3   115  ASP115      0.1450
     42  CG        25.8190  -16.3480   -2.3190 C.2   115  ASP115      0.3671
     43  OD1       25.3450  -16.0180   -1.2150 O.co2 115  ASP115     -0.2456
     44  OD2       25.3880  -15.9000   -3.4010 O.co2 115  ASP115     -0.2456
     45  N         24.9510  -18.0260   -0.1370 N.am  116  LEU116     -0.1963
     46  CA        23.7820  -18.6630    0.4430 C.3   116  LEU116      0.1728
     47  C         22.9880  -19.5100   -0.5420 C.2   116  LEU116      0.2616
     48  O         22.2120  -20.3700   -0.1310 O.2   116  LEU116     -0.2715
     49  CB        22.8860  -17.6150    1.0820 C.3   116  LEU116      0.0311
     50  CG        22.2880  -16.4800    0.2860 C.3   116  LEU116      0.0022
     51  CD1       21.0270  -16.9150   -0.4220 C.3   116  LEU116      0.0001
     52  CD2       22.0050  -15.3590    1.2610 C.3   116  LEU116      0.0001
     53  N         23.1510  -19.2690   -1.8360 N.am  117  ILE117     -0.1977
     54  CA        22.5480  -20.1620   -2.8140 C.3   117  ILE117      0.1596
     55  C         23.4450  -21.3730   -3.0500 C.2   117  ILE117      0.2287
     56  O         23.0280  -22.3740   -3.6220 O.2   117  ILE117     -0.2864
     57  CB        22.3150  -19.4750   -4.1390 C.3   117  ILE117      0.0276
     58  CG1       21.3740  -20.2960   -4.9980 C.3   117  ILE117      0.0022
     59  CG2       23.6250  -19.2990   -4.8700 C.3   117  ILE117      0.0022
     60  CD1       20.9160  -19.5570   -6.2060 C.3   117  ILE117      0.0001
     61  N         26.5670  -20.6670   -4.3490 N.3   119  ALA119     -0.1231
     62  CA        27.6460  -20.1240   -5.1560 C.3   119  ALA119      0.1694
     63  C         28.8770  -20.2600   -4.2960 C.2   119  ALA119      0.2592
     64  O         28.7960  -20.1170   -3.0890 O.2   119  ALA119     -0.2718
     65  CB        27.3930  -18.6730   -5.5470 C.3   119  ALA119      0.0304
     66  N         30.0110  -20.5760   -4.8910 N.am  120  LYS120     -0.1966
     67  CA        31.1520  -20.9250   -4.0750 C.3   120  LYS120      0.1728
     68  C         32.4560  -20.4290   -4.6150 C.2   120  LYS120      0.2616
     69  O         32.6780  -20.4260   -5.8170 O.2   120  LYS120     -0.2715
     70  CB        31.2200  -22.4280   -3.9160 C.3   120  LYS120      0.0311
     71  CG        32.4310  -22.8930   -3.1760 C.3   120  LYS120      0.0038
     72  CD        32.3160  -24.3400   -2.8350 C.3   120  LYS120      0.0206
     73  CE        33.6100  -24.8470   -2.2910 C.3   120  LYS120      0.1093
     74  NZ        34.6110  -24.9710   -3.3770 N.3   120  LYS120     -0.1314
     75  N         33.3380  -20.0110   -3.7230 N.am  121  CYS121     -0.1968
     76  CA        34.6380  -19.5950   -4.1830 C.3   121  CYS121      0.1712
     77  C         35.7320  -20.4260   -3.5370 C.2   121  CYS121      0.2296
     78  O         36.0000  -20.2960   -2.3450 O.2   121  CYS121     -0.2864
     79  CB        34.8480  -18.1150   -3.8970 C.3   121  CYS121      0.0983
     80  SG        36.3160  -17.4420   -4.6690 S.3   121  CYS121     -0.0798
     81  N         39.3740  -15.7100    2.9180 N.3   127  VAL127     -0.1245
     82  CA        38.0520  -15.3160    2.4710 C.3   127  VAL127      0.1561
     83  C         37.2100  -15.0440    3.6980 C.2   127  VAL127      0.2260
     84  O         37.4060  -15.6660    4.7300 O.2   127  VAL127     -0.2867
     85  CB        37.4000  -16.3850    1.5900 C.3   127  VAL127      0.0252
     86  CG1       37.0770  -17.6220    2.3990 C.3   127  VAL127      0.0019
     87  CG2       36.1700  -15.8210    0.8980 C.3   127  VAL127      0.0019
     88  N         33.3380  -14.1670    4.6540 N.3   129  ASN129     -0.1240
     89  CA        31.9110  -13.9280    4.7360 C.3   129  ASN129      0.1653
     90  C         31.5430  -13.3780    6.0870 C.2   129  ASN129      0.2266
     91  O         32.1290  -13.7600    7.0900 O.2   129  ASN129     -0.2867
     92  CB        31.1200  -15.1930    4.4720 C.3   129  ASN129      0.1155
     93  CG        31.2130  -15.6340    3.0490 C.2   129  ASN129      0.2627
     94  OD1       31.6200  -14.8700    2.1810 O.2   129  ASN129     -0.2716
     95  ND2       30.7860  -16.8550    2.7820 N.am  129  ASN129     -0.0877
@<TRIPOS>BOND
     1    60    58    1
     2    69    68    2
     3    65    62    1
     4    62    61    1
     5    62    63    1
     6    58    57    1
     7    66    63   am
     8    66    67    1
     9    59    57    1
    10    80    79    1
    11    68    67    1
    12    68    75   am
    13     7     8    1
    14     7     6    1
    15    63    64    2
    16    76    79    1
    17    76    75    1
    18    76    77    1
    19    57    54    1
    20    67    70    1
    21    70    71    1
    22     8     9    2
    23    56    55    2
    24    77    78    2
    25     6     5    1
    26    44    42   ar
    27    74    73    1
    28    71    72    1
    29     9    11    1
    30     9    10    1
    31    55    54    1
    32    72    73    1
    33    54    53    1
    34    41    42    1
    35    41    38    1
    36    42    43   ar
    37     5     2    1
    38    53    47   am
    39     1     2    1
    40     2     3    1
    41    23    22    2
    42    37    38    1
    43    37    27   am
    44    38    39    1
    45    47    48    2
    46    47    46    1
    47    39    40    2
    48    39    45   am
    49    51    50    1
    50    32    34   ar
    51    32    30   ar
    52    26    27    1
    53    26    29    1
    54    26    25    1
    55    45    46    1
    56    27    28    2
    57    34    35   ar
    58    22    25   am
    59    22    21    1
    60     3     4    2
    61    20    21    1
    62    50    49    1
    63    50    52    1
    64    29    30    1
    65    46    49    1
    66    30    31   ar
    67    21    24    1
    68    87    85    1
    69    35    36    1
    70    35    33   ar
    71    85    86    1
    72    85    82    1
    73    31    33   ar
    74    94    93    2
    75    18    17    2
    76    82    81    1
    77    82    83    1
    78    95    93   am
    79    19    17   am
    80    93    92    1
    81    17    16    1
    82    83    84    2
    83    92    89    1
    84    16    13    1
    85    13    14    1
    86    13    12    1
    87    88    89    1
    88    89    90    1
    89    14    15    2
    90    90    91    2
