@<TRIPOS>MOLECULE
tmp/5fmgW00.pdb
 151 144 0 0 0
SMALL
GASTEIGER

@<TRIPOS>ATOM
      1  N        -30.1290    7.9440  -16.0160 N.3     1  THR1       -0.1218
      2  CA       -30.6620    9.1460  -16.6440 C.3     1  THR1        0.1862
      3  C        -30.5590    9.0600  -18.1630 C.2     1  THR1        0.2287
      4  O        -29.5110    8.7110  -18.7050 O.2     1  THR1       -0.2866
      5  CB       -29.9250   10.4090  -16.1610 C.3     1  THR1        0.1770
      6  OG1      -30.0910   10.5510  -14.7450 O.3     1  THR1       -0.2211
      7  CG2      -30.4730   11.6440  -16.8580 C.3     1  THR1        0.0375
      8  N        -36.4750   11.1620  -12.8100 N.3    19  ARG19      -0.1231
      9  CA       -36.3300   10.3380  -11.6290 C.3    19  ARG19       0.1694
     10  C        -34.8950   10.3070  -11.1570 C.2    19  ARG19       0.2592
     11  O        -34.0480    9.6890  -11.7900 O.2    19  ARG19      -0.2718
     12  CB       -36.8170    8.9310  -11.9150 C.3    19  ARG19       0.0321
     13  CG       -36.8830    8.0440  -10.7090 C.3    19  ARG19       0.0489
     14  CD       -37.4390    6.6940  -11.1100 C.3    19  ARG19       0.2205
     15  NE       -36.5240    6.0090  -12.0080 N.pl3  19  ARG19      -0.0865
     16  CZ       -35.4860    5.3040  -11.5920 C.cat  19  ARG19       0.5346
     17  NH1      -35.2360    5.1880  -10.3040 N.pl3  19  ARG19       0.1354
     18  NH2      -34.6930    4.7130  -12.4600 N.pl3  19  ARG19       0.1354
     19  N        -34.6190   10.9960  -10.0570 N.am   20  ALA20      -0.1966
     20  CA       -33.2820   11.0010   -9.4730 C.3    20  ALA20       0.1728
     21  C        -33.0260    9.6920   -8.7770 C.2    20  ALA20       0.2617
     22  O        -33.9640    9.0170   -8.3820 O.2    20  ALA20      -0.2715
     23  CB       -33.1160   12.1420   -8.5140 C.3    20  ALA20       0.0334
     24  N        -31.7640    9.3180   -8.6370 N.am   21  THR21      -0.1937
     25  CA       -31.4400    8.0820   -7.9490 C.3    21  THR21       0.2028
     26  C        -30.1280    8.2130   -7.1890 C.2    21  THR21       0.2642
     27  O        -29.1780    8.8170   -7.6730 O.2    21  THR21      -0.2714
     28  CB       -31.3530    6.9150   -8.9410 C.3    21  THR21       0.1808
     29  OG1      -32.5930    6.8050   -9.6400 O.3    21  THR21      -0.2208
     30  CG2      -31.0990    5.6130   -8.2230 C.3    21  THR21       0.0379
     31  N        -30.0820    7.6450   -5.9940 N.am   22  GLU22      -0.1963
     32  CA       -28.8750    7.6820   -5.1860 C.3    22  GLU22       0.1733
     33  C        -27.8890    6.5800   -5.5790 C.2    22  GLU22       0.2616
     34  O        -26.7500    6.5500   -5.1210 O.2    22  GLU22      -0.2715
     35  CB       -29.2360    7.5710   -3.7100 C.3    22  GLU22       0.0429
     36  CG       -28.0690    7.7600   -2.7880 C.3    22  GLU22       0.1163
     37  CD       -28.4610    7.6270   -1.3560 C.2    22  GLU22       0.3649
     38  OE1      -29.6520    7.3720   -1.1020 O.co2  22  GLU22      -0.2457
     39  OE2      -27.5770    7.7620   -0.4870 O.co2  22  GLU22      -0.2457
     40  N        -28.3300    5.6660   -6.4300 N.am   23  GLY23      -0.1955
     41  CA       -27.4880    4.5520   -6.8200 C.3    23  GLY23       0.1869
     42  C        -28.1360    3.2340   -6.4720 C.2    23  GLY23       0.2309
     43  O        -28.3100    2.3830   -7.3350 O.2    23  GLY23      -0.2863
     44  N        -33.8710    8.4200   -4.8340 N.3    27  ALA27      -0.1231
     45  CA       -33.8830    9.5080   -3.8650 C.3    27  ALA27       0.1694
     46  C        -34.8080   10.6280   -4.2960 C.2    27  ALA27       0.2592
     47  O        -34.8170   11.6880   -3.6910 O.2    27  ALA27      -0.2718
     48  CB       -32.4920   10.0390   -3.6560 C.3    27  ALA27       0.0304
     49  N        -35.5700   10.4000   -5.3560 N.am   28  ASP28      -0.1974
     50  CA       -36.5610   11.3670   -5.7980 C.3    28  ASP28       0.1709
     51  C        -37.5600   10.7370   -6.7300 C.2    28  ASP28       0.2293
     52  O        -37.2200    9.8500   -7.5040 O.2    28  ASP28      -0.2864
     53  CB       -35.8940   12.5340   -6.5000 C.3    28  ASP28       0.1436
     54  CG       -35.6980   13.7660   -5.6640 C.2    28  ASP28       0.3671
     55  OD1      -36.2920   13.8880   -4.5780 O.co2  28  ASP28      -0.2456
     56  OD2      -34.9390   14.6610   -6.1060 O.co2  28  ASP28      -0.2456
     57  N        -37.4660   15.0840  -10.9230 N.3    31  CYS31      -0.1221
     58  CA       -36.4230   16.0970  -10.9730 C.3    31  CYS31       0.1808
     59  C        -36.5470   16.8950  -12.2630 C.2    31  CYS31       0.2602
     60  O        -37.4030   16.6110  -13.1000 O.2    31  CYS31      -0.2717
     61  CB       -35.0430   15.4640  -10.8430 C.3    31  CYS31       0.0970
     62  SG       -34.7270   14.1330  -11.9820 S.3    31  CYS31      -0.0800
     63  N        -35.7240   17.9240  -12.4000 N.am   32  SER32      -0.1938
     64  CA       -35.7650   18.7640  -13.5840 C.3    32  SER32       0.2055
     65  C        -34.4970   18.6460  -14.4070 C.2    32  SER32       0.2642
     66  O        -33.5160   19.3370  -14.1590 O.2    32  SER32      -0.2714
     67  CB       -35.9890   20.2170  -13.1900 C.3    32  SER32       0.2130
     68  OG       -37.2480   20.3720  -12.5710 O.3    32  SER32      -0.2179
     69  N        -34.5250   17.7700  -15.3950 N.am   33  LYS33      -0.1977
     70  CA       -33.4120   17.6500  -16.3140 C.3    33  LYS33       0.1596
     71  C        -33.7050   18.3890  -17.6020 C.2    33  LYS33       0.2287
     72  O        -33.1030   18.1270  -18.6260 O.2    33  LYS33      -0.2864
     73  CB       -33.1030   16.1850  -16.5740 C.3    33  LYS33       0.0298
     74  CG       -32.4510   15.5470  -15.3830 C.3    33  LYS33       0.0038
     75  CD       -32.2050   14.0830  -15.5550 C.3    33  LYS33       0.0206
     76  CE       -33.5170   13.3890  -15.6120 C.3    33  LYS33       0.1093
     77  NZ       -34.3020   13.6660  -14.4000 N.3    33  LYS33      -0.1314
     78  N        -33.7340   22.1100  -17.8300 N.3    35  HIS35      -0.1241
     79  CA       -33.5270   23.4790  -17.4100 C.3    35  HIS35       0.1621
     80  C        -33.6630   24.4710  -18.5470 C.2    35  HIS35       0.2264
     81  O        -33.3330   24.1690  -19.6850 O.2    35  HIS35      -0.2867
     82  CB       -32.1620   23.5880  -16.7660 C.3    35  HIS35       0.0745
     83  CG       -32.0390   22.7850  -15.5160 C.ar   35  HIS35       0.0817
     84  ND1      -32.6020   23.1850  -14.3250 N.ar   35  HIS35      -0.2268
     85  CD2      -31.4680   21.5830  -15.2790 C.ar   35  HIS35       0.1154
     86  CE1      -32.3500   22.2800  -13.3970 C.ar   35  HIS35       0.1986
     87  NE2      -31.6670   21.2950  -13.9510 N.ar   35  HIS35      -0.2212
     88  N        -27.1330   15.3960  -17.9350 N.3    46  ALA46      -0.1231
     89  CA       -27.1950   14.0820  -17.3190 C.3    46  ALA46       0.1694
     90  C        -25.8830   13.7910  -16.6080 C.2    46  ALA46       0.2593
     91  O        -24.8130   13.9980  -17.1690 O.2    46  ALA46      -0.2718
     92  CB       -27.4740   13.0260  -18.3560 C.3    46  ALA46       0.0304
     93  N        -25.9650   13.2950  -15.3810 N.am   47  GLY47      -0.1942
     94  CA       -24.7760   12.9910  -14.6100 C.3    47  GLY47       0.2014
     95  C        -25.0250   13.2480  -13.1470 C.2    47  GLY47       0.2639
     96  O        -26.1380   13.0720  -12.6850 O.2    47  GLY47      -0.2714
     97  N        -23.9960   13.6470  -12.4120 N.am   48  VAL48      -0.1963
     98  CA       -24.1870   13.9930  -11.0250 C.3    48  VAL48       0.1727
     99  C        -25.1520   15.1470  -11.0230 C.2    48  VAL48       0.2616
    100  O        -25.0070   16.0530  -11.8320 O.2    48  VAL48      -0.2715
    101  CB       -22.8900   14.4100  -10.3470 C.3    48  VAL48       0.0290
    102  CG1      -23.1510   14.7610   -8.9070 C.3    48  VAL48       0.0023
    103  CG2      -21.8770   13.3180  -10.4370 C.3    48  VAL48       0.0023
    104  N        -26.1500   15.1210  -10.1500 N.am   49  ALA49      -0.1963
    105  CA       -27.0930   16.2260  -10.0900 C.3    49  ALA49       0.1728
    106  C        -26.4330   17.4930   -9.5940 C.2    49  ALA49       0.2617
    107  O        -26.7810   18.5840  -10.0310 O.2    49  ALA49      -0.2715
    108  CB       -28.2540   15.8790   -9.2110 C.3    49  ALA49       0.0334
    109  N        -25.4620   17.3490   -8.6990 N.am   50  GLY50      -0.1940
    110  CA       -24.8960   18.5070   -8.0360 C.3    50  GLY50       0.2014
    111  C        -24.1770   19.3920   -9.0200 C.2    50  GLY50       0.2639
    112  O        -24.4170   20.6030   -9.1010 O.2    50  GLY50      -0.2714
    113  N        -23.3250   18.7530   -9.8110 N.am   51  ASP51      -0.1957
    114  CA       -22.5060   19.4420  -10.7830 C.3    51  ASP51       0.1840
    115  C        -23.3960   20.0580  -11.8390 C.2    51  ASP51       0.2622
    116  O        -23.0890   21.1030  -12.4070 O.2    51  ASP51      -0.2715
    117  CB       -21.5190   18.4680  -11.4070 C.3    51  ASP51       0.1450
    118  CG       -20.6290   17.8250  -10.3750 C.2    51  ASP51       0.3671
    119  OD1      -20.6860   18.2670   -9.2150 O.co2  51  ASP51      -0.2456
    120  OD2      -19.8690   16.8940  -10.7140 O.co2  51  ASP51      -0.2456
    121  N        -24.5250   19.4120  -12.0670 N.am   52  LEU52      -0.1963
    122  CA       -25.4500   19.8330  -13.0930 C.3    52  LEU52       0.1728
    123  C        -26.1910   21.0920  -12.6790 C.2    52  LEU52       0.2616
    124  O        -26.3170   22.0340  -13.4530 O.2    52  LEU52      -0.2715
    125  CB       -26.4330   18.7150  -13.3630 C.3    52  LEU52       0.0311
    126  CG       -27.2020   18.6590  -14.6680 C.3    52  LEU52       0.0022
    127  CD1      -27.5380   17.2050  -14.8550 C.3    52  LEU52       0.0001
    128  CD2      -28.4380   19.5310  -14.7040 C.3    52  LEU52       0.0001
    129  N        -26.6820   21.1060  -11.4460 N.am   53  GLU53      -0.1977
    130  CA       -27.3440   22.2880  -10.9170 C.3    53  GLU53       0.1602
    131  C        -26.3650   23.4440  -10.8490 C.2    53  GLU53       0.2287
    132  O        -26.7210   24.5990  -11.0990 O.2    53  GLU53      -0.2864
    133  CB       -27.9280   22.0080   -9.5360 C.3    53  GLU53       0.0415
    134  CG       -28.9900   20.9370   -9.5270 C.3    53  GLU53       0.1163
    135  CD       -30.2500   21.2830  -10.2540 C.2    53  GLU53       0.3649
    136  OE1      -30.5040   22.4790  -10.5590 O.co2  53  GLU53      -0.2457
    137  OE2      -31.0450   20.3460  -10.4220 O.co2  53  GLU53      -0.2457
    138  N        -26.4760    9.4080  -20.9360 N.3   124  GLY124     -0.1210
    139  CA       -26.8210    8.7130  -19.7120 C.3   124  GLY124      0.1956
    140  C        -26.8290    7.2120  -19.8630 C.2   124  GLY124      0.2612
    141  O        -26.2980    6.6740  -20.8330 O.2   124  GLY124     -0.2717
    142  N        -27.4070    6.5320  -18.8810 N.am  125  SER125     -0.1952
    143  CA       -27.5340    5.0860  -18.9350 C.3   125  SER125      0.1924
    144  C        -28.4330    4.6540  -20.0750 C.2   125  SER125      0.2314
    145  O        -28.2140    3.6180  -20.6900 O.2   125  SER125     -0.2863
    146  CB       -28.1040    4.5510  -17.6330 C.3   125  SER125      0.2116
    147  OG       -29.4510    4.9640  -17.4770 O.3   125  SER125     -0.2180
    148  N        -31.5530    1.9830  -14.0160 N.3   164  GLY164     -0.1225
    149  CA       -31.1730    3.3040  -13.5830 C.3   164  GLY164      0.1811
    150  C        -32.0510    4.3930  -14.1490 C.2   164  GLY164      0.2280
    151  O        -31.8050    5.5670  -13.8990 O.2   164  GLY164     -0.2866
@<TRIPOS>BOND
     1   138   139    1
     2   141   140    2
     3   145   144    2
     4   144   143    1
     5   140   139    1
     6   140   142   am
     7    81    80    2
     8   143   142    1
     9   143   146    1
    10     4     3    2
    11    72    71    2
    12    80    79    1
    13    92    89    1
    14     3     2    1
    15    88    89    1
    16    78    79    1
    17   146   147    1
    18    71    70    1
    19    79    82    1
    20    89    90    1
    21    91    90    2
    22     7     5    1
    23    82    83    1
    24     2     5    1
    25     2     1    1
    26    90    93   am
    27    73    70    1
    28    73    74    1
    29    70    69    1
    30     5     6    1
    31    76    75    1
    32    76    77    1
    33    75    74    1
    34    83    85   ar
    35    83    84   ar
    36    69    65   am
    37    93    94    1
    38    85    87   ar
    39   127   126    1
    40   128   126    1
    41   126   125    1
    42    94    95    1
    43    65    66    2
    44    65    64    1
    45    84    86   ar
    46   150   151    2
    47   150   149    1
    48   148   149    1
    49    87    86   ar
    50    64    67    1
    51    64    63    1
    52   124   123    2
    53   125   122    1
    54    67    68    1
    55    95    96    2
    56    95    97   am
    57    60    59    2
    58   122   123    1
    59   122   121    1
    60     8     9    1
    61   123   129   am
    62    18    16    1
    63    97    98    1
    64   116   115    2
    65    63    59   am
    66    59    58    1
    67   121   115   am
    68    15    16    2
    69    15    14    1
    70    62    61    1
    71    12     9    1
    72    12    13    1
    73   115   114    1
    74   100    99    2
    75    11    10    2
    76     9    10    1
    77    16    17    1
    78   129   130    1
    79   117   114    1
    80   117   118    1
    81    10    19   am
    82    14    13    1
    83   132   131    2
    84    98    99    1
    85    98   101    1
    86    99   104   am
    87    58    57    1
    88    58    61    1
    89   130   131    1
    90   130   133    1
    91   114   113    1
    92   120   118   ar
    93   136   135   ar
    94   103   101    1
    95   137   135   ar
    96   118   119   ar
    97   101   102    1
    98   135   134    1
    99   104   105    1
   100   105   106    1
   101   105   108    1
   102    19    20    1
   103   107   106    2
   104   113   111   am
   105    29    28    1
   106   106   109   am
   107   133   134    1
   108    20    21    1
   109    20    23    1
   110   112   111    2
   111   111   110    1
   112    28    30    1
   113    28    25    1
   114    21    24   am
   115    21    22    2
   116   109   110    1
   117    24    25    1
   118    25    26    1
   119    27    26    2
   120    52    51    2
   121    43    42    2
   122    26    31   am
   123    41    42    1
   124    41    40    1
   125    51    50    1
   126    53    50    1
   127    53    54    1
   128    40    33   am
   129    56    54   ar
   130    31    32    1
   131    50    49    1
   132    54    55   ar
   133    33    32    1
   134    33    34    2
   135    49    46   am
   136    32    35    1
   137    44    45    1
   138    46    45    1
   139    46    47    2
   140    45    48    1
   141    35    36    1
   142    36    37    1
   143    37    38   ar
   144    37    39   ar
