@<TRIPOS>MOLECULE
tmp/5fmqA00.pdb
 180 171 0 0 0
SMALL
GASTEIGER

@<TRIPOS>ATOM
      1  N         78.2550  115.8830   25.0970 N.3    72  PHE72      -0.1227
      2  CA        78.1480  114.4230   25.1560 C.3    72  PHE72       0.1736
      3  C         79.5130  113.7710   24.9560 C.2    72  PHE72       0.2596
      4  O         80.3700  114.3110   24.2510 O.2    72  PHE72      -0.2718
      5  CB        77.1500  113.9050   24.1080 C.3    72  PHE72       0.0547
      6  CG        77.5460  114.1860   22.6840 C.ar   72  PHE72      -0.0202
      7  CD1       77.1620  115.3700   22.0600 C.ar   72  PHE72      -0.0042
      8  CD2       78.2880  113.2590   21.9590 C.ar   72  PHE72      -0.0042
      9  CE1       77.5220  115.6300   20.7460 C.ar   72  PHE72      -0.0003
     10  CE2       78.6520  113.5120   20.6460 C.ar   72  PHE72      -0.0003
     11  CZ        78.2660  114.6980   20.0370 C.ar   72  PHE72      -0.0000
     12  N         79.6980  112.6080   25.5760 N.am   73  SER73      -0.1938
     13  CA        80.9330  111.8420   25.4540 C.3    73  SER73       0.2055
     14  C         80.7940  110.7980   24.3430 C.2    73  SER73       0.2643
     15  O         79.7830  110.0960   24.2710 O.2    73  SER73      -0.2714
     16  CB        81.2700  111.1620   26.7820 C.3    73  SER73       0.2130
     17  OG        82.5650  110.5860   26.7440 O.3    73  SER73      -0.2179
     18  N         81.8070  110.7140   23.4790 N.am   74  PHE74      -0.1973
     19  CA        81.8800  109.6900   22.4280 C.3    74  PHE74       0.1639
     20  C         83.3320  109.2510   22.2250 C.2    74  PHE74       0.2290
     21  O         84.1870  110.0720   21.8920 O.2    74  PHE74      -0.2864
     22  CB        81.2930  110.2120   21.1160 C.3    74  PHE74       0.0560
     23  CG        81.3650  109.2200   19.9890 C.ar   74  PHE74      -0.0200
     24  CD1       80.5280  108.1100   19.9750 C.ar   74  PHE74      -0.0042
     25  CD2       82.2800  109.3810   18.9510 C.ar   74  PHE74      -0.0042
     26  CE1       80.5930  107.1830   18.9460 C.ar   74  PHE74      -0.0003
     27  CE2       82.3490  108.4560   17.9180 C.ar   74  PHE74      -0.0003
     28  CZ        81.5030  107.3570   17.9150 C.ar   74  PHE74      -0.0000
     29  N         79.4700  121.2710   20.7300 N.3    81  ARG81      -0.1245
     30  CA        79.0270  121.8760   19.4680 C.3    81  ARG81       0.1563
     31  C         78.9990  123.4060   19.5810 C.2    81  ARG81       0.2260
     32  O         78.0230  123.9880   20.0630 O.2    81  ARG81      -0.2867
     33  CB        77.6510  121.3400   19.0460 C.3    81  ARG81       0.0307
     34  CG        77.3370  121.5670   17.5700 C.3    81  ARG81       0.0489
     35  CD        75.9160  122.0580   17.3400 C.3    81  ARG81       0.2205
     36  NE        74.9060  121.0680   17.7140 N.pl3  81  ARG81      -0.0865
     37  CZ        73.5870  121.2790   17.7130 C.cat  81  ARG81       0.5346
     38  NH1       73.0750  122.4600   17.3640 N.pl3  81  ARG81       0.1354
     39  NH2       72.7670  120.2940   18.0720 N.pl3  81  ARG81       0.1354
     40  N         71.8060  120.2180   13.3830 N.3    86  SER86      -0.1217
     41  CA        71.4610  119.0490   12.5720 C.3    86  SER86       0.1889
     42  C         70.1180  118.4350   12.9590 C.2    86  SER86       0.2288
     43  O         69.5100  118.8120   13.9650 O.2    86  SER86      -0.2866
     44  CB        72.5660  117.9910   12.6790 C.3    86  SER86       0.2089
     45  OG        72.7140  117.5320   14.0130 O.3    86  SER86      -0.2183
     46  N         68.0980  114.4120   13.0290 N.3    88  LYS88      -0.1245
     47  CA        68.3100  112.9640   13.0080 C.3    88  LYS88       0.1561
     48  C         67.6780  112.3470   11.7650 C.2    88  LYS88       0.2260
     49  O         66.6850  112.8560   11.2430 O.2    88  LYS88      -0.2867
     50  CB        67.7070  112.3020   14.2510 C.3    88  LYS88       0.0271
     51  CG        68.2950  112.7570   15.5810 C.3    88  LYS88       0.0035
     52  CD        69.4820  111.9070   16.0110 C.3    88  LYS88       0.0206
     53  CE        69.8470  112.1750   17.4600 C.3    88  LYS88       0.1093
     54  NZ        70.7490  111.1360   18.0330 N.3    88  LYS88      -0.1314
     55  N         71.7970  106.4910   13.3640 N.3   104  ARG104     -0.1245
     56  CA        71.1920  107.8220   13.2960 C.3   104  ARG104      0.1563
     57  C         72.1700  108.7660   12.6010 C.2   104  ARG104      0.2260
     58  O         73.1790  109.1610   13.1880 O.2   104  ARG104     -0.2867
     59  CB        70.8220  108.3530   14.6960 C.3   104  ARG104      0.0307
     60  CG        69.3830  108.0770   15.1210 C.3   104  ARG104      0.0489
     61  CD        69.1370  106.6130   15.4550 C.3   104  ARG104      0.2205
     62  NE        69.5340  106.2640   16.8210 N.pl3 104  ARG104     -0.0865
     63  CZ        69.5110  105.0300   17.3330 C.cat 104  ARG104      0.5346
     64  NH1       69.1220  103.9840   16.6020 N.pl3 104  ARG104      0.1354
     65  NH2       69.8860  104.8320   18.5930 N.pl3 104  ARG104      0.1354
     66  N         73.1670  112.3670   11.1400 N.3   106  HIS106     -0.1241
     67  CA        72.8760  113.7600   11.4880 C.3   106  HIS106      0.1621
     68  C         73.0460  114.6640   10.2710 C.2   106  HIS106      0.2264
     69  O         74.1700  115.0040    9.8880 O.2   106  HIS106     -0.2867
     70  CB        73.7780  114.2240   12.6270 C.3   106  HIS106      0.0745
     71  CG        73.4880  113.5520   13.9310 C.ar  106  HIS106      0.0817
     72  ND1       72.9480  114.2190   15.0100 N.ar  106  HIS106     -0.2268
     73  CD2       73.6610  112.2700   14.3300 C.ar  106  HIS106      0.1154
     74  CE1       72.8090  113.3780   16.0190 C.ar  106  HIS106      0.1986
     75  NE2       73.2360  112.1890   15.6330 N.ar  106  HIS106     -0.2212
     76  N         77.8420  121.1630   11.0300 N.3   110  GLU110     -0.1245
     77  CA        78.0900  121.3590   12.4630 C.3   110  GLU110      0.1567
     78  C         79.5810  121.4870   12.7690 C.2   110  GLU110      0.2260
     79  O         80.4000  120.7710   12.1900 O.2   110  GLU110     -0.2867
     80  CB        77.5130  120.1910   13.2640 C.3   110  GLU110      0.0388
     81  CG        75.9950  120.1250   13.2660 C.3   110  GLU110      0.1160
     82  CD        75.4620  119.0580   14.1980 C.2   110  GLU110      0.3649
     83  OE1       75.9430  117.9060   14.1280 O.co2 110  GLU110     -0.2457
     84  OE2       74.5490  119.3580   14.9970 O.co2 110  GLU110     -0.2457
     85  N         82.2870  121.2090   15.8850 N.3   112  PHE112     -0.1241
     86  CA        82.5000  120.6660   17.2310 C.3   112  PHE112      0.1605
     87  C         83.8820  121.0010   17.7760 C.2   112  PHE112      0.2264
     88  O         84.7810  121.4010   17.0320 O.2   112  PHE112     -0.2867
     89  CB        82.3230  119.1470   17.2210 C.3   112  PHE112      0.0534
     90  CG        80.9060  118.7080   17.0250 C.ar  112  PHE112     -0.0203
     91  CD1       80.3940  118.5240   15.7450 C.ar  112  PHE112     -0.0042
     92  CD2       80.0780  118.4820   18.1200 C.ar  112  PHE112     -0.0042
     93  CE1       79.0810  118.1190   15.5610 C.ar  112  PHE112     -0.0003
     94  CE2       78.7660  118.0770   17.9420 C.ar  112  PHE112     -0.0003
     95  CZ        78.2680  117.8970   16.6610 C.ar  112  PHE112     -0.0000
     96  N         82.1100  119.2730   10.3870 N.3   125  LYS125     -0.1245
     97  CA        81.3650  118.1180    9.8690 C.3   125  LYS125      0.1561
     98  C         80.2210  118.5380    8.9350 C.2   125  LYS125      0.2260
     99  O         79.6670  119.6290    9.0700 O.2   125  LYS125     -0.2867
    100  CB        80.8030  117.3080   11.0530 C.3   125  LYS125      0.0271
    101  CG        79.8010  116.2180   10.6840 C.3   125  LYS125      0.0035
    102  CD        79.0910  115.6170   11.8830 C.3   125  LYS125      0.0206
    103  CE        77.7760  114.9810   11.4520 C.3   125  LYS125      0.1093
    104  NZ        77.9590  113.7660   10.6090 N.3   125  LYS125     -0.1314
    105  N         82.8840  109.1950   13.9650 N.3   153  PHE153     -0.1241
    106  CA        81.8530  110.1980   14.2670 C.3   153  PHE153      0.1605
    107  C         81.2710  110.8750   13.0190 C.2   153  PHE153      0.2264
    108  O         80.0900  111.2300   13.0040 O.2   153  PHE153     -0.2867
    109  CB        82.4120  111.2600   15.2230 C.3   153  PHE153      0.0534
    110  CG        81.3860  112.2480   15.7000 C.ar  153  PHE153     -0.0203
    111  CD1       80.5550  111.9430   16.7720 C.ar  153  PHE153     -0.0042
    112  CD2       81.2430  113.4820   15.0710 C.ar  153  PHE153     -0.0042
    113  CE1       79.6060  112.8530   17.2120 C.ar  153  PHE153     -0.0003
    114  CE2       80.2930  114.3950   15.5040 C.ar  153  PHE153     -0.0003
    115  CZ        79.4720  114.0800   16.5750 C.ar  153  PHE153     -0.0000
    116  N         80.7950  109.3950   10.1950 N.3   155  GLN155     -0.1245
    117  CA        79.9400  108.3660    9.5880 C.3   155  GLN155      0.1566
    118  C         80.1310  108.2360    8.0690 C.2   155  GLN155      0.2260
    119  O         79.1960  107.8660    7.3590 O.2   155  GLN155     -0.2867
    120  CB        78.4540  108.5930    9.9260 C.3   155  GLN155      0.0367
    121  CG        78.1390  108.6810   11.4110 C.3   155  GLN155      0.0905
    122  CD        76.6910  109.0640   11.6730 C.2   155  GLN155      0.2608
    123  OE1       76.2060  110.0730   11.1590 O.2   155  GLN155     -0.2717
    124  NE2       75.9930  108.2640   12.4770 N.am  155  GLN155     -0.0878
    125  N         75.9440   99.6810   20.9210 N.3   178  ASN178     -0.1240
    126  CA        75.2100  100.2890   19.8040 C.3   178  ASN178      0.1653
    127  C         76.1220  100.4810   18.5770 C.2   178  ASN178      0.2266
    128  O         77.3260  100.6890   18.7420 O.2   178  ASN178     -0.2867
    129  CB        74.5470  101.6160   20.2200 C.3   178  ASN178      0.1155
    130  CG        75.5520  102.6980   20.5810 C.2   178  ASN178      0.2627
    131  OD1       76.5750  102.4240   21.2050 O.2   178  ASN178     -0.2716
    132  ND2       75.2550  103.9370   20.2030 N.am  178  ASN178     -0.0877
    133  N         77.4010  102.5890   16.5480 N.3   180  MET180     -0.1230
    134  CA        78.5200  103.5460   16.5380 C.3   180  MET180      0.1702
    135  C         79.6870  103.0780   17.4110 C.2   180  MET180      0.2592
    136  O         80.8440  103.1750   16.9970 O.2   180  MET180     -0.2718
    137  CB        78.0640  104.9410   16.9830 C.3   180  MET180      0.0401
    138  CG        77.2180  105.6950   15.9640 C.3   180  MET180      0.0596
    139  SD        78.1740  106.4170   14.6130 S.3   180  MET180     -0.1393
    140  CE        77.8720  105.2470   13.2920 C.3   180  MET180      0.0692
    141  N         79.3820  102.5820   18.6100 N.am  181  HIS181     -0.1976
    142  CA        80.4080  102.0250   19.5070 C.3   181  HIS181      0.1656
    143  C         80.9960  100.7020   19.0050 C.2   181  HIS181      0.2291
    144  O         82.1180  100.3530   19.3730 O.2   181  HIS181     -0.2864
    145  CB        79.8680  101.8530   20.9330 C.3   181  HIS181      0.0771
    146  CG        79.7820  103.1340   21.7030 C.ar  181  HIS181      0.0820
    147  ND1       78.7730  104.0530   21.5110 N.ar  181  HIS181     -0.2267
    148  CD2       80.5850  103.6520   22.6620 C.ar  181  HIS181      0.1154
    149  CE1       78.9560  105.0800   22.3220 C.ar  181  HIS181      0.1986
    150  NE2       80.0470  104.8610   23.0310 N.ar  181  HIS181     -0.2212
    151  N         71.9370  105.4310   31.3340 N.3   252  ARG252     -0.1245
    152  CA        72.0070  106.1510   30.0670 C.3   252  ARG252      0.1563
    153  C         71.4620  107.5560   30.2910 C.2   252  ARG252      0.2260
    154  O         70.2450  107.7680   30.2980 O.2   252  ARG252     -0.2867
    155  CB        71.2110  105.4230   28.9810 C.3   252  ARG252      0.0307
    156  CG        71.7030  104.0130   28.7110 C.3   252  ARG252      0.0489
    157  CD        70.9160  103.3610   27.5900 C.3   252  ARG252      0.2205
    158  NE        71.5460  102.1230   27.1350 N.pl3 252  ARG252     -0.0865
    159  CZ        71.2030  101.4420   26.0390 C.cat 252  ARG252      0.5346
    160  NH1       70.2150  101.8590   25.2440 N.pl3 252  ARG252      0.1354
    161  NH2       71.8600  100.3260   25.7280 N.pl3 252  ARG252      0.1354
    162  N         66.3880  114.2170   24.2310 N.3   258  GLY258     -0.1210
    163  CA        66.4240  112.7480   24.1660 C.3   258  GLY258      0.1956
    164  C         67.7170  112.1340   23.6410 C.2   258  GLY258      0.2612
    165  O         67.7430  110.9410   23.3310 O.2   258  GLY258     -0.2717
    166  N         68.7840  112.9320   23.5490 N.am  259  ASN259     -0.1960
    167  CA        70.1060  112.4540   23.1130 C.3   259  ASN259      0.1819
    168  C         70.9160  111.9010   24.2800 C.2   259  ASN259      0.2621
    169  O         70.9720  112.5210   25.3400 O.2   259  ASN259     -0.2715
    170  CB        70.9040  113.5860   22.4450 C.3   259  ASN259      0.1195
    171  CG        70.5580  113.7620   20.9800 C.2   259  ASN259      0.2630
    172  OD1       70.6650  112.8200   20.2010 O.2   259  ASN259     -0.2716
    173  ND2       70.1650  114.9720   20.5920 N.am  259  ASN259     -0.0877
    174  N         71.5680  110.7590   24.0660 N.am  260  VAL260     -0.1977
    175  CA        72.3780  110.1080   25.1020 C.3   260  VAL260      0.1596
    176  C         73.7010  110.8600   25.2730 C.2   260  VAL260      0.2287
    177  O         74.6130  110.7140   24.4550 O.2   260  VAL260     -0.2864
    178  CB        72.6540  108.6210   24.7640 C.3   260  VAL260      0.0276
    179  CG1       73.5810  107.9820   25.7970 C.3   260  VAL260      0.0022
    180  CG2       71.3470  107.8440   24.6670 C.3   260  VAL260      0.0022
@<TRIPOS>BOND
     1   119   118    2
     2   118   117    1
     3    98    99    2
     4    98    97    1
     5   117   120    1
     6   117   116    1
     7    97    96    1
     8    97   100    1
     9    69    68    2
    10   120   121    1
    11    68    67    1
    12   104   103    1
    13   101   100    1
    14   101   102    1
    15    76    77    1
    16    66    67    1
    17   123   122    2
    18    49    48    2
    19   121   122    1
    20   103   102    1
    21    67    70    1
    22   122   124   am
    23    48    47    1
    24    79    78    2
    25    77    78    1
    26    77    80    1
    27    41    44    1
    28    41    42    1
    29    41    40    1
    30    57    58    2
    31    57    56    1
    32    70    71    1
    33    44    45    1
    34    42    43    2
    35   108   107    2
    36    47    46    1
    37    47    50    1
    38   107   106    1
    39    80    81    1
    40    81    82    1
    41   140   139    1
    42    56    55    1
    43    56    59    1
    44    71    73   ar
    45    71    72   ar
    46   105   106    1
    47    83    82   ar
    48    82    84   ar
    49    50    51    1
    50   106   109    1
    51    73    75   ar
    52   139   138    1
    53    59    60    1
    54    72    74   ar
    55   112   114   ar
    56   112   110   ar
    57    60    61    1
    58   109   110    1
    59    61    62    1
    60   114   115   ar
    61    93    91   ar
    62    93    95   ar
    63    51    52    1
    64    75    74   ar
    65   110   111   ar
    66    91    90   ar
    67    85    86    1
    68   138   137    1
    69    52    53    1
    70   134   133    1
    71   134   137    1
    72   134   135    1
    73   115   113   ar
    74    64    63    1
    75    95    94   ar
    76   111   113   ar
    77    62    63    2
    78   136   135    2
    79    90    89    1
    80    90    92   ar
    81    88    87    2
    82    89    86    1
    83    86    87    1
    84    63    65    1
    85    35    34    1
    86    35    36    1
    87    38    37    1
    88   135   141   am
    89    53    54    1
    90    34    33    1
    91    37    36    2
    92    37    39    1
    93    28    27   ar
    94    28    26   ar
    95    27    25   ar
    96    94    92   ar
    97   127   128    2
    98   127   126    1
    99   141   142    1
   100    26    24   ar
   101    25    23   ar
   102   143   144    2
   103   143   142    1
   104    33    30    1
   105    30    31    1
   106    30    29    1
   107   142   145    1
   108    31    32    2
   109   126   129    1
   110   126   125    1
   111    24    23   ar
   112    23    22    1
   113    11    10   ar
   114    11     9   ar
   115   172   171    2
   116   132   130   am
   117   129   130    1
   118   130   131    2
   119   173   171   am
   120    10     8   ar
   121     9     7   ar
   122   145   146    1
   123   171   170    1
   124    22    19    1
   125   147   146   ar
   126   147   149   ar
   127   146   148   ar
   128    21    20    2
   129     8     6   ar
   130     7     6   ar
   131    20    19    1
   132   149   150   ar
   133    19    18    1
   134   170   167    1
   135   148   150   ar
   136     6     5    1
   137   167   166    1
   138   167   168    1
   139   165   164    2
   140    18    14   am
   141   166   164   am
   142   164   163    1
   143   174   168   am
   144   174   175    1
   145     5     2    1
   146   163   162    1
   147     4     3    2
   148    15    14    2
   149   168   169    2
   150    14    13    1
   151   177   176    2
   152   180   178    1
   153   178   175    1
   154   178   179    1
   155     3     2    1
   156     3    12   am
   157     1     2    1
   158   175   176    1
   159   160   159    1
   160    13    12    1
   161    13    16    1
   162   161   159    1
   163   159   158    2
   164    17    16    1
   165   158   157    1
   166   157   156    1
   167   156   155    1
   168   155   152    1
   169   152   153    1
   170   152   151    1
   171   153   154    2
