@<TRIPOS>MOLECULE
tmp/5fmuC00.pdb
 88 83 0 0 0
SMALL
GASTEIGER

@<TRIPOS>ATOM
      1  N        -11.6770    9.4050   11.9380 N.3    19  ARG19      -0.1231
      2  CA       -11.1830   10.4930   12.7690 C.3    19  ARG19       0.1679
      3  C        -10.1780   11.2840   11.9480 C.2    19  ARG19       0.2434
      4  O         -9.5910   10.7450   11.0110 O.2    19  ARG19      -0.2733
      5  CB       -10.5040    9.9430   14.0270 C.3    19  ARG19       0.0321
      6  CG        -9.3940    8.9730   13.6540 C.3    19  ARG19       0.0489
      7  CD        -8.4130    8.6220   14.7730 C.3    19  ARG19       0.2205
      8  NE        -8.9970    7.7670   15.7910 N.pl3  19  ARG19      -0.0865
      9  CZ        -8.3770    6.7420   16.3750 C.cat  19  ARG19       0.5346
     10  NH1       -7.1360    6.3910   16.0410 N.pl3  19  ARG19       0.1354
     11  NH2       -9.0220    6.0550   17.2990 N.pl3  19  ARG19       0.1354
     12  N         -9.9680   12.5640   12.2830 N.am   20  PRO20      -0.2729
     13  CA       -10.6780   13.3700   13.2760 C.3    20  PRO20       0.1401
     14  C        -12.0610   13.7450   12.7420 C.2    20  PRO20       0.2269
     15  O        -12.3560   13.4460   11.5830 O.2    20  PRO20      -0.2865
     16  CB        -9.7840   14.5940   13.4140 C.3    20  PRO20       0.0296
     17  CG        -9.2370   14.7710   12.0190 C.3    20  PRO20       0.0237
     18  CD        -8.9860   13.3680   11.5310 C.3    20  PRO20       0.0939
     19  N         -2.7210   21.5170   11.8340 N.3    33  ARG33      -0.1245
     20  CA        -2.6210   20.2780   12.6010 C.3    33  ARG33       0.1563
     21  C         -3.7830   19.3500   12.2690 C.2    33  ARG33       0.2260
     22  O         -3.6370   18.1290   12.2250 O.2    33  ARG33      -0.2867
     23  CB        -2.5980   20.5680   14.1090 C.3    33  ARG33       0.0307
     24  CG        -2.4400   19.3220   14.9780 C.3    33  ARG33       0.0489
     25  CD        -2.6700   19.7420   16.4560 C.3    33  ARG33       0.2205
     26  NE        -4.0970   20.0760   16.5800 N.pl3  33  ARG33      -0.0865
     27  CZ        -4.9280   19.1870   17.1600 C.cat  33  ARG33       0.5346
     28  NH1       -4.4100   18.0800   17.6450 N.pl3  33  ARG33       0.1354
     29  NH2       -6.2120   19.4520   17.2250 N.pl3  33  ARG33       0.1354
     30  N         -3.5250   15.7060   10.7010 N.3    37  ASP37      -0.1239
     31  CA        -4.2050   14.5580   11.3050 C.3    37  ASP37       0.1674
     32  C         -4.9910   13.7430   10.2690 C.2    37  ASP37       0.2266
     33  O         -4.9920   12.5090   10.3000 O.2    37  ASP37      -0.2867
     34  CB        -5.1660   15.0170   12.4140 C.3    37  ASP37       0.1410
     35  CG        -4.4510   15.4860   13.6870 C.2    37  ASP37       0.3668
     36  OD1       -3.2530   15.1770   13.8870 O.co2  37  ASP37      -0.2456
     37  OD2       -5.1190   16.1610   14.5040 O.co2  37  ASP37      -0.2456
     38  N         -2.3590   12.0320    7.7710 N.3    40  THR40      -0.1203
     39  CA        -1.6640   10.8860    8.3700 C.3    40  THR40       0.1994
     40  C         -2.6210    9.7310    8.6830 C.2    40  THR40       0.2617
     41  O         -2.2260    8.5770    8.5800 O.2    40  THR40      -0.2717
     42  CB        -0.8800   11.2570    9.6530 C.3    40  THR40       0.1784
     43  OG1       -1.7600   11.8270   10.6250 O.3    40  THR40      -0.2211
     44  CG2        0.2410   12.2330    9.3190 C.3    40  THR40       0.0376
     45  N         -3.8740   10.0310    9.0270 N.am   41  GLU41      -0.1979
     46  CA        -4.8520    8.9710    9.2510 C.3    41  GLU41       0.1602
     47  C         -5.1410    8.2240    7.9610 C.2    41  GLU41       0.2287
     48  O         -5.1860    6.9950    7.9490 O.2    41  GLU41      -0.2864
     49  CB        -6.1540    9.5270    9.8380 C.3    41  GLU41       0.0415
     50  CG        -7.1010    8.4540   10.4140 C.3    41  GLU41       0.1163
     51  CD        -6.6240    7.9130   11.7720 C.2    41  GLU41       0.3649
     52  OE1       -5.5320    8.3070   12.2240 O.co2  41  GLU41      -0.2457
     53  OE2       -7.3450    7.0990   12.3900 O.co2  41  GLU41      -0.2457
     54  N         -2.1360    5.9470    7.3970 N.3    44  ARG44      -0.1245
     55  CA        -2.0170    4.8190    8.3100 C.3    44  ARG44       0.1563
     56  C         -3.1320    3.8030    8.1500 C.2    44  ARG44       0.2260
     57  O         -2.9170    2.6160    8.4010 O.2    44  ARG44      -0.2867
     58  CB        -1.9840    5.3200    9.7520 C.3    44  ARG44       0.0307
     59  CG        -0.7170    6.0600   10.0820 C.3    44  ARG44       0.0489
     60  CD        -0.6850    6.4590   11.5430 C.3    44  ARG44       0.2205
     61  NE         0.6380    6.9730   11.9020 N.pl3  44  ARG44      -0.0865
     62  CZ         0.8640    8.2100   12.3300 C.cat  44  ARG44       0.5346
     63  NH1       -0.1470    9.0580   12.4660 N.pl3  44  ARG44       0.1354
     64  NH2        2.0990    8.5920   12.6330 N.pl3  44  ARG44       0.1354
     65  N          4.6400   13.0620   12.4890 N.3    59  LYS59      -0.1231
     66  CA         4.2230   13.5110   13.8120 C.3    59  LYS59       0.1693
     67  C          3.8770   14.9840   13.7720 C.2    59  LYS59       0.2593
     68  O          4.7090   15.8090   13.3940 O.2    59  LYS59      -0.2718
     69  CB         5.3200   13.2300   14.8430 C.3    59  LYS59       0.0285
     70  CG         5.8030   11.7910   14.7990 C.3    59  LYS59       0.0035
     71  CD         6.4780   11.3690   16.0930 C.3    59  LYS59       0.0206
     72  CE         6.8420    9.8920   16.0460 C.3    59  LYS59       0.1093
     73  NZ         5.7160    9.0630   15.5210 N.3    59  LYS59      -0.1314
     74  N          2.6390   15.3010   14.1520 N.am   60  SER60      -0.1938
     75  CA         2.1540   16.6750   14.1810 C.3    60  SER60       0.2055
     76  C          3.1120   17.5670   14.9600 C.2    60  SER60       0.2642
     77  O          3.3800   18.7040   14.5670 O.2    60  SER60      -0.2714
     78  CB         0.7520   16.7410   14.8000 C.3    60  SER60       0.2130
     79  OG        -0.1890   16.0570   14.0330 O.3    60  SER60      -0.2179
     80  N          3.6350   17.0260   16.0550 N.am   61  GLU61      -0.1976
     81  CA         4.5900   17.7340   16.8980 C.3    61  GLU61       0.1602
     82  C          5.7800   18.2920   16.1090 C.2    61  GLU61       0.2287
     83  O          6.2480   19.3940   16.3900 O.2    61  GLU61      -0.2864
     84  CB         5.0910   16.8050   18.0070 C.3    61  GLU61       0.0415
     85  CG         4.1080   16.5380   19.1500 C.3    61  GLU61       0.1163
     86  CD         3.1830   15.4050   18.8950 C.2    61  GLU61       0.3649
     87  OE1        3.1940   14.8540   17.7900 O.co2  61  GLU61      -0.2457
     88  OE2        2.4610   15.0450   19.7890 O.co2  61  GLU61      -0.2457
@<TRIPOS>BOND
     1    54    55    1
     2    38    39    1
     3    48    47    2
     4    47    46    1
     5    56    55    1
     6    56    57    2
     7    55    58    1
     8    39    40    1
     9    39    42    1
    10    41    40    2
    11    40    45   am
    12    45    46    1
    13    46    49    1
    14    44    42    1
    15    42    43    1
    16    58    59    1
    17    49    50    1
    18    59    60    1
    19    32    33    2
    20    32    31    1
    21    50    51    1
    22    30    31    1
    23     4     3    2
    24    31    34    1
    25    18    17    1
    26    18    12    1
    27    60    61    1
    28    15    14    2
    29    51    52   ar
    30    51    53   ar
    31    19    20    1
    32    61    62    2
    33     1     2    1
    34     3    12   am
    35     3     2    1
    36    17    16    1
    37    22    21    2
    38    21    20    1
    39    12    13    1
    40    62    63    1
    41    62    64    1
    42    34    35    1
    43    65    66    1
    44    20    23    1
    45    14    13    1
    46     2     5    1
    47    13    16    1
    48    68    67    2
    49     6     5    1
    50     6     7    1
    51    35    36   ar
    52    35    37   ar
    53    67    66    1
    54    67    74   am
    55    66    69    1
    56    79    78    1
    57    23    24    1
    58    74    75    1
    59    75    78    1
    60    75    76    1
    61    77    76    2
    62     7     8    1
    63    70    69    1
    64    70    71    1
    65    76    80   am
    66    24    25    1
    67    73    72    1
    68     8     9    2
    69    10     9    1
    70    72    71    1
    71    80    81    1
    72    82    83    2
    73    82    81    1
    74     9    11    1
    75    25    26    1
    76    26    27    2
    77    81    84    1
    78    27    29    1
    79    27    28    1
    80    87    86   ar
    81    84    85    1
    82    86    85    1
    83    86    88   ar
