@<TRIPOS>MOLECULE
tmp/5fn0C01.pdb
 162 153 0 0 0
SMALL
GASTEIGER

@<TRIPOS>ATOM
      1  N         -3.2520   24.7440  -39.7150 N.3    51  ALA51      -0.1245
      2  CA        -4.2700   25.3370  -40.5790 C.3    51  ALA51       0.1562
      3  C         -5.5620   25.3980  -39.7570 C.2    51  ALA51       0.2260
      4  O         -6.1980   24.3650  -39.4690 O.2    51  ALA51      -0.2867
      5  CB        -4.4760   24.4990  -41.8240 C.3    51  ALA51       0.0290
      6  N         -4.5310   26.8560  -52.5560 N.3    79  ARG79      -0.1245
      7  CA        -3.3430   25.9970  -52.6630 C.3    79  ARG79       0.1563
      8  C         -2.5000   26.3130  -53.8850 C.2    79  ARG79       0.2260
      9  O         -3.0130   26.3610  -55.0080 O.2    79  ARG79      -0.2867
     10  CB        -3.6400   24.4790  -52.5640 C.3    79  ARG79       0.0307
     11  CG        -4.6850   23.9020  -53.5170 C.3    79  ARG79       0.0489
     12  CD        -4.3730   22.4520  -53.8740 C.3    79  ARG79       0.2205
     13  NE        -5.0670   21.4390  -53.0630 N.pl3  79  ARG79      -0.0865
     14  CZ        -6.3100   21.0000  -53.2850 C.cat  79  ARG79       0.5346
     15  NH1       -7.0510   21.5350  -54.2530 N.pl3  79  ARG79       0.1354
     16  NH2       -6.8320   20.0460  -52.5190 N.pl3  79  ARG79       0.1354
     17  N         -9.2620   28.3630  -52.3130 N.3    93  TYR93      -0.1241
     18  CA       -10.0460   27.4330  -51.4870 C.3    93  TYR93       0.1605
     19  C        -11.5440   27.7620  -51.4820 C.2    93  TYR93       0.2264
     20  O        -12.3630   26.8450  -51.3240 O.2    93  TYR93      -0.2867
     21  CB        -9.5170   27.3190  -50.0400 C.3    93  TYR93       0.0534
     22  CG        -8.2280   26.5400  -49.8800 C.ar   93  TYR93      -0.0201
     23  CD1       -8.0550   25.3000  -50.4940 C.ar   93  TYR93      -0.0009
     24  CD2       -7.2040   27.0100  -49.0600 C.ar   93  TYR93      -0.0009
     25  CE1       -6.8720   24.5760  -50.3430 C.ar   93  TYR93       0.0417
     26  CE2       -6.0100   26.2990  -48.9110 C.ar   93  TYR93       0.0417
     27  CZ        -5.8550   25.0770  -49.5440 C.ar   93  TYR93       0.1957
     28  OH        -4.6960   24.3600  -49.3730 O.3    93  TYR93      -0.2866
     29  N         -8.1840   29.9280  -44.7730 N.3   101  ILE101     -0.1245
     30  CA        -7.6850   29.1260  -43.6480 C.3   101  ILE101      0.1561
     31  C         -6.5440   29.8930  -43.0270 C.2   101  ILE101      0.2260
     32  O         -6.0500   30.8240  -43.6510 O.2   101  ILE101     -0.2867
     33  CB        -7.3640   27.6560  -44.0000 C.3   101  ILE101      0.0252
     34  CG1       -6.2770   27.5260  -45.0770 C.3   101  ILE101      0.0019
     35  CG2       -8.6250   26.9350  -44.4240 C.3   101  ILE101      0.0019
     36  CD1       -5.7730   26.1220  -45.3250 C.3   101  ILE101      0.0001
     37  N         -1.2290   27.9330  -49.3870 N.3   208  LEU208     -0.1245
     38  CA        -0.7250   26.6480  -48.9160 C.3   208  LEU208      0.1561
     39  C         -0.0310   26.0030  -50.1420 C.2   208  LEU208      0.2260
     40  O         -0.6880   25.4070  -51.0010 O.2   208  LEU208     -0.2867
     41  CB        -1.8740   25.7750  -48.3730 C.3   208  LEU208      0.0270
     42  CG        -1.5080   24.6280  -47.4390 C.3   208  LEU208      0.0019
     43  CD1       -2.6820   24.2710  -46.5410 C.3   208  LEU208      0.0001
     44  CD2       -1.1170   23.3940  -48.2200 C.3   208  LEU208      0.0001
     45  N          2.1440   23.4110  -52.2940 N.3   210  ILE210     -0.1245
     46  CA         2.2710   21.9480  -52.3240 C.3   210  ILE210      0.1561
     47  C          3.0410   21.4940  -53.6180 C.2   210  ILE210      0.2260
     48  O          2.8510   22.0540  -54.7000 O.2   210  ILE210     -0.2867
     49  CB         0.9310   21.1650  -52.0550 C.3   210  ILE210      0.0252
     50  CG1        0.4770   20.3240  -53.2650 C.3   210  ILE210      0.0019
     51  CG2       -0.2070   22.0590  -51.5350 C.3   210  ILE210      0.0019
     52  CD1       -0.8860   19.7790  -53.1820 C.3   210  ILE210      0.0001
     53  N          4.9980   20.1140  -48.6230 N.3   219  ILE219     -0.1245
     54  CA         4.0620   21.1800  -48.2440 C.3   219  ILE219      0.1561
     55  C          4.7870   22.3820  -47.6330 C.2   219  ILE219      0.2260
     56  O          5.8280   22.1990  -47.0060 O.2   219  ILE219     -0.2867
     57  CB         3.0000   20.5560  -47.2870 C.3   219  ILE219      0.0252
     58  CG1        1.6500   20.5000  -47.9640 C.3   219  ILE219      0.0019
     59  CG2        2.9060   21.1700  -45.8590 C.3   219  ILE219      0.0019
     60  CD1        1.5330   19.3330  -48.7600 C.3   219  ILE219      0.0001
     61  N          3.8170   26.0500  -45.3210 N.3   221  LEU221     -0.1245
     62  CA         2.8590   26.9180  -44.6440 C.3   221  LEU221      0.1561
     63  C          3.5500   28.2170  -44.2090 C.2   221  LEU221      0.2260
     64  O          4.6440   28.1710  -43.6390 O.2   221  LEU221     -0.2867
     65  CB         2.2360   26.2080  -43.4360 C.3   221  LEU221      0.0270
     66  CG         0.8660   25.5640  -43.6440 C.3   221  LEU221      0.0019
     67  CD1        0.9770   24.2360  -44.3890 C.3   221  LEU221      0.0001
     68  CD2        0.1830   25.3410  -42.3250 C.3   221  LEU221      0.0001
     69  N          7.0890   20.6250  -45.0300 N.3   231  THR231     -0.1218
     70  CA         6.9320   19.2770  -44.4980 C.3   231  THR231      0.1862
     71  C          7.0630   18.2880  -45.6490 C.2   231  THR231      0.2287
     72  O          6.4650   18.4920  -46.7060 O.2   231  THR231     -0.2866
     73  CB         5.6310   19.1110  -43.6980 C.3   231  THR231      0.1770
     74  OG1        5.3740   20.2880  -42.9270 O.3   231  THR231     -0.2211
     75  CG2        5.6640   17.9000  -42.7790 C.3   231  THR231      0.0375
     76  N          6.3500   14.4780  -46.8170 N.3   233  PHE233     -0.1241
     77  CA         5.5650   13.2740  -46.5530 C.3   233  PHE233      0.1605
     78  C          6.0790   12.2270  -47.5060 C.2   233  PHE233      0.2264
     79  O          5.9560   12.3850  -48.7180 O.2   233  PHE233     -0.2867
     80  CB         4.0610   13.5350  -46.7300 C.3   233  PHE233      0.0534
     81  CG         3.4970   14.4290  -45.6500 C.ar  233  PHE233     -0.0203
     82  CD1        3.0990   13.9000  -44.4280 C.ar  233  PHE233     -0.0042
     83  CD2        3.4090   15.8030  -45.8350 C.ar  233  PHE233     -0.0042
     84  CE1        2.5930   14.7230  -43.4260 C.ar  233  PHE233     -0.0003
     85  CE2        2.9080   16.6260  -44.8270 C.ar  233  PHE233     -0.0003
     86  CZ         2.5090   16.0800  -43.6290 C.ar  233  PHE233     -0.0000
     87  N         -2.6780   13.8050  -41.1930 N.3   313  PRO313     -0.2102
     88  CA        -2.8980   15.2530  -41.2100 C.3   313  PRO313      0.1504
     89  C         -3.3120   15.8580  -42.5320 C.2   313  PRO313      0.2576
     90  O         -3.4090   17.0750  -42.5950 O.2   313  PRO313     -0.2718
     91  CB        -1.5520   15.8190  -40.7380 C.3   313  PRO313      0.0282
     92  CG        -0.5610   14.8080  -41.0730 C.3   313  PRO313      0.0208
     93  CD        -1.2420   13.4810  -41.2700 C.3   313  PRO313      0.0893
     94  N         -3.6240   15.0330  -43.5380 N.am  314  PHE314     -0.1963
     95  CA        -3.8690   15.4560  -44.9200 C.3   314  PHE314      0.1771
     96  C         -5.1280   16.3360  -45.1730 C.2   314  PHE314      0.2620
     97  O         -5.2170   16.9230  -46.2630 O.2   314  PHE314     -0.2715
     98  CB        -3.8300   14.2490  -45.8610 C.3   314  PHE314      0.0574
     99  CG        -2.5650   13.4360  -45.6670 C.ar  314  PHE314     -0.0200
    100  CD1       -1.3250   14.0540  -45.5960 C.ar  314  PHE314     -0.0042
    101  CD2       -2.6210   12.0570  -45.5150 C.ar  314  PHE314     -0.0042
    102  CE1       -0.1750   13.3050  -45.3710 C.ar  314  PHE314     -0.0003
    103  CE2       -1.4600   11.3090  -45.3110 C.ar  314  PHE314     -0.0003
    104  CZ        -0.2500   11.9360  -45.2330 C.ar  314  PHE314     -0.0000
    105  N         -6.0290   16.5190  -44.1770 N.am  315  HIS315     -0.1959
    106  CA        -7.1300   17.4550  -44.3790 C.3   315  HIS315      0.1787
    107  C         -6.9540   18.6960  -43.4810 C.2   315  HIS315      0.2621
    108  O         -7.7400   19.6570  -43.5850 O.2   315  HIS315     -0.2715
    109  CB        -8.5170   16.8090  -44.2190 C.3   315  HIS315      0.0785
    110  CG        -9.5530   17.3920  -45.1430 C.ar  315  HIS315      0.0821
    111  ND1       -9.8590   18.7560  -45.1360 N.ar  315  HIS315     -0.2267
    112  CD2      -10.3140   16.7810  -46.0820 C.ar  315  HIS315      0.1154
    113  CE1      -10.7790   18.9200  -46.0700 C.ar  315  HIS315      0.1986
    114  NE2      -11.0910   17.7600  -46.6620 N.ar  315  HIS315     -0.2212
    115  N         -5.9180   18.6650  -42.6290 N.am  316  GLY316     -0.1940
    116  CA        -5.6020   19.7270  -41.6720 C.3   316  GLY316      0.2014
    117  C         -6.7840   20.0520  -40.7850 C.2   316  GLY316      0.2638
    118  O         -7.1250   21.2220  -40.6040 O.2   316  GLY316     -0.2714
    119  N         -7.4320   19.0030  -40.2590 N.am  317  GLN317     -0.1977
    120  CA        -8.6390   19.0530  -39.4510 C.3   317  GLN317      0.1601
    121  C         -8.5060   18.5050  -38.0490 C.2   317  GLN317      0.2287
    122  O         -9.4100   18.7190  -37.2570 O.2   317  GLN317     -0.2864
    123  CB        -9.7880   18.3100  -40.1560 C.3   317  GLN317      0.0394
    124  CG       -10.4400   19.0700  -41.3060 C.3   317  GLN317      0.0908
    125  CD       -10.9610   20.4290  -40.9150 C.2   317  GLN317      0.2608
    126  OE1      -11.9110   20.5650  -40.1240 O.2   317  GLN317     -0.2717
    127  NE2      -10.3150   21.4650  -41.4510 N.am  317  GLN317     -0.0878
    128  N         -7.9770   12.6450  -48.8640 N.3   364  ASN364     -0.1240
    129  CA        -7.4170   13.9190  -49.2930 C.3   364  ASN364      0.1653
    130  C         -5.9330   13.8200  -49.6680 C.2   364  ASN364      0.2266
    131  O         -5.4540   14.6660  -50.4410 O.2   364  ASN364     -0.2867
    132  CB        -7.6880   15.0540  -48.3080 C.3   364  ASN364      0.1155
    133  CG        -7.6990   16.3980  -49.0080 C.2   364  ASN364      0.2627
    134  OD1       -8.4840   16.6340  -49.9650 O.2   364  ASN364     -0.2716
    135  ND2       -6.8130   17.2970  -48.5530 N.am  364  ASN364     -0.0877
    136  N         -4.3320   15.6800  -53.0210 N.3   368  MET368     -0.1245
    137  CA        -3.2570   16.6640  -53.1330 C.3   368  MET368      0.1570
    138  C         -1.8940   16.1180  -53.6670 C.2   368  MET368      0.2261
    139  O         -1.1140   16.9190  -54.1810 O.2   368  MET368     -0.2867
    140  CB        -3.0830   17.4780  -51.8400 C.3   368  MET368      0.0387
    141  CG        -2.8760   16.6820  -50.5960 C.3   368  MET368      0.0595
    142  SD        -3.2460   17.6710  -49.1250 S.3   368  MET368     -0.1393
    143  CE        -1.9140   18.8560  -49.1390 C.3   368  MET368      0.0692
    144  N        -14.5620   20.0330  -49.8390 N.3   399  TYR399     -0.1241
    145  CA       -13.5460   20.8430  -49.1660 C.3   399  TYR399      0.1605
    146  C        -14.1690   22.0280  -48.4300 C.2   399  TYR399      0.2264
    147  O        -13.7910   22.2620  -47.2730 O.2   399  TYR399     -0.2867
    148  CB       -12.3800   21.2710  -50.0590 C.3   399  TYR399      0.0534
    149  CG       -11.2840   21.9360  -49.2570 C.ar  399  TYR399     -0.0201
    150  CD1      -10.3010   21.1790  -48.6190 C.ar  399  TYR399     -0.0009
    151  CD2      -11.2760   23.3150  -49.0590 C.ar  399  TYR399     -0.0009
    152  CE1       -9.3240   21.7820  -47.8220 C.ar  399  TYR399      0.0417
    153  CE2      -10.3060   23.9300  -48.2700 C.ar  399  TYR399      0.0417
    154  CZ        -9.3180   23.1630  -47.6690 C.ar  399  TYR399      0.1957
    155  OH        -8.3730   23.7780  -46.8830 O.3   399  TYR399     -0.2866
    156  N        -14.0440   22.3310  -44.4430 N.3   403  THR403     -0.1218
    157  CA       -13.2340   23.4620  -44.0200 C.3   403  THR403      0.1862
    158  C        -14.0090   24.7060  -43.5460 C.2   403  THR403      0.2287
    159  O        -13.6740   25.2620  -42.4980 O.2   403  THR403     -0.2866
    160  CB       -12.2810   23.7990  -45.1660 C.3   403  THR403      0.1770
    161  OG1      -11.6600   22.5810  -45.5770 O.3   403  THR403     -0.2211
    162  CG2      -11.2450   24.8160  -44.8010 C.3   403  THR403      0.0375
@<TRIPOS>BOND
     1     9     8    2
     2    48    47    2
     3    15    14    1
     4   139   138    2
     5     8     7    1
     6    12    11    1
     7    12    13    1
     8   138   137    1
     9    47    46    1
    10    11    10    1
    11    14    13    2
    12    14    16    1
    13    50    52    1
    14    50    49    1
    15   137   136    1
    16   137   140    1
    17     7    10    1
    18     7     6    1
    19    46    45    1
    20    46    49    1
    21    17    18    1
    22    49    51    1
    23   140   141    1
    24    18    19    1
    25    18    21    1
    26    19    20    2
    27    40    39    2
    28   141   142    1
    29    23    25   ar
    30    23    22   ar
    31   131   130    2
    32    25    27   ar
    33    39    38    1
    34   148   149    1
    35   148   145    1
    36    21    22    1
    37   134   133    2
    38    22    24   ar
    39   144   145    1
    40   130   129    1
    41    27    28    1
    42    27    26   ar
    43    37    38    1
    44   129   128    1
    45   129   132    1
    46   149   151   ar
    47   149   150   ar
    48   145   146    1
    49   143   142    1
    50    24    26   ar
    51   151   153   ar
    52   133   135   am
    53   133   132    1
    54    38    41    1
    55    60    58    1
    56    79    78    2
    57    53    54    1
    58   150   152   ar
    59   146   147    2
    60    41    42    1
    61   153   154   ar
    62    54    55    1
    63    54    57    1
    64    44    42    1
    65    58    57    1
    66   152   154   ar
    67   154   155    1
    68    55    56    2
    69    78    77    1
    70    42    43    1
    71    57    59    1
    72    76    77    1
    73    80    77    1
    74    80    81    1
    75    72    71    2
    76   114   112   ar
    77   114   113   ar
    78    97    96    2
    79   112   110   ar
    80   113   111   ar
    81    98    99    1
    82    98    95    1
    83    83    81   ar
    84    83    85   ar
    85    99   100   ar
    86    99   101   ar
    87    81    82   ar
    88    71    70    1
    89   100   102   ar
    90   161   160    1
    91   101   103   ar
    92   102   104   ar
    93    36    34    1
    94    61    62    1
    95   103   104   ar
    96    96    95    1
    97    96   105   am
    98   160   162    1
    99   160   157    1
   100   110   111   ar
   101   110   109    1
   102    34    33    1
   103    69    70    1
   104    95    94    1
   105    85    86   ar
   106    29    30    1
   107    62    63    1
   108    62    65    1
   109    70    73    1
   110   156   157    1
   111    82    84   ar
   112    35    33    1
   113    67    66    1
   114   106   109    1
   115   106   105    1
   116   106   107    1
   117    63    64    2
   118   157   158    1
   119    33    30    1
   120    73    74    1
   121    73    75    1
   122    32    31    2
   123    30    31    1
   124    66    65    1
   125    66    68    1
   126    86    84   ar
   127   108   107    2
   128   158   159    2
   129    94    89   am
   130   107   115   am
   131   115   116    1
   132    90    89    2
   133    89    88    1
   134     5     2    1
   135   116   117    1
   136   127   125   am
   137   124   125    1
   138   124   123    1
   139    93    87    1
   140    93    92    1
   141    88    87    1
   142    88    91    1
   143    92    91    1
   144   125   126    2
   145   117   118    2
   146   117   119   am
   147     2     3    1
   148     2     1    1
   149   119   120    1
   150   123   120    1
   151     3     4    2
   152   120   121    1
   153   121   122    2
