@<TRIPOS>MOLECULE
tmp/5fncA00.pdb
 131 121 0 0 0
SMALL
GASTEIGER

@<TRIPOS>ATOM
      1  N         -0.9340   11.5390   16.1970 N.3    33  LEU33      -0.1245
      2  CA        -1.4730   12.1300   17.4330 C.3    33  LEU33       0.1561
      3  C         -2.7940   11.4400   17.7930 C.2    33  LEU33       0.2260
      4  O         -3.0460   11.1350   18.9470 O.2    33  LEU33      -0.2867
      5  CB        -1.6690   13.6620   17.2910 C.3    33  LEU33       0.0270
      6  CG        -0.3740   14.4170   17.0740 C.3    33  LEU33       0.0019
      7  CD1       -0.6870   15.9210   16.8870 C.3    33  LEU33       0.0001
      8  CD2        0.6640   14.2000   18.1550 C.3    33  LEU33       0.0001
      9  N         -1.8750    8.0970   19.1440 N.3    36  ASN36      -0.1225
     10  CA        -1.4350    8.2850   20.5200 C.3    36  ASN36       0.1785
     11  C         -2.6010    8.4020   21.5150 C.2    36  ASN36       0.2597
     12  O         -2.5460    7.8960   22.6470 O.2    36  ASN36      -0.2718
     13  CB        -0.4760    9.4970   20.6430 C.3    36  ASN36       0.1169
     14  CG         0.9910    9.1770   20.2260 C.2    36  ASN36       0.2627
     15  OD1        1.3400    8.0290   19.9200 O.2    36  ASN36      -0.2716
     16  ND2        1.8410   10.1900   20.2390 N.am   36  ASN36      -0.0877
     17  N         -3.6240    9.1450   21.1310 N.am   37  SER37      -0.1952
     18  CA        -4.7860    9.3540   21.9880 C.3    37  SER37       0.1924
     19  C         -5.5390    8.0070   22.2110 C.2    37  SER37       0.2314
     20  O         -5.9280    7.6260   23.3470 O.2    37  SER37      -0.2863
     21  CB        -5.6750   10.3850   21.3040 C.3    37  SER37       0.2116
     22  OG        -5.1070   11.7130   21.3700 O.3    37  SER37      -0.2180
     23  N         -3.7550    5.8560   24.6270 N.3    40  ALA40      -0.1245
     24  CA        -3.8870    6.3940   25.9780 C.3    40  ALA40       0.1562
     25  C         -5.2980    6.0540   26.5020 C.2    40  ALA40       0.2260
     26  O         -5.4830    5.7660   27.6800 O.2    40  ALA40      -0.2867
     27  CB        -3.6520    7.8830   25.9630 C.3    40  ALA40       0.0290
     28  N         -7.8620   14.3120   24.1720 N.3    78  ASP78      -0.1239
     29  CA        -8.3620   13.0150   24.5380 C.3    78  ASP78       0.1674
     30  C         -8.6720   12.9460   26.0250 C.2    78  ASP78       0.2266
     31  O         -8.2170   13.7830   26.7940 O.2    78  ASP78      -0.2867
     32  CB        -7.4250   11.9060   24.0580 C.3    78  ASP78       0.1410
     33  CG        -6.0860   11.9160   24.7500 C.2    78  ASP78       0.3668
     34  OD1       -6.0730   11.6800   26.0120 O.co2  78  ASP78      -0.2456
     35  OD2       -5.0650   12.1170   24.0240 O.co2  78  ASP78      -0.2456
     36  N         -5.4170    8.2210   29.5420 N.3    81  ILE81      -0.1231
     37  CA        -4.7420    8.0840   30.8320 C.3    81  ILE81       0.1692
     38  C         -3.9540    9.3070   31.3520 C.2    81  ILE81       0.2593
     39  O         -3.7800    9.4800   32.6040 O.2    81  ILE81      -0.2718
     40  CB        -3.9100    6.7800   30.8610 C.3    81  ILE81       0.0266
     41  CG1       -3.5160    6.4600   32.3080 C.3    81  ILE81       0.0019
     42  CG2       -2.6910    6.9170   29.9730 C.3    81  ILE81       0.0020
     43  CD1       -3.2840    5.0110   32.6780 C.3    81  ILE81       0.0001
     44  N         -3.4740   10.1590   30.4300 N.am   82  GLY82      -0.1942
     45  CA        -2.6770   11.3130   30.8410 C.3    82  GLY82       0.2014
     46  C         -1.2840   10.9410   31.1880 C.2    82  GLY82       0.2638
     47  O         -0.9100    9.7550   31.1900 O.2    82  GLY82      -0.2714
     48  N         -0.4950   11.9660   31.4450 N.am   83  MET83      -0.1976
     49  CA         0.9260   11.8290   31.7360 C.3    83  MET83       0.1605
     50  C          1.2460   12.5090   33.0660 C.2    83  MET83       0.2287
     51  O          0.8020   13.6380   33.3520 O.2    83  MET83      -0.2864
     52  CB         1.7560   12.4610   30.6400 C.3    83  MET83       0.0413
     53  CG         1.7830   11.6450   29.3720 C.3    83  MET83       0.0598
     54  SD         2.5720   12.4150   27.9900 S.3    83  MET83      -0.1393
     55  CE         1.3500   13.6840   27.6310 C.3    83  MET83       0.0692
     56  N          9.3060    9.3870   29.1710 N.3    92  LEU92      -0.1245
     57  CA         9.0390    9.3860   27.7150 C.3    92  LEU92       0.1561
     58  C         10.3030    9.6720   26.9080 C.2    92  LEU92       0.2260
     59  O         10.4690    9.1330   25.8310 O.2    92  LEU92      -0.2867
     60  CB         7.8660   10.3060   27.3160 C.3    92  LEU92       0.0270
     61  CG         6.4790    9.9080   27.9040 C.3    92  LEU92       0.0019
     62  CD1        5.3660   10.6020   27.1450 C.3    92  LEU92       0.0001
     63  CD2        6.1440    8.4170   27.9210 C.3    92  LEU92       0.0001
     64  N         12.3250    6.3840   26.8150 N.3    95  ILE95      -0.1231
     65  CA        11.6560    5.6660   25.7350 C.3    95  ILE95       0.1692
     66  C         12.0240    6.1950   24.3500 C.2    95  ILE95       0.2591
     67  O         12.4070    5.4640   23.4610 O.2    95  ILE95      -0.2718
     68  CB        10.1090    5.7350   25.9720 C.3    95  ILE95       0.0266
     69  CG1        9.6320    4.5610   26.8480 C.3    95  ILE95       0.0019
     70  CG2        9.2920    5.9350   24.6790 C.3    95  ILE95       0.0020
     71  CD1       10.5600    3.3630   26.9630 C.3    95  ILE95       0.0001
     72  N         11.9510    7.4850   24.1570 N.am   96  ALA96      -0.1980
     73  CA        12.1750    8.0150   22.8300 C.3    96  ALA96       0.1597
     74  C         13.6210    7.8040   22.2570 C.2    96  ALA96       0.2287
     75  O         13.8670    7.9890   21.0390 O.2    96  ALA96      -0.2864
     76  CB        11.8290    9.4900   22.8520 C.3    96  ALA96       0.0319
     77  N          7.7960    4.4040   17.8800 N.3   120  GLY120     -0.1210
     78  CA         7.3480    4.9160   19.1480 C.3   120  GLY120      0.1956
     79  C          7.5470    6.4080   19.3490 C.2   120  GLY120      0.2611
     80  O          7.4130    6.9010   20.4670 O.2   120  GLY120     -0.2717
     81  N          7.8740    7.1400   18.2950 N.am  121  VAL121     -0.1979
     82  CA         8.1810    8.5750   18.4570 C.3   121  VAL121      0.1595
     83  C          7.3610    9.4580   17.5130 C.2   121  VAL121      0.2287
     84  O          7.8130   10.5650   17.0940 O.2   121  VAL121     -0.2864
     85  CB         9.6900    8.8720   18.2790 C.3   121  VAL121      0.0276
     86  CG1       10.4710    8.2560   19.3480 C.3   121  VAL121      0.0022
     87  CG2       10.1980    8.3530   16.9710 C.3   121  VAL121      0.0022
     88  N          4.8120   11.3500   18.0520 N.3   123  PHE123     -0.1227
     89  CA         4.4690   12.6650   18.6340 C.3   123  PHE123      0.1736
     90  C          5.2950   13.7670   17.9820 C.2   123  PHE123      0.2595
     91  O          4.7720   14.8450   17.6550 O.2   123  PHE123     -0.2718
     92  CB         4.7290   12.6950   20.1530 C.3   123  PHE123      0.0547
     93  CG         4.7180   14.0780   20.7300 C.ar  123  PHE123     -0.0202
     94  CD1        3.4940   14.6910   21.0500 C.ar  123  PHE123     -0.0042
     95  CD2        5.9050   14.7710   20.9590 C.ar  123  PHE123     -0.0042
     96  CE1        3.4590   15.9840   21.5740 C.ar  123  PHE123     -0.0003
     97  CE2        5.8650   16.0900   21.4610 C.ar  123  PHE123     -0.0003
     98  CZ         4.6400   16.6640   21.8120 C.ar  123  PHE123     -0.0000
     99  N          6.5740   13.4920   17.7060 N.am  124  TYR124     -0.1976
    100  CA         7.4520   14.5660   17.1980 C.3   124  TYR124      0.1639
    101  C          7.1190   14.9680   15.7630 C.2   124  TYR124      0.2290
    102  O          7.5560   16.0210   15.2830 O.2   124  TYR124     -0.2864
    103  CB         8.9180   14.2030   17.3620 C.3   124  TYR124      0.0560
    104  CG         9.2810   13.9530   18.7760 C.ar  124  TYR124     -0.0198
    105  CD1        9.5650   15.0020   19.6530 C.ar  124  TYR124     -0.0009
    106  CD2        9.3080   12.6860   19.2670 C.ar  124  TYR124     -0.0009
    107  CE1        9.8650   14.7660   21.0090 C.ar  124  TYR124      0.0417
    108  CE2        9.5970   12.4280   20.6200 C.ar  124  TYR124      0.0417
    109  CZ         9.9070   13.4610   21.4760 C.ar  124  TYR124      0.1957
    110  OH        10.2060   13.1530   22.7910 O.3   124  TYR124     -0.2866
    111  N          1.4070   20.9490   25.4430 N.3   135  VAL135     -0.1245
    112  CA         0.7010   19.7100   25.7840 C.3   135  VAL135      0.1561
    113  C          0.2070   19.9120   27.1960 C.2   135  VAL135      0.2260
    114  O          1.0270   20.1790   28.1260 O.2   135  VAL135     -0.2867
    115  CB         1.6150   18.4690   25.7500 C.3   135  VAL135      0.0252
    116  CG1        0.8440   17.2490   26.1760 C.3   135  VAL135      0.0019
    117  CG2        2.1270   18.1790   24.3770 C.3   135  VAL135      0.0019
    118  N         -5.2390   14.3850   27.9090 N.3   169  THR169     -0.1218
    119  CA        -4.1500   15.0930   27.2910 C.3   169  THR169      0.1862
    120  C         -4.6410   15.9150   26.1190 C.2   169  THR169      0.2287
    121  O         -5.4100   15.4630   25.2790 O.2   169  THR169     -0.2866
    122  CB        -3.1360   14.1290   26.7310 C.3   169  THR169      0.1770
    123  OG1       -2.6190   13.3640   27.7960 O.3   169  THR169     -0.2211
    124  CG2       -2.0630   14.8790   25.9740 C.3   169  THR169      0.0375
    125  N         -3.1050   18.2020   23.0630 N.3   171  VAL171     -0.1245
    126  CA        -1.9610   18.6200   22.2910 C.3   171  VAL171      0.1561
    127  C         -2.3390   19.8120   21.4490 C.2   171  VAL171      0.2260
    128  O         -3.0960   19.6490   20.5070 O.2   171  VAL171     -0.2867
    129  CB        -1.4360   17.5110   21.3730 C.3   171  VAL171      0.0252
    130  CG1       -0.2040   17.9880   20.5800 C.3   171  VAL171      0.0019
    131  CG2       -1.1150   16.2430   22.1920 C.3   171  VAL171      0.0019
@<TRIPOS>BOND
     1   102   101    2
     2   101   100    1
     3     1     2    1
     4     7     6    1
     5    87    85    1
     6     6     5    1
     7     6     8    1
     8    84    83    2
     9   100   103    1
    10   100    99    1
    11     5     2    1
    12   103   104    1
    13     2     3    1
    14    83    82    1
    15    91    90    2
    16    99    90   am
    17     3     4    2
    18    77    78    1
    19    90    89    1
    20    88    89    1
    21    85    82    1
    22    85    86    1
    23    81    82    1
    24    81    79   am
    25    89    92    1
    26   104   106   ar
    27   104   105   ar
    28     9    10    1
    29    78    79    1
    30   106   108   ar
    31    79    80    2
    32   105   107   ar
    33    15    14    2
    34    92    93    1
    35    14    16   am
    36    14    13    1
    37   128   127    2
    38    10    13    1
    39    10    11    1
    40   130   129    1
    41   108   109   ar
    42    93    95   ar
    43    93    94   ar
    44    95    97   ar
    45   107   109   ar
    46    75    74    2
    47    94    96   ar
    48    17    11   am
    49    17    18    1
    50    21    22    1
    51    21    18    1
    52   129   131    1
    53   129   126    1
    54   127   126    1
    55    97    98   ar
    56   109   110    1
    57    11    12    2
    58    96    98   ar
    59    18    19    1
    60    19    20    2
    61    74    73    1
    62   126   125    1
    63    73    76    1
    64    73    72    1
    65    67    66    2
    66    35    33   ar
    67    32    29    1
    68    32    33    1
    69    72    66   am
    70    28    29    1
    71    66    65    1
    72   117   115    1
    73    29    30    1
    74    23    24    1
    75    70    68    1
    76    33    34   ar
    77   121   120    2
    78   111   112    1
    79    65    68    1
    80    65    64    1
    81   115   112    1
    82   115   116    1
    83   112   113    1
    84    59    58    2
    85    27    24    1
    86    68    69    1
    87   124   122    1
    88    24    25    1
    89    30    31    2
    90   120   119    1
    91    25    26    2
    92   122   119    1
    93   122   123    1
    94    69    71    1
    95    58    57    1
    96    62    61    1
    97   113   114    2
    98   119   118    1
    99    60    57    1
   100    60    61    1
   101    55    54    1
   102    57    56    1
   103    61    63    1
   104    54    53    1
   105    53    52    1
   106    36    37    1
   107    42    40    1
   108    44    45    1
   109    44    38   am
   110    52    49    1
   111    37    40    1
   112    37    38    1
   113    45    46    1
   114    40    41    1
   115    46    47    2
   116    46    48   am
   117    38    39    2
   118    48    49    1
   119    49    50    1
   120    41    43    1
   121    50    51    2
