@<TRIPOS>MOLECULE
tmp/5fndA00.pdb
 118 109 0 0 0
SMALL
GASTEIGER

@<TRIPOS>ATOM
      1  N         29.9060    7.5210   18.9590 N.3    36  ASN36      -0.1225
      2  CA        30.2530    7.7170   20.3430 C.3    36  ASN36       0.1785
      3  C         29.0050    7.8480   21.2650 C.2    36  ASN36       0.2597
      4  O         28.9520    7.2680   22.3680 O.2    36  ASN36      -0.2718
      5  CB        31.1000    9.0250   20.5130 C.3    36  ASN36       0.1169
      6  CG        32.5410    8.8710   20.0720 C.2    36  ASN36       0.2627
      7  OD1       32.9280    7.8550   19.5220 O.2    36  ASN36      -0.2716
      8  ND2       33.3080    9.9520   20.2060 N.am   36  ASN36      -0.0877
      9  N         28.0560    8.6660   20.8340 N.am   37  SER37      -0.1952
     10  CA        26.7450    8.8420   21.5400 C.3    37  SER37       0.1924
     11  C         26.0130    7.4600   21.6530 C.2    37  SER37       0.2314
     12  O         25.5050    7.0920   22.7180 O.2    37  SER37      -0.2863
     13  CB        25.9140    9.9110   20.8310 C.3    37  SER37       0.2116
     14  OG        26.3560   11.2960   21.0760 O.3    37  SER37      -0.2180
     15  N         27.7270    5.2750   24.2630 N.3    40  ALA40      -0.1245
     16  CA        27.4130    5.7970   25.5910 C.3    40  ALA40       0.1562
     17  C         25.9720    5.4570   25.9750 C.2    40  ALA40       0.2260
     18  O         25.6750    5.2480   27.0990 O.2    40  ALA40      -0.2867
     19  CB        27.6460    7.3230   25.6330 C.3    40  ALA40       0.0290
     20  N         25.8260    1.8640   26.9260 N.3    43  LYS43      -0.1245
     21  CA        26.4180    1.6880   28.2390 C.3    43  LYS43       0.1561
     22  C         25.4530    1.9230   29.3840 C.2    43  LYS43       0.2260
     23  O         25.3880    1.1630   30.2780 O.2    43  LYS43      -0.2867
     24  CB        27.6780    2.5260   28.4300 C.3    43  LYS43       0.0271
     25  CG        28.9400    1.9200   27.8890 C.3    43  LYS43       0.0035
     26  CD        30.1170    2.8780   27.9300 C.3    43  LYS43       0.0206
     27  CE        31.1560    2.5150   26.8980 C.3    43  LYS43       0.1093
     28  NZ        32.0030    3.6860   26.5290 N.3    43  LYS43      -0.1314
     29  N         23.3610   13.7100   23.6990 N.3    78  ASP78      -0.1239
     30  CA        22.8700   12.3730   24.0050 C.3    78  ASP78       0.1674
     31  C         22.5240   12.2710   25.4790 C.2    78  ASP78       0.2266
     32  O         23.0070   13.0790   26.3380 O.2    78  ASP78      -0.2867
     33  CB        23.8410   11.2850   23.5530 C.3    78  ASP78       0.1410
     34  CG        25.0810   11.2190   24.4090 C.2    78  ASP78       0.3668
     35  OD1       24.9880   10.8240   25.6090 O.co2  78  ASP78      -0.2456
     36  OD2       26.1490   11.5550   23.8610 O.co2  78  ASP78      -0.2456
     37  N         25.5640    7.5250   29.1910 N.3    81  ILE81      -0.1231
     38  CA        26.1130    7.3370   30.5220 C.3    81  ILE81       0.1692
     39  C         26.8020    8.5980   31.0990 C.2    81  ILE81       0.2593
     40  O         26.8840    8.7830   32.3230 O.2    81  ILE81      -0.2718
     41  CB        27.0320    6.1230   30.5490 C.3    81  ILE81       0.0266
     42  CG1       27.2460    5.6900   32.0110 C.3    81  ILE81       0.0019
     43  CG2       28.3270    6.3590   29.7740 C.3    81  ILE81       0.0020
     44  CD1       27.5830    4.2320   32.1890 C.3    81  ILE81       0.0001
     45  N         27.2080    9.4940   30.2030 N.am   82  GLY82      -0.1942
     46  CA        27.9350   10.6670   30.6000 C.3    82  GLY82       0.2014
     47  C         29.3640   10.3260   31.0030 C.2    82  GLY82       0.2638
     48  O         29.7840    9.1490   30.9410 O.2    82  GLY82      -0.2714
     49  N         30.1070   11.3510   31.3960 N.am   83  MET83      -0.1976
     50  CA        31.5150   11.1960   31.7940 C.3    83  MET83       0.1605
     51  C         31.7300   11.8570   33.1270 C.2    83  MET83       0.2287
     52  O         31.1740   12.9520   33.3790 O.2    83  MET83      -0.2864
     53  CB        32.4470   11.8410   30.7620 C.3    83  MET83       0.0413
     54  CG        32.6750   10.9960   29.5120 C.3    83  MET83       0.0598
     55  SD        33.7140   11.8410   28.2730 S.3    83  MET83      -0.1393
     56  CE        32.4970   12.9910   27.5840 C.3    83  MET83       0.0692
     57  N         37.1210   10.7490   33.7040 N.3    87  ASP87      -0.1239
     58  CA        36.9850   10.3680   32.3010 C.3    87  ASP87       0.1674
     59  C         37.3340   11.5490   31.3600 C.2    87  ASP87       0.2266
     60  O         38.0740   11.3800   30.3730 O.2    87  ASP87      -0.2867
     61  CB        35.5600    9.9470   32.0010 C.3    87  ASP87       0.1410
     62  CG        35.2170    8.5870   32.5480 C.2    87  ASP87       0.3668
     63  OD1       36.1520    7.7150   32.6000 O.co2  87  ASP87      -0.2456
     64  OD2       34.0040    8.4230   32.9350 O.co2  87  ASP87      -0.2456
     65  N         38.7350   12.2100   27.4500 N.3    92  LEU92      -0.1231
     66  CA        37.3040   11.8700   27.2370 C.3    92  LEU92       0.1693
     67  C         37.0000   10.3790   27.2440 C.2    92  LEU92       0.2593
     68  O         36.3170    9.8360   26.3750 O.2    92  LEU92      -0.2718
     69  CB        36.7950   12.4870   25.9590 C.3    92  LEU92       0.0284
     70  CG        37.0620   14.0290   26.1190 C.3    92  LEU92       0.0019
     71  CD1       38.4430   14.3240   25.6290 C.3    92  LEU92       0.0001
     72  CD2       36.0740   14.8410   25.3940 C.3    92  LEU92       0.0001
     73  N         37.5470    9.7120   28.2350 N.am   93  GLY93      -0.1942
     74  CA        37.3230    8.3020   28.3720 C.3    93  GLY93       0.2014
     75  C         37.8500    7.4170   27.2520 C.2    93  GLY93       0.2639
     76  O         37.4200    6.2510   27.1670 O.2    93  GLY93      -0.2714
     77  N         38.7590    7.9760   26.4200 N.am   94  THR94      -0.1950
     78  CA        39.3950    7.2790   25.2890 C.3    94  THR94       0.1897
     79  C         40.7370    6.6940   25.7410 C.2    94  THR94       0.2313
     80  O         41.3330    7.1840   26.7270 O.2    94  THR94      -0.2863
     81  CB        39.6230    8.2060   24.0330 C.3    94  THR94       0.1794
     82  OG1       40.6100    9.2290   24.2710 O.3    94  THR94      -0.2208
     83  CG2       38.2730    8.8530   23.5130 C.3    94  THR94       0.0378
     84  N         36.3170   10.9010   18.3800 N.3   123  PHE123     -0.1241
     85  CA        35.9540   12.2820   18.9060 C.3   123  PHE123      0.1605
     86  C         36.7310   13.4120   18.1900 C.2   123  PHE123      0.2264
     87  O         36.1490   14.4770   17.8300 O.2   123  PHE123     -0.2867
     88  CB        36.0590   12.3590   20.4500 C.3   123  PHE123      0.0534
     89  CG        36.0260   13.7710   21.0060 C.ar  123  PHE123     -0.0203
     90  CD1       34.8050   14.4200   21.1900 C.ar  123  PHE123     -0.0042
     91  CD2       37.2180   14.4780   21.2900 C.ar  123  PHE123     -0.0042
     92  CE1       34.7560   15.7660   21.5960 C.ar  123  PHE123     -0.0003
     93  CE2       37.1780   15.8000   21.7430 C.ar  123  PHE123     -0.0003
     94  CZ        35.9740   16.4380   21.8870 C.ar  123  PHE123     -0.0000
     95  N         27.4470   12.4540   34.5120 N.3   139  HIS139     -0.1241
     96  CA        27.4010   11.0360   34.8300 C.3   139  HIS139      0.1621
     97  C         26.7210   10.8620   36.2090 C.2   139  HIS139      0.2264
     98  O         26.7770   11.7490   37.0640 O.2   139  HIS139     -0.2867
     99  CB        28.8340   10.5650   34.9190 C.3   139  HIS139      0.0745
    100  CG        29.0060    9.0820   35.0920 C.ar  139  HIS139      0.0817
    101  ND1       28.7970    8.4560   36.2940 N.ar  139  HIS139     -0.2268
    102  CD2       29.5110    8.1330   34.2550 C.ar  139  HIS139      0.1154
    103  CE1       29.0840    7.1680   36.1770 C.ar  139  HIS139      0.1986
    104  NE2       29.5500    6.9490   34.9560 N.ar  139  HIS139     -0.2212
    105  N         25.8000   13.6870   27.6830 N.3   169  THR169     -0.1218
    106  CA        26.8720   14.4310   27.0640 C.3   169  THR169      0.1862
    107  C         26.3690   15.2810   25.8680 C.2   169  THR169      0.2287
    108  O         25.5490   14.8410   25.0420 O.2   169  THR169     -0.2866
    109  CB        27.9670   13.4720   26.5920 C.3   169  THR169      0.1770
    110  OG1       28.4760   12.7690   27.7240 O.3   169  THR169     -0.2211
    111  CG2       29.1500   14.2760   25.9760 C.3   169  THR169      0.0375
    112  N         28.0960   17.6880   22.9180 N.3   171  VAL171     -0.1245
    113  CA        29.2450   18.1970   22.1810 C.3   171  VAL171      0.1561
    114  C         28.8710   19.4480   21.3570 C.2   171  VAL171      0.2260
    115  O         28.1420   19.3550   20.4120 O.2   171  VAL171     -0.2867
    116  CB        29.7970   17.0920   21.2930 C.3   171  VAL171      0.0252
    117  CG1       30.9720   17.5660   20.4490 C.3   171  VAL171      0.0019
    118  CG2       30.2370   15.9420   22.1850 C.3   171  VAL171      0.0019
@<TRIPOS>BOND
     1    87    86    2
     2    86    85    1
     3    84    85    1
     4    85    88    1
     5     1     2    1
     6     7     6    2
     7     6     8   am
     8     6     5    1
     9     2     5    1
    10     2     3    1
    11   115   114    2
    12   117   116    1
    13    88    89    1
    14    13    14    1
    15    13    10    1
    16     9     3   am
    17     9    10    1
    18    89    90   ar
    19    89    91   ar
    20    90    92   ar
    21     3     4    2
    22    91    93   ar
    23   116   113    1
    24   116   118    1
    25   114   113    1
    26    10    11    1
    27    92    94   ar
    28    11    12    2
    29    93    94   ar
    30   113   112    1
    31    83    81    1
    32    33    30    1
    33    33    34    1
    34    29    30    1
    35    36    34   ar
    36    30    31    1
    37    81    82    1
    38    81    78    1
    39    15    16    1
    40    34    35   ar
    41   108   107    2
    42    78    79    1
    43    78    77    1
    44    72    70    1
    45    31    32    2
    46    16    19    1
    47    16    17    1
    48    71    70    1
    49    79    80    2
    50   107   106    1
    51    69    70    1
    52    69    66    1
    53    17    18    2
    54   111   109    1
    55    68    67    2
    56    77    75   am
    57    28    27    1
    58   109   106    1
    59   109   110    1
    60    27    26    1
    61    20    21    1
    62   106   105    1
    63    76    75    2
    64    66    67    1
    65    66    65    1
    66    67    73   am
    67    75    74    1
    68    56    55    1
    69    25    26    1
    70    25    24    1
    71    73    74    1
    72    21    24    1
    73    21    22    1
    74    55    54    1
    75    37    38    1
    76    22    23    2
    77    54    53    1
    78    43    41    1
    79    45    46    1
    80    45    39   am
    81    60    59    2
    82    38    41    1
    83    38    39    1
    84    41    42    1
    85    46    47    1
    86    53    50    1
    87    48    47    2
    88    47    49   am
    89    39    40    2
    90    59    58    1
    91    49    50    1
    92    50    51    1
    93    61    58    1
    94    61    62    1
    95    42    44    1
    96    58    57    1
    97    62    63   ar
    98    62    64   ar
    99    51    52    2
   100   102   104   ar
   101   102   100   ar
   102    95    96    1
   103    96    99    1
   104    96    97    1
   105    99   100    1
   106   104   103   ar
   107   100   101   ar
   108   103   101   ar
   109    97    98    2
