@<TRIPOS>MOLECULE
tmp/5fnfA00.pdb
 128 116 0 0 0
SMALL
GASTEIGER

@<TRIPOS>ATOM
      1  N         -0.5270   11.6400   16.1500 N.3    33  LEU33      -0.1245
      2  CA        -1.0650   12.1930   17.4000 C.3    33  LEU33       0.1561
      3  C         -2.4530   11.5770   17.7290 C.2    33  LEU33       0.2260
      4  O         -2.7990   11.3860   18.8940 O.2    33  LEU33      -0.2867
      5  CB        -1.2290   13.6950   17.2200 C.3    33  LEU33       0.0270
      6  CG         0.0970   14.3970   16.9460 C.3    33  LEU33       0.0019
      7  CD1       -0.1790   15.8720   16.7520 C.3    33  LEU33       0.0001
      8  CD2        1.1270   14.1690   18.0440 C.3    33  LEU33       0.0001
      9  N         -1.4990    8.2750   19.1530 N.3    36  ASN36      -0.1225
     10  CA        -1.0180    8.3570   20.5030 C.3    36  ASN36       0.1785
     11  C         -2.1740    8.5610   21.4880 C.2    36  ASN36       0.2597
     12  O         -2.2500    7.9800   22.5560 O.2    36  ASN36      -0.2718
     13  CB        -0.0700    9.5280   20.6010 C.3    36  ASN36       0.1169
     14  CG         1.3630    9.2240   20.1040 C.2    36  ASN36       0.2627
     15  OD1        1.7840    8.1300   19.8820 O.2    36  ASN36      -0.2716
     16  ND2        2.0990   10.2770   19.9340 N.am   36  ASN36      -0.0877
     17  N         -3.1100    9.4080   21.1100 N.am   37  SER37      -0.1952
     18  CA        -4.2710    9.6370   21.9330 C.3    37  SER37       0.1924
     19  C         -5.0560    8.3640   22.1340 C.2    37  SER37       0.2314
     20  O         -5.5320    8.0740   23.2300 O.2    37  SER37      -0.2863
     21  CB        -5.1580   10.7210   21.3260 C.3    37  SER37       0.2116
     22  OG        -4.5690   12.0240   21.5060 O.3    37  SER37      -0.2180
     23  N         -3.9100    5.3390   22.0660 N.3    39  ASP39      -0.1225
     24  CA        -3.2380    4.3410   22.9070 C.3    39  ASP39       0.1805
     25  C         -3.4330    4.7290   24.3830 C.2    39  ASP39       0.2597
     26  O         -3.6240    3.8830   25.2140 O.2    39  ASP39      -0.2718
     27  CB        -1.7270    4.2490   22.6120 C.3    39  ASP39       0.1424
     28  CG        -1.4350    3.6730   21.2580 C.2    39  ASP39       0.3668
     29  OD1       -2.3130    3.0320   20.6160 O.co2  39  ASP39      -0.2456
     30  OD2       -0.3300    3.9460   20.8290 O.co2  39  ASP39      -0.2456
     31  N         -3.4580    6.0260   24.6420 N.am   40  ALA40      -0.1979
     32  CA        -3.6520    6.5620   25.9810 C.3    40  ALA40       0.1597
     33  C         -5.0910    6.3610   26.5480 C.2    40  ALA40       0.2287
     34  O         -5.3220    6.2310   27.7530 O.2    40  ALA40      -0.2864
     35  CB        -3.2920    8.0230   25.9570 C.3    40  ALA40       0.0319
     36  N         -5.2790    2.7210   27.4690 N.3    43  LYS43      -0.1245
     37  CA        -4.5930    2.4370   28.6780 C.3    43  LYS43       0.1561
     38  C         -5.4620    2.7570   29.8890 C.2    43  LYS43       0.2260
     39  O         -5.6280    1.9070   30.7680 O.2    43  LYS43      -0.2867
     40  CB        -3.2310    3.1610   28.6680 C.3    43  LYS43       0.0271
     41  CG        -2.3830    2.7110   29.8610 C.3    43  LYS43       0.0035
     42  CD        -0.8500    2.9120   29.7320 C.3    43  LYS43       0.0206
     43  CE        -0.2190    3.1670   31.1230 C.3    43  LYS43       0.1093
     44  NZ         0.8950    2.2640   31.4520 N.3    43  LYS43      -0.1314
     45  N         -5.0670   19.0540   19.7490 N.3    76  ILE76      -0.1245
     46  CA        -5.6420   17.6900   19.9200 C.3    76  ILE76       0.1561
     47  C         -5.8160   17.3970   21.4440 C.2    76  ILE76       0.2260
     48  O         -4.8190   17.3110   22.1560 O.2    76  ILE76      -0.2867
     49  CB        -4.7410   16.5820   19.3330 C.3    76  ILE76       0.0252
     50  CG1       -4.5360   16.7770   17.8480 C.3    76  ILE76       0.0019
     51  CG2       -5.4130   15.1900   19.5140 C.3    76  ILE76       0.0019
     52  CD1       -3.7160   17.9780   17.4240 C.3    76  ILE76       0.0001
     53  N         -7.1550   14.7100   24.3560 N.3    78  ASP78      -0.1239
     54  CA        -7.7200   13.3920   24.6670 C.3    78  ASP78       0.1674
     55  C         -8.0050   13.2850   26.1700 C.2    78  ASP78       0.2266
     56  O         -7.4330   13.9970   26.9820 O.2    78  ASP78      -0.2867
     57  CB        -6.8470   12.2060   24.1520 C.3    78  ASP78       0.1410
     58  CG        -5.5280   12.0740   24.8770 C.2    78  ASP78       0.3668
     59  OD1       -5.5330   11.8010   26.1060 O.co2  78  ASP78      -0.2456
     60  OD2       -4.4830   12.2520   24.2340 O.co2  78  ASP78      -0.2456
     61  N         -4.9610    8.4050   29.6150 N.3    81  ILE81      -0.1231
     62  CA        -4.2940    8.3040   30.9090 C.3    81  ILE81       0.1692
     63  C         -3.4000    9.4750   31.3210 C.2    81  ILE81       0.2593
     64  O         -3.1020    9.6240   32.5420 O.2    81  ILE81      -0.2718
     65  CB        -3.5260    6.9900   30.9710 C.3    81  ILE81       0.0266
     66  CG1       -3.2550    6.5930   32.4090 C.3    81  ILE81       0.0019
     67  CG2       -2.2640    7.0260   30.0980 C.3    81  ILE81       0.0020
     68  CD1       -3.1400    5.0900   32.5370 C.3    81  ILE81       0.0001
     69  N         -3.0240   10.3070   30.3570 N.am   82  GLY82      -0.1942
     70  CA        -2.1470   11.3870   30.6300 C.3    82  GLY82       0.2014
     71  C         -0.7140   10.9730   30.9100 C.2    82  GLY82       0.2635
     72  O         -0.3390    9.8200   30.7940 O.2    82  GLY82      -0.2714
     73  N          0.1090   11.9540   31.2180 N.am   83  MET83      -0.2030
     74  CA         1.5230   11.7340   31.5330 C.3    83  MET83       0.1291
     75  C          1.9300   12.3940   32.8320 C.3    83  MET83       0.2036
     76  O          1.5680   13.5790   33.1800 O.3    83  MET83      -0.2185
     77  CB         2.3940   12.2300   30.3860 C.3    83  MET83       0.0360
     78  CG         2.2240   11.4230   29.1200 C.3    83  MET83       0.0594
     79  SD         2.9470   12.1050   27.6120 S.3    83  MET83      -0.1393
     80  CE         1.8110   13.4500   27.4200 C.3    83  MET83       0.0692
     81  N          7.2540   10.7630   33.1540 N.3    87  ASP87      -0.1239
     82  CA         7.0080   10.4100   31.7610 C.3    87  ASP87       0.1674
     83  C          7.5540   11.4730   30.8620 C.2    87  ASP87       0.2266
     84  O          8.2540   11.1850   29.9130 O.2    87  ASP87      -0.2867
     85  CB         5.5310   10.3340   31.4990 C.3    87  ASP87       0.1410
     86  CG         4.9020    8.9910   31.8850 C.2    87  ASP87       0.3668
     87  OD1        5.5690    7.9450   31.8400 O.co2  87  ASP87      -0.2456
     88  OD2        3.7090    9.0140   32.1800 O.co2  87  ASP87      -0.2456
     89  N          9.6820    8.4940   28.8370 N.3    92  LEU92      -0.1245
     90  CA         9.1490    8.2480   27.5140 C.3    92  LEU92       0.1561
     91  C         10.2490    8.3880   26.4930 C.2    92  LEU92       0.2260
     92  O         10.3170    7.5750   25.5740 O.2    92  LEU92      -0.2867
     93  CB         7.9580    9.1040   27.1980 C.3    92  LEU92       0.0270
     94  CG         6.6970    8.8140   27.9850 C.3    92  LEU92       0.0019
     95  CD1        5.5310    9.7040   27.5400 C.3    92  LEU92       0.0001
     96  CD2        6.3350    7.3560   27.8210 C.3    92  LEU92       0.0001
     97  N          4.8350   10.9150   17.7060 N.3   123  PHE123     -0.1241
     98  CA         4.6820   12.2360   18.2860 C.3   123  PHE123      0.1605
     99  C          5.5270   13.3190   17.6550 C.2   123  PHE123      0.2264
    100  O          5.0570   14.4300   17.4870 O.2   123  PHE123     -0.2867
    101  CB         4.9600   12.1990   19.8270 C.3   123  PHE123      0.0534
    102  CG         4.9270   13.5820   20.4760 C.ar  123  PHE123     -0.0203
    103  CD1        3.7300   14.1690   20.8400 C.ar  123  PHE123     -0.0042
    104  CD2        6.0870   14.3030   20.7090 C.ar  123  PHE123     -0.0042
    105  CE1        3.6880   15.4540   21.4040 C.ar  123  PHE123     -0.0003
    106  CE2        6.0680   15.5940   21.2570 C.ar  123  PHE123     -0.0003
    107  CZ         4.8610   16.1520   21.6530 C.ar  123  PHE123     -0.0000
    108  N          2.3990   20.6830   25.3740 N.3   135  VAL135     -0.1245
    109  CA         1.6300   19.5460   25.8120 C.3   135  VAL135      0.1561
    110  C          1.1820   19.8220   27.2470 C.2   135  VAL135      0.2260
    111  O          2.0310   20.0040   28.1310 O.2   135  VAL135     -0.2867
    112  CB         2.4810   18.2850   25.7600 C.3   135  VAL135      0.0252
    113  CG1        1.7460   17.1170   26.3130 C.3   135  VAL135      0.0019
    114  CG2        2.8390   17.9270   24.3200 C.3   135  VAL135      0.0019
    115  N         -4.5030   14.5900   27.9790 N.3   169  THR169     -0.1218
    116  CA        -3.4940   15.3000   27.2960 C.3   169  THR169      0.1862
    117  C         -4.0490   16.1520   26.1950 C.2   169  THR169      0.2287
    118  O         -4.9010   15.7470   25.4080 O.2   169  THR169     -0.2866
    119  CB        -2.4980   14.3350   26.7030 C.3   169  THR169      0.1770
    120  OG1       -1.9980   13.5490   27.7700 O.3   169  THR169     -0.2211
    121  CG2       -1.3330   15.0580   25.9240 C.3   169  THR169      0.0375
    122  N         -2.4700   18.5190   23.2100 N.3   171  VAL171     -0.1245
    123  CA        -1.2920   18.8590   22.4170 C.3   171  VAL171      0.1561
    124  C         -1.6440   20.0860   21.5460 C.2   171  VAL171      0.2260
    125  O         -2.4920   19.9990   20.7000 O.2   171  VAL171     -0.2867
    126  CB        -0.8650   17.7210   21.5320 C.3   171  VAL171      0.0252
    127  CG1        0.2820   18.2020   20.6430 C.3   171  VAL171      0.0019
    128  CG2       -0.5190   16.5260   22.3810 C.3   171  VAL171      0.0019
@<TRIPOS>BOND
     1     1     2    1
     2     7     6    1
     3     6     5    1
     4     6     8    1
     5     5     2    1
     6     2     3    1
     7    52    50    1
     8   100    99    2
     9    99    98    1
    10    97    98    1
    11     3     4    2
    12    50    49    1
    13    98   101    1
    14     9    10    1
    15    49    51    1
    16    49    46    1
    17    45    46    1
    18   101   102    1
    19    15    14    2
    20    46    47    1
    21    16    14   am
    22    14    13    1
    23   102   104   ar
    24   102   103   ar
    25    10    13    1
    26    10    11    1
    27    29    28   ar
    28   127   126    1
    29   125   124    2
    30   104   106   ar
    31    30    28   ar
    32   103   105   ar
    33    17    11   am
    34    17    18    1
    35   106   107   ar
    36    28    27    1
    37    21    22    1
    38    21    18    1
    39   105   107   ar
    40    47    48    2
    41    11    12    2
    42   126   128    1
    43   126   123    1
    44   124   123    1
    45    18    19    1
    46    23    24    1
    47    19    20    2
    48   123   122    1
    49    27    24    1
    50    24    25    1
    51    57    54    1
    52    57    58    1
    53    60    58   ar
    54   114   112    1
    55    53    54    1
    56    25    31   am
    57    25    26    2
    58    31    32    1
    59    54    55    1
    60    58    59   ar
    61   108   109    1
    62   118   117    2
    63    92    91    2
    64   112   109    1
    65   112   113    1
    66   109   110    1
    67   121   119    1
    68    35    32    1
    69    32    33    1
    70    55    56    2
    71   117   116    1
    72    91    90    1
    73    33    34    2
    74   119   116    1
    75   119   120    1
    76    93    90    1
    77    93    94    1
    78   110   111    2
    79   116   115    1
    80    80    79    1
    81    36    37    1
    82    90    89    1
    83    95    94    1
    84    79    78    1
    85    96    94    1
    86    40    37    1
    87    40    41    1
    88    37    38    1
    89    78    77    1
    90    61    62    1
    91    42    41    1
    92    42    43    1
    93    38    39    2
    94    84    83    2
    95    67    65    1
    96    69    70    1
    97    69    63   am
    98    77    74    1
    99    70    71    1
   100    72    71    2
   101    83    82    1
   102    62    65    1
   103    62    63    1
   104    71    73   am
   105    65    66    1
   106    43    44    1
   107    73    74    1
   108    63    64    2
   109    85    82    1
   110    85    86    1
   111    74    75    1
   112    82    81    1
   113    87    86   ar
   114    86    88   ar
   115    66    68    1
   116    75    76    1
