@<TRIPOS>MOLECULE
tmp/5fngA00.pdb
 139 132 0 0 0
SMALL
GASTEIGER

@<TRIPOS>ATOM
      1  N         -3.4430    0.7480    3.4070 N.3    59  ASN59      -0.1240
      2  CA        -2.3340    1.5960    3.7460 C.3    59  ASN59       0.1653
      3  C         -1.0710    0.7580    4.0710 C.2    59  ASN59       0.2266
      4  O         -0.1630    1.2580    4.6710 O.2    59  ASN59      -0.2867
      5  CB        -2.7130    2.5060    4.9190 C.3    59  ASN59       0.1155
      6  CG        -2.9040    1.7480    6.2360 C.2    59  ASN59       0.2627
      7  OD1       -2.8010    0.5410    6.2970 O.2    59  ASN59      -0.2716
      8  ND2       -3.2020    2.4770    7.2940 N.am   59  ASN59      -0.0877
      9  N         -8.6650    0.5250    5.5860 N.3    64  ASN64      -0.1240
     10  CA        -9.3310    1.5410    6.3580 C.3    64  ASN64       0.1653
     11  C        -10.5120    1.9770    5.6080 C.2    64  ASN64       0.2266
     12  O        -10.4130    2.3240    4.4110 O.2    64  ASN64      -0.2867
     13  CB        -8.4290    2.7380    6.5440 C.3    64  ASN64       0.1155
     14  CG        -7.1700    2.3870    7.2700 C.2    64  ASN64       0.2627
     15  OD1       -6.1440    3.0270    7.0660 O.2    64  ASN64      -0.2716
     16  ND2       -7.2240    1.3950    8.1190 N.am   64  ASN64      -0.0877
     17  N        -13.9090    8.6400   12.7180 N.3    88  ILE88      -0.1231
     18  CA       -13.0010    9.0310   11.5920 C.3    88  ILE88       0.1692
     19  C        -12.8120    7.8920   10.5740 C.2    88  ILE88       0.2591
     20  O        -12.8140    8.1220    9.3990 O.2    88  ILE88      -0.2718
     21  CB       -11.6890    9.6360   12.0700 C.3    88  ILE88       0.0266
     22  CG1      -10.8020   10.0130   10.8440 C.3    88  ILE88       0.0019
     23  CG2      -10.9180    8.7080   13.0380 C.3    88  ILE88       0.0020
     24  CD1       -9.6160   10.8970   11.2220 C.3    88  ILE88       0.0001
     25  N        -12.6630    6.6690   11.0650 N.am   89  GLN89      -0.1979
     26  CA       -12.4540    5.5320   10.2150 C.3    89  GLN89       0.1601
     27  C        -12.6350    4.2780   11.0050 C.2    89  GLN89       0.2287
     28  O        -12.6210    4.3270   12.2390 O.2    89  GLN89      -0.2864
     29  CB       -11.0500    5.5560    9.6170 C.3    89  GLN89       0.0394
     30  CG        -9.9290    5.5380   10.6300 C.3    89  GLN89       0.0908
     31  CD        -9.2060    4.2050   10.6820 C.2    89  GLN89       0.2608
     32  OE1       -9.6810    3.2480   11.2900 O.2    89  GLN89      -0.2717
     33  NE2       -8.0600    4.1380   10.0430 N.am   89  GLN89      -0.0878
     34  N        -11.0820    0.0050   10.7990 N.3    91  HIS91      -0.1241
     35  CA       -10.2390   -1.0010   10.1560 C.3    91  HIS91       0.1621
     36  C        -10.2830   -2.2620   10.9900 C.2    91  HIS91       0.2264
     37  O        -10.9150   -2.3080   12.0690 O.2    91  HIS91      -0.2867
     38  CB        -8.8220   -0.5110   10.0850 C.3    91  HIS91       0.0745
     39  CG        -8.2520   -0.2240   11.4280 C.ar   91  HIS91       0.0817
     40  ND1       -8.3530    1.0190   11.9990 N.ar   91  HIS91      -0.2268
     41  CD2       -7.6670   -1.0240   12.3440 C.ar   91  HIS91       0.1154
     42  CE1       -7.8740    0.9610   13.2250 C.ar   91  HIS91       0.1986
     43  NE2       -7.4360   -0.2630   13.4410 N.ar   91  HIS91      -0.2212
     44  N         -7.9640   -5.8730   12.3910 N.3    93  HIS93      -0.1241
     45  CA        -6.7670   -6.7070   12.5340 C.3    93  HIS93       0.1621
     46  C         -7.2120   -8.1400   12.4590 C.2    93  HIS93       0.2264
     47  O         -8.2850   -8.4710   12.9980 O.2    93  HIS93      -0.2867
     48  CB        -6.1500   -6.4710   13.8700 C.3    93  HIS93       0.0745
     49  CG        -5.8700   -5.0350   14.1390 C.ar   93  HIS93       0.0817
     50  ND1       -4.6230   -4.4940   13.9590 N.ar   93  HIS93      -0.2268
     51  CD2       -6.6810   -4.0210   14.5220 C.ar   93  HIS93       0.1154
     52  CE1       -4.6680   -3.2070   14.2620 C.ar   93  HIS93       0.1986
     53  NE2       -5.9020   -2.9020   14.6020 N.ar   93  HIS93      -0.2212
     54  N        -11.9300   -2.2120   14.7120 N.3   116  HIS116     -0.1241
     55  CA       -11.7270   -0.9690   15.4650 C.3   116  HIS116      0.1621
     56  C        -12.3870    0.1690   14.7730 C.2   116  HIS116      0.2264
     57  O        -12.0410    0.5030   13.5980 O.2   116  HIS116     -0.2867
     58  CB       -10.2410   -0.6780   15.6100 C.3   116  HIS116      0.0745
     59  CG        -9.5470   -1.6470   16.4940 C.ar  116  HIS116      0.0817
     60  ND1       -8.1940   -1.8650   16.4670 N.ar  116  HIS116     -0.2268
     61  CD2      -10.0380   -2.4920   17.4220 C.ar  116  HIS116      0.1154
     62  CE1       -7.8810   -2.8050   17.3220 C.ar  116  HIS116      0.1986
     63  NE2       -8.9760   -3.1710   17.9440 N.ar  116  HIS116     -0.2212
     64  N        -12.7530    3.9760   15.1080 N.3   118  VAL118     -0.1245
     65  CA       -11.8820    4.9370   15.7120 C.3   118  VAL118      0.1561
     66  C        -12.5970    6.3060   15.7240 C.2   118  VAL118      0.2260
     67  O        -13.0730    6.7870   14.6900 O.2   118  VAL118     -0.2867
     68  CB       -10.5650    5.0700   14.9360 C.3   118  VAL118      0.0252
     69  CG1       -9.6040    6.0250   15.6370 C.3   118  VAL118      0.0019
     70  CG2       -9.8960    3.7010   14.7250 C.3   118  VAL118      0.0019
     71  N         -8.0150   15.4740   14.7200 N.3   127  PHE127     -0.1241
     72  CA        -7.5250   14.1450   15.1190 C.3   127  PHE127      0.1605
     73  C         -6.0950   14.2210   15.6180 C.2   127  PHE127      0.2264
     74  O         -5.7430   13.6260   16.6100 O.2   127  PHE127     -0.2867
     75  CB        -7.6150   13.2350   13.8900 C.3   127  PHE127      0.0534
     76  CG        -7.0390   11.9100   14.1010 C.ar  127  PHE127     -0.0203
     77  CD1       -7.7900   10.9240   14.6940 C.ar  127  PHE127     -0.0042
     78  CD2       -5.7510   11.6360   13.7150 C.ar  127  PHE127     -0.0042
     79  CE1       -7.2620    9.6690   14.9170 C.ar  127  PHE127     -0.0003
     80  CE2       -5.2100   10.3870   13.9210 C.ar  127  PHE127     -0.0003
     81  CZ        -5.9610    9.3940   14.5210 C.ar  127  PHE127     -0.0000
     82  N         -8.7880    9.8680   21.9590 N.3   137  LEU137     -0.1245
     83  CA        -9.5070    8.9300   21.0790 C.3   137  LEU137      0.1561
     84  C        -10.3550    7.9860   21.8910 C.2   137  LEU137      0.2260
     85  O        -10.0760    7.7150   23.0810 O.2   137  LEU137     -0.2867
     86  CB        -8.5170    8.1000   20.2810 C.3   137  LEU137      0.0270
     87  CG        -7.5470    8.8030   19.3360 C.3   137  LEU137      0.0019
     88  CD1       -6.8320    7.7810   18.5050 C.3   137  LEU137      0.0001
     89  CD2       -8.1830    9.8840   18.4600 C.3   137  LEU137      0.0001
     90  N        -11.7080    4.1780   20.9330 N.3   139  VAL139     -0.1245
     91  CA       -11.7930    3.1160   19.9560 C.3   139  VAL139      0.1561
     92  C        -12.7880    2.0440   20.4230 C.2   139  VAL139      0.2260
     93  O        -12.6870    1.5370   21.5690 O.2   139  VAL139     -0.2867
     94  CB       -10.4230    2.5150   19.5920 C.3   139  VAL139      0.0252
     95  CG1      -10.5520    1.5850   18.3770 C.3   139  VAL139      0.0019
     96  CG2       -9.4300    3.5860   19.2340 C.3   139  VAL139      0.0019
     97  N         -2.7730    3.4750   21.1740 N.3   194  LEU194     -0.1231
     98  CA        -2.8230    2.9010   19.8360 C.3   194  LEU194      0.1693
     99  C         -2.0710    1.5500   19.9200 C.2   194  LEU194      0.2593
    100  O         -1.1330    1.4050   20.6840 O.2   194  LEU194     -0.2718
    101  CB        -2.1290    3.7980   18.8170 C.3   194  LEU194      0.0284
    102  CG        -2.5010    5.2880   18.7310 C.3   194  LEU194      0.0019
    103  CD1       -1.6130    6.0330   17.7430 C.3   194  LEU194      0.0001
    104  CD2       -3.9940    5.4070   18.3670 C.3   194  LEU194      0.0001
    105  N         -2.4600    0.5920   19.0860 N.am  195  THR195     -0.1939
    106  CA        -1.8130   -0.6940   19.0150 C.3   195  THR195      0.2028
    107  C         -0.8300   -0.7250   17.8870 C.2   195  THR195      0.2642
    108  O         -0.2440   -1.7640   17.6140 O.2   195  THR195     -0.2714
    109  CB        -2.8320   -1.7800   18.7590 C.3   195  THR195      0.1808
    110  OG1       -3.4990   -1.4930   17.5180 O.3   195  THR195     -0.2208
    111  CG2       -3.8390   -1.7860   19.9340 C.3   195  THR195      0.0379
    112  N         -0.6570    0.3930   17.2090 N.am  196  THR196     -0.1950
    113  CA         0.4110    0.5200   16.2370 C.3   196  THR196      0.1897
    114  C          1.2900    1.7100   16.5550 C.2   196  THR196      0.2313
    115  O          0.8420    2.6300   17.2410 O.2   196  THR196     -0.2863
    116  CB        -0.1530    0.6980   14.8040 C.3   196  THR196      0.1794
    117  OG1       -0.8630    1.9290   14.6760 O.3   196  THR196     -0.2208
    118  CG2       -1.0790   -0.4150   14.4340 C.3   196  THR196      0.0378
    119  N         -5.9390    6.5770   24.0730 N.3   203  VAL203     -0.1245
    120  CA        -7.1980    5.8810   23.8370 C.3   203  VAL203      0.1561
    121  C         -7.9470    5.4590   25.1160 C.2   203  VAL203      0.2260
    122  O         -7.3790    4.8220   25.9870 O.2   203  VAL203     -0.2867
    123  CB        -6.9430    4.6180   23.0260 C.3   203  VAL203      0.0252
    124  CG1       -8.2640    3.9630   22.6170 C.3   203  VAL203      0.0019
    125  CG2       -6.0910    4.9410   21.7670 C.3   203  VAL203      0.0019
    126  N        -10.3570    2.6920   25.4850 N.3   205  TRP205     -0.1241
    127  CA       -10.8020    1.4860   24.8630 C.3   205  TRP205      0.1605
    128  C        -12.1760    1.0830   25.3520 C.2   205  TRP205      0.2264
    129  O        -12.4350    1.0870   26.5940 O.2   205  TRP205     -0.2867
    130  CB        -9.7660    0.3640   25.1050 C.3   205  TRP205      0.0550
    131  CG        -8.6910    0.4420   24.1070 C.ar  205  TRP205      0.0003
    132  CD1       -7.4500    0.9810   24.3020 C.ar  205  TRP205      0.0946
    133  CD2       -8.7620    0.0340   22.7270 C.ar  205  TRP205      0.0152
    134  NE1       -6.7570    0.9610   23.1040 N.ar  205  TRP205     -0.2442
    135  CE2       -7.5190    0.3440   22.1450 C.ar  205  TRP205      0.0810
    136  CE3       -9.7450   -0.5840   21.9380 C.ar  205  TRP205      0.0012
    137  CZ2       -7.2410    0.0910   20.8080 C.ar  205  TRP205      0.0191
    138  CZ3       -9.4660   -0.8400   20.6060 C.ar  205  TRP205      0.0001
    139  CH2       -8.2300   -0.5290   20.0650 C.ar  205  TRP205      0.0015
@<TRIPOS>BOND
     1     1     2    1
     2     2     3    1
     3     2     5    1
     4     3     4    2
     5    12    11    2
     6     5     6    1
     7     9    10    1
     8    11    10    1
     9     6     7    2
    10     6     8   am
    11    10    13    1
    12    13    14    1
    13    15    14    2
    14    14    16   am
    15    20    19    2
    16    29    26    1
    17    29    30    1
    18    33    31   am
    19    38    35    1
    20    38    39    1
    21    35    34    1
    22    35    36    1
    23    26    27    1
    24    26    25    1
    25    19    25   am
    26    19    18    1
    27    30    31    1
    28    31    32    2
    29    22    24    1
    30    22    21    1
    31    36    37    2
    32    27    28    2
    33    39    40   ar
    34    39    41   ar
    35    18    21    1
    36    18    17    1
    37    40    42   ar
    38    21    23    1
    39    41    43   ar
    40    44    45    1
    41    46    45    1
    42    46    47    2
    43    45    48    1
    44    42    43   ar
    45    57    56    2
    46    78    80   ar
    47    78    76   ar
    48    48    49    1
    49    75    76    1
    50    75    72    1
    51    80    81   ar
    52    50    49   ar
    53    50    52   ar
    54    76    77   ar
    55    49    51   ar
    56    52    53   ar
    57   118   116    1
    58    81    79   ar
    59    51    53   ar
    60   117   116    1
    61    67    66    2
    62    77    79   ar
    63    54    55    1
    64    71    72    1
    65    70    68    1
    66    56    55    1
    67   116   113    1
    68    68    69    1
    69    68    65    1
    70    64    65    1
    71    72    73    1
    72    55    58    1
    73    58    59    1
    74    73    74    2
    75    65    66    1
    76   113   114    1
    77   113   112    1
    78    60    59   ar
    79    60    62   ar
    80    59    61   ar
    81   114   115    2
    82   112   107   am
    83    62    63   ar
    84    61    63   ar
    85   110   109    1
    86   108   107    2
    87   103   102    1
    88   107   106    1
    89   104   102    1
    90    95    94    1
    91    89    87    1
    92    88    87    1
    93   102   101    1
    94   109   106    1
    95   109   111    1
    96   101    98    1
    97   106   105    1
    98   105    99   am
    99    96    94    1
   100    87    86    1
   101    94    91    1
   102    98    99    1
   103    98    97    1
   104    99   100    2
   105    91    92    1
   106    91    90    1
   107   139   138   ar
   108   139   137   ar
   109    86    83    1
   110    92    93    2
   111   138   136   ar
   112   137   135   ar
   113    83    84    1
   114    83    82    1
   115   125   123    1
   116    84    85    2
   117   136   133   ar
   118   135   133   ar
   119   135   134   ar
   120   124   123    1
   121   133   131   ar
   122   123   120    1
   123   134   132   ar
   124   120   119    1
   125   120   121    1
   126   131   132   ar
   127   131   130    1
   128   127   130    1
   129   127   128    1
   130   127   126    1
   131   121   122    2
   132   128   129    2
