@<TRIPOS>MOLECULE
tmp/5fnhA00.pdb
 120 119 0 0 0
SMALL
GASTEIGER

@<TRIPOS>ATOM
      1  N        -12.6900    6.6570   11.2540 N.3    89  GLN89      -0.1245
      2  CA       -12.4380    5.5490   10.4070 C.3    89  GLN89       0.1566
      3  C        -12.6430    4.2660   11.1680 C.2    89  GLN89       0.2260
      4  O        -12.7040    4.2870   12.3800 O.2    89  GLN89      -0.2867
      5  CB       -10.9780    5.5820    9.8380 C.3    89  GLN89       0.0367
      6  CG        -9.9150    5.4790   10.8730 C.3    89  GLN89       0.0905
      7  CD        -9.2300    4.1090   10.8350 C.2    89  GLN89       0.2608
      8  OE1       -9.6610    3.1650   11.4110 O.2    89  GLN89      -0.2717
      9  NE2       -8.1440    4.0590   10.1040 N.am   89  GLN89      -0.0878
     10  N        -11.1700   -0.0310   10.9330 N.3    91  HIS91      -0.1241
     11  CA       -10.2980   -1.0270   10.3160 C.3    91  HIS91       0.1621
     12  C        -10.3720   -2.2580   11.1670 C.2    91  HIS91       0.2264
     13  O        -11.0210   -2.2820   12.2120 O.2    91  HIS91      -0.2867
     14  CB        -8.8500   -0.5330   10.2610 C.3    91  HIS91       0.0745
     15  CG        -8.2910   -0.2500   11.6260 C.ar   91  HIS91       0.0817
     16  ND1       -8.5080    0.9110   12.2990 N.ar   91  HIS91      -0.2268
     17  CD2       -7.6860   -1.0660   12.5190 C.ar   91  HIS91       0.1154
     18  CE1       -8.0400    0.8440   13.5160 C.ar   91  HIS91       0.1986
     19  NE2       -7.5210   -0.3460   13.6670 N.ar   91  HIS91      -0.2212
     20  N         -8.0080   -5.9610   12.5140 N.3    93  HIS93      -0.1241
     21  CA        -6.8040   -6.7810   12.6920 C.3    93  HIS93       0.1621
     22  C         -7.2450   -8.2340   12.5950 C.2    93  HIS93       0.2264
     23  O         -8.3430   -8.5680   13.1240 O.2    93  HIS93      -0.2867
     24  CB        -6.1370   -6.5410   14.0520 C.3    93  HIS93       0.0745
     25  CG        -5.8910   -5.0960   14.3430 C.ar   93  HIS93       0.0817
     26  ND1       -4.6400   -4.5280   14.1790 N.ar   93  HIS93      -0.2268
     27  CD2       -6.7210   -4.1090   14.7230 C.ar   93  HIS93       0.1154
     28  CE1       -4.7100   -3.2490   14.5290 C.ar   93  HIS93       0.1986
     29  NE2       -5.9600   -2.9770   14.8110 N.ar   93  HIS93      -0.2212
     30  N        -12.0500   -2.2150   14.8830 N.3   116  HIS116     -0.1241
     31  CA       -11.8040   -0.9960   15.6360 C.3   116  HIS116      0.1621
     32  C        -12.4270    0.1430   14.9240 C.2   116  HIS116      0.2264
     33  O        -12.0280    0.5060   13.8070 O.2   116  HIS116     -0.2867
     34  CB       -10.2970   -0.7080   15.7700 C.3   116  HIS116      0.0745
     35  CG        -9.6200   -1.7100   16.6660 C.ar  116  HIS116      0.0817
     36  ND1       -8.2720   -1.9910   16.6230 N.ar  116  HIS116     -0.2268
     37  CD2      -10.1410   -2.5170   17.6010 C.ar  116  HIS116      0.1154
     38  CE1       -8.0060   -2.9180   17.5370 C.ar  116  HIS116      0.1986
     39  NE2       -9.1150   -3.2420   18.1480 N.ar  116  HIS116     -0.2212
     40  N        -12.6580    4.0110   15.2090 N.3   118  VAL118     -0.1245
     41  CA       -11.8310    5.0250   15.8600 C.3   118  VAL118      0.1561
     42  C        -12.5690    6.3520   15.8650 C.2   118  VAL118      0.2260
     43  O        -13.0600    6.8020   14.8290 O.2   118  VAL118     -0.2867
     44  CB       -10.4760    5.1320   15.1400 C.3   118  VAL118      0.0252
     45  CG1       -9.5730    6.1390   15.7920 C.3   118  VAL118      0.0019
     46  CG2       -9.7560    3.7750   15.0060 C.3   118  VAL118      0.0019
     47  N         -8.0620   15.5080   14.8540 N.3   127  PHE127     -0.1241
     48  CA        -7.4680   14.2280   15.2410 C.3   127  PHE127      0.1605
     49  C         -6.0610   14.3170   15.6950 C.2   127  PHE127      0.2264
     50  O         -5.6670   13.7090   16.6790 O.2   127  PHE127     -0.2867
     51  CB        -7.6140   13.2200   14.0500 C.3   127  PHE127      0.0534
     52  CG        -7.1070   11.8580   14.3200 C.ar  127  PHE127     -0.0203
     53  CD1       -7.9110   10.9430   14.9280 C.ar  127  PHE127     -0.0042
     54  CD2       -5.7820   11.4870   14.0170 C.ar  127  PHE127     -0.0042
     55  CE1       -7.4120    9.6710   15.2530 C.ar  127  PHE127     -0.0003
     56  CE2       -5.3130   10.2180   14.3500 C.ar  127  PHE127     -0.0003
     57  CZ        -6.1430    9.3300   14.9180 C.ar  127  PHE127     -0.0000
     58  N        -11.8830    4.1720   21.1000 N.3   139  VAL139     -0.1245
     59  CA       -11.8990    3.1150   20.1060 C.3   139  VAL139      0.1561
     60  C        -12.8930    2.0930   20.5990 C.2   139  VAL139      0.2260
     61  O        -12.7720    1.5840   21.7240 O.2   139  VAL139     -0.2867
     62  CB       -10.5050    2.5150   19.7690 C.3   139  VAL139      0.0252
     63  CG1      -10.6650    1.4310   18.6830 C.3   139  VAL139      0.0019
     64  CG2       -9.5690    3.6290   19.3300 C.3   139  VAL139      0.0019
     65  N         -3.9140    2.6550   24.7540 N.3   193  SER193     -0.1202
     66  CA        -3.0740    3.2920   23.7300 C.3   193  SER193      0.2020
     67  C         -3.5020    2.8750   22.2930 C.2   193  SER193      0.2619
     68  O         -4.2690    1.9660   22.1480 O.2   193  SER193     -0.2717
     69  CB        -1.5540    2.8860   23.9720 C.3   193  SER193      0.2103
     70  OG        -1.3740    1.5480   23.4510 O.3   193  SER193     -0.2182
     71  N         -2.9420    3.5570   21.2990 N.am  194  LEU194     -0.1965
     72  CA        -2.9750    2.9940   19.9330 C.3   194  LEU194      0.1728
     73  C         -2.1830    1.6830   20.0040 C.2   194  LEU194      0.2617
     74  O         -1.1630    1.5320   20.7440 O.2   194  LEU194     -0.2715
     75  CB        -2.3570    3.9580   18.9530 C.3   194  LEU194      0.0311
     76  CG        -2.9620    5.3490   18.8520 C.3   194  LEU194      0.0022
     77  CD1       -2.1040    6.2410   18.0120 C.3   194  LEU194      0.0001
     78  CD2       -4.3390    5.2380   18.3060 C.3   194  LEU194      0.0001
     79  N         -2.5870    0.7060   19.1660 N.am  195  THR195     -0.1937
     80  CA        -1.9050   -0.5710   19.0940 C.3   195  THR195      0.2028
     81  C         -0.9180   -0.7010   17.9440 C.2   195  THR195      0.2643
     82  O         -0.3420   -1.7930   17.7660 O.2   195  THR195     -0.2714
     83  CB        -2.9320   -1.6670   18.9560 C.3   195  THR195      0.1808
     84  OG1       -3.5900   -1.5480   17.6880 O.3   195  THR195     -0.2208
     85  CG2       -3.9130   -1.6470   20.1240 C.3   195  THR195      0.0379
     86  N         -0.7460    0.3670   17.1800 N.am  196  THR196     -0.1937
     87  CA         0.3390    0.4990   16.2060 C.3   196  THR196      0.2013
     88  C          1.1550    1.7460   16.5490 C.2   196  THR196      0.2484
     89  O          0.6710    2.6990   17.1850 O.2   196  THR196     -0.2729
     90  CB        -0.1500    0.7080   14.7570 C.3   196  THR196      0.1807
     91  OG1       -0.9400    1.8910   14.6550 O.3   196  THR196     -0.2208
     92  CG2       -0.9220   -0.4940   14.2530 C.3   196  THR196      0.0379
     93  N          2.4100    1.7930   16.0730 N.am  197  PRO197     -0.2715
     94  CA         3.1370    3.0400   16.1130 C.3   197  PRO197      0.1521
     95  C          2.2600    4.1740   15.6360 C.2   197  PRO197      0.2440
     96  O          1.5350    3.9840   14.6110 O.2   197  PRO197     -0.2731
     97  CB         4.3550    2.7540   15.1960 C.3   197  PRO197      0.0310
     98  CG         4.6380    1.2710   15.4160 C.3   197  PRO197      0.0237
     99  CD         3.2150    0.7010   15.4800 C.3   197  PRO197      0.0939
    100  N          2.2770    5.3240   16.2970 N.am  198  PRO198     -0.2727
    101  CA         3.1840    5.7580   17.3570 C.3   198  PRO198      0.1402
    102  C          2.8750    5.2990   18.8080 C.2   198  PRO198      0.2269
    103  O          3.5230    5.7820   19.7550 O.2   198  PRO198     -0.2865
    104  CB         3.0850    7.2640   17.2360 C.3   198  PRO198      0.0296
    105  CG         1.7490    7.5650   16.7520 C.3   198  PRO198      0.0237
    106  CD         1.4730    6.4560   15.7810 C.3   198  PRO198      0.0939
    107  N        -10.4760    2.7520   25.7370 N.3   205  TRP205     -0.1241
    108  CA       -10.9150    1.5230   25.0460 C.3   205  TRP205      0.1605
    109  C        -12.2990    1.1090   25.5380 C.2   205  TRP205      0.2264
    110  O        -12.5370    1.1070   26.7730 O.2   205  TRP205     -0.2867
    111  CB        -9.9360    0.3530   25.2840 C.3   205  TRP205      0.0550
    112  CG        -8.7840    0.4680   24.2580 C.ar  205  TRP205      0.0003
    113  CD1       -7.5570    1.0170   24.4150 C.ar  205  TRP205      0.0946
    114  CD2       -8.8560    0.0520   22.9060 C.ar  205  TRP205      0.0152
    115  NE1       -6.8670    0.9700   23.2550 N.ar  205  TRP205     -0.2442
    116  CE2       -7.6260    0.3780   22.2990 C.ar  205  TRP205      0.0810
    117  CE3       -9.8520   -0.6100   22.1400 C.ar  205  TRP205      0.0012
    118  CZ2       -7.3420    0.0750   20.9920 C.ar  205  TRP205      0.0191
    119  CZ3       -9.5860   -0.8560   20.8750 C.ar  205  TRP205      0.0001
    120  CH2       -8.3440   -0.5930   20.3030 C.ar  205  TRP205      0.0015
@<TRIPOS>BOND
     1     5     2    1
     2     5     6    1
     3     9     7   am
     4    14    11    1
     5    14    15    1
     6    11    10    1
     7    11    12    1
     8     2     3    1
     9     2     1    1
    10     7     6    1
    11     7     8    2
    12    12    13    2
    13     3     4    2
    14    15    16   ar
    15    15    17   ar
    16    16    18   ar
    17    20    21    1
    18    17    19   ar
    19    22    21    1
    20    22    23    2
    21    21    24    1
    22    18    19   ar
    23    33    32    2
    24    54    52   ar
    25    54    56   ar
    26    51    52    1
    27    51    48    1
    28    24    25    1
    29    26    25   ar
    30    26    28   ar
    31    92    90    1
    32    52    53   ar
    33    25    27   ar
    34    56    57   ar
    35    28    29   ar
    36    96    95    2
    37    91    90    1
    38    27    29   ar
    39    90    87    1
    40    43    42    2
    41    47    48    1
    42    30    31    1
    43    57    55   ar
    44    32    31    1
    45    53    55   ar
    46    46    44    1
    47    44    45    1
    48    44    41    1
    49    97    98    1
    50    97    94    1
    51    40    41    1
    52    48    49    1
    53    98    99    1
    54    99    93    1
    55    95    94    1
    56    95   100   am
    57    31    34    1
    58    49    50    2
    59    34    35    1
    60   106   100    1
    61   106   105    1
    62    41    42    1
    63    93    94    1
    64    93    88   am
    65    87    88    1
    66    87    86    1
    67   100   101    1
    68    88    89    2
    69    36    35   ar
    70    36    38   ar
    71    35    37   ar
    72   105   104    1
    73    86    81   am
    74   104   101    1
    75   101   102    1
    76    38    39   ar
    77    37    39   ar
    78    84    83    1
    79    82    81    2
    80    81    80    1
    81    77    76    1
    82    78    76    1
    83    63    62    1
    84   102   103    2
    85    76    75    1
    86    75    72    1
    87    83    80    1
    88    83    85    1
    89    80    79    1
    90    79    73   am
    91    64    62    1
    92    62    59    1
    93    72    73    1
    94    72    71    1
    95    73    74    2
    96    59    60    1
    97    59    58    1
    98   120   119   ar
    99   120   118   ar
   100    60    61    2
   101   119   117   ar
   102   118   116   ar
   103    71    67   am
   104   117   114   ar
   105    68    67    2
   106    67    66    1
   107   116   114   ar
   108   116   115   ar
   109   114   112   ar
   110   115   113   ar
   111    70    69    1
   112    66    69    1
   113    66    65    1
   114   112   113   ar
   115   112   111    1
   116   108   111    1
   117   108   109    1
   118   108   107    1
   119   109   110    2
