@<TRIPOS>MOLECULE
tmp/5fniA00.pdb
 150 142 0 0 0
SMALL
GASTEIGER

@<TRIPOS>ATOM
      1  N         -3.4830    0.7890    3.4360 N.3    60  ASN60      -0.1240
      2  CA        -2.3050    1.5870    3.8150 C.3    60  ASN60       0.1653
      3  C         -1.0360    0.7830    4.0910 C.2    60  ASN60       0.2266
      4  O         -0.0820    1.2920    4.7440 O.2    60  ASN60      -0.2867
      5  CB        -2.6610    2.4800    4.9720 C.3    60  ASN60       0.1155
      6  CG        -2.9100    1.7240    6.2460 C.2    60  ASN60       0.2627
      7  OD1       -2.8740    0.5240    6.2630 O.2    60  ASN60      -0.2716
      8  ND2       -3.1270    2.4650    7.3350 N.am   60  ASN60      -0.0877
      9  N         -3.3950   -2.3010    7.1790 N.3    63  ALA63      -0.1245
     10  CA        -4.7320   -2.8340    7.2710 C.3    63  ALA63       0.1562
     11  C         -5.5100   -2.2720    6.1080 C.2    63  ALA63       0.2260
     12  O         -4.9100   -1.6030    5.2550 O.2    63  ALA63      -0.2867
     13  CB        -5.3790   -2.5160    8.6170 C.3    63  ALA63       0.0290
     14  N         -8.8380    0.3400    5.5430 N.3    65  ASN65      -0.1240
     15  CA        -9.4310    1.3960    6.3440 C.3    65  ASN65       0.1653
     16  C        -10.5880    2.0330    5.5910 C.2    65  ASN65       0.2266
     17  O        -10.3870    2.5100    4.4900 O.2    65  ASN65      -0.2867
     18  CB        -8.3900    2.4210    6.6220 C.3    65  ASN65       0.1155
     19  CG        -7.1560    1.8030    7.3380 C.2    65  ASN65       0.2627
     20  OD1       -7.0770    1.8220    8.5220 O.2    65  ASN65      -0.2716
     21  ND2       -6.2120    1.1950    6.5520 N.am   65  ASN65      -0.0877
     22  N        -14.1090    8.7610   12.7730 N.3    89  ILE89      -0.1231
     23  CA       -13.2240    9.1350   11.6320 C.3    89  ILE89       0.1692
     24  C        -13.0280    7.9750   10.6780 C.2    89  ILE89       0.2591
     25  O        -13.0060    8.1250    9.4960 O.2    89  ILE89      -0.2718
     26  CB       -11.8800    9.7220   12.1100 C.3    89  ILE89       0.0266
     27  CG1      -10.9920   10.0540   10.9170 C.3    89  ILE89       0.0019
     28  CG2      -11.1190    8.7780   13.0540 C.3    89  ILE89       0.0020
     29  CD1       -9.8390   10.9800   11.3390 C.3    89  ILE89       0.0001
     30  N        -12.8990    6.7140   11.2040 N.am   90  GLN90      -0.1979
     31  CA       -12.6240    5.6080   10.3240 C.3    90  GLN90       0.1601
     32  C        -12.7890    4.3170   11.0800 C.2    90  GLN90       0.2287
     33  O        -12.8920    4.3370   12.2950 O.2    90  GLN90      -0.2864
     34  CB       -11.1800    5.6060    9.7430 C.3    90  GLN90       0.0394
     35  CG       -10.1020    5.5130   10.7520 C.3    90  GLN90       0.0908
     36  CD        -9.4390    4.1380   10.6970 C.2    90  GLN90       0.2608
     37  OE1       -9.8290    3.2380   11.4080 O.2    90  GLN90      -0.2717
     38  NE2       -8.5410    3.9700    9.7490 N.am   90  GLN90      -0.0878
     39  N        -11.2510    0.0040   10.8560 N.3    92  HIS92      -0.1241
     40  CA       -10.3290   -0.9580   10.2650 C.3    92  HIS92       0.1621
     41  C        -10.3800   -2.2100   11.0880 C.2    92  HIS92       0.2264
     42  O        -11.0820   -2.2720   12.1040 O.2    92  HIS92      -0.2867
     43  CB        -8.8870   -0.4460   10.2190 C.3    92  HIS92       0.0745
     44  CG        -8.3310   -0.1690   11.5870 C.ar   92  HIS92       0.0817
     45  ND1       -8.5850    0.9840   12.2900 N.ar   92  HIS92      -0.2268
     46  CD2       -7.7160   -0.9930   12.4710 C.ar   92  HIS92       0.1154
     47  CE1       -8.0700    0.9080   13.4980 C.ar   92  HIS92       0.1986
     48  NE2       -7.5450   -0.2760   13.6230 N.ar   92  HIS92      -0.2212
     49  N         -8.0120   -5.9100   12.3930 N.3    94  HIS94      -0.1241
     50  CA        -6.8210   -6.7220   12.5430 C.3    94  HIS94       0.1621
     51  C         -7.2660   -8.1760   12.4420 C.2    94  HIS94       0.2264
     52  O         -8.3690   -8.5180   12.9270 O.2    94  HIS94      -0.2867
     53  CB        -6.1300   -6.4870   13.8710 C.3    94  HIS94       0.0745
     54  CG        -5.9030   -5.0260   14.1670 C.ar   94  HIS94       0.0817
     55  ND1       -4.6790   -4.4230   13.9840 N.ar   94  HIS94      -0.2268
     56  CD2       -6.7540   -4.0790   14.5840 C.ar   94  HIS94       0.1154
     57  CE1       -4.7770   -3.1500   14.3750 C.ar   94  HIS94       0.1986
     58  NE2       -6.0490   -2.9190   14.6650 N.ar   94  HIS94      -0.2212
     59  N        -12.0980   -2.2050   14.7970 N.3   117  HIS117     -0.1241
     60  CA       -11.8830   -1.0010   15.5490 C.3   117  HIS117      0.1621
     61  C        -12.5170    0.1660   14.8410 C.2   117  HIS117      0.2264
     62  O        -12.1280    0.5470   13.7060 O.2   117  HIS117     -0.2867
     63  CB       -10.3530   -0.7180   15.6500 C.3   117  HIS117      0.0745
     64  CG        -9.6670   -1.7100   16.5510 C.ar  117  HIS117      0.0817
     65  ND1       -8.3060   -2.0140   16.5250 N.ar  117  HIS117     -0.2268
     66  CD2      -10.1930   -2.5230   17.4810 C.ar  117  HIS117      0.1154
     67  CE1       -8.0530   -2.9190   17.4380 C.ar  117  HIS117      0.1986
     68  NE2       -9.1550   -3.1890   18.0740 N.ar  117  HIS117     -0.2212
     69  N        -12.7540    4.0210   15.1730 N.3   119  VAL119     -0.1245
     70  CA       -11.9290    5.0460   15.7890 C.3   119  VAL119      0.1561
     71  C        -12.6500    6.3970   15.8020 C.2   119  VAL119      0.2260
     72  O        -13.1890    6.8400   14.7630 O.2   119  VAL119     -0.2867
     73  CB       -10.5880    5.1830   15.0210 C.3   119  VAL119      0.0252
     74  CG1       -9.7000    6.2340   15.6720 C.3   119  VAL119      0.0019
     75  CG2       -9.8470    3.8350   14.9400 C.3   119  VAL119      0.0019
     76  N         -8.2040   15.5920   14.7940 N.3   128  PHE128     -0.1241
     77  CA        -7.6070   14.2950   15.1680 C.3   128  PHE128      0.1605
     78  C         -6.1710   14.3870   15.6170 C.2   128  PHE128      0.2264
     79  O         -5.7380   13.7550   16.5890 O.2   128  PHE128     -0.2867
     80  CB        -7.7830   13.3420   13.9370 C.3   128  PHE128      0.0534
     81  CG        -7.2380   11.9650   14.1020 C.ar  128  PHE128     -0.0203
     82  CD1       -8.0020   10.9850   14.7160 C.ar  128  PHE128     -0.0042
     83  CD2       -5.8820   11.6880   13.8220 C.ar  128  PHE128     -0.0042
     84  CE1       -7.4800    9.7330   14.9010 C.ar  128  PHE128     -0.0003
     85  CE2       -5.3890   10.4380   14.0190 C.ar  128  PHE128     -0.0003
     86  CZ        -6.1890    9.4770   14.5330 C.ar  128  PHE128     -0.0000
     87  N         -4.8230   13.1340   19.4370 N.3   132  VAL132     -0.1245
     88  CA        -3.8960   12.0050   19.7710 C.3   132  VAL132      0.1561
     89  C         -2.7670   12.3770   20.7350 C.2   132  VAL132      0.2260
     90  O         -2.1240   11.5360   21.2690 O.2   132  VAL132     -0.2867
     91  CB        -3.3110   11.2290   18.5660 C.3   132  VAL132      0.0252
     92  CG1       -4.4110   10.7060   17.6670 C.3   132  VAL132      0.0019
     93  CG2       -2.3880   12.1280   17.7720 C.3   132  VAL132      0.0019
     94  N         -8.9170    9.9430   22.0800 N.3   138  LEU138     -0.1245
     95  CA        -9.6440    8.9920   21.2110 C.3   138  LEU138      0.1561
     96  C        -10.4910    8.0500   22.0260 C.2   138  LEU138      0.2260
     97  O        -10.1490    7.7240   23.1580 O.2   138  LEU138     -0.2867
     98  CB        -8.6750    8.1710   20.3750 C.3   138  LEU138      0.0270
     99  CG        -7.7520    8.8370   19.3630 C.3   138  LEU138      0.0019
    100  CD1       -7.0060    7.8340   18.5350 C.3   138  LEU138      0.0001
    101  CD2       -8.2860    9.9340   18.4950 C.3   138  LEU138      0.0001
    102  N        -11.8700    4.1770   21.0110 N.3   140  VAL140     -0.1245
    103  CA       -11.8820    3.1110   20.0090 C.3   140  VAL140      0.1561
    104  C        -12.8860    2.0840   20.5170 C.2   140  VAL140      0.2260
    105  O        -12.7590    1.5890   21.6560 O.2   140  VAL140     -0.2867
    106  CB       -10.4630    2.5310   19.6840 C.3   140  VAL140      0.0252
    107  CG1      -10.6420    1.4640   18.5870 C.3   140  VAL140      0.0019
    108  CG2       -9.5330    3.6290   19.2230 C.3   140  VAL140      0.0019
    109  N         -3.8800    2.6470   24.6880 N.3   194  SER194     -0.1202
    110  CA        -3.0700    3.2600   23.6580 C.3   194  SER194      0.2020
    111  C         -3.4600    2.8700   22.2360 C.2   194  SER194      0.2619
    112  O         -4.2320    1.9570   22.0460 O.2   194  SER194     -0.2717
    113  CB        -1.5550    2.8980   23.8580 C.3   194  SER194      0.2103
    114  OG        -1.3470    1.5540   23.3730 O.3   194  SER194     -0.2182
    115  N         -2.8720    3.5560   21.2560 N.am  195  LEU195     -0.1965
    116  CA        -2.8980    3.0090   19.8870 C.3   195  LEU195      0.1728
    117  C         -2.1220    1.6760   19.9300 C.2   195  LEU195      0.2617
    118  O         -1.1150    1.5050   20.6460 O.2   195  LEU195     -0.2715
    119  CB        -2.2210    3.9550   18.9320 C.3   195  LEU195      0.0311
    120  CG        -2.6820    5.3870   18.8910 C.3   195  LEU195      0.0022
    121  CD1       -1.8240    6.1890   17.9490 C.3   195  LEU195      0.0001
    122  CD2       -4.1460    5.3850   18.5330 C.3   195  LEU195      0.0001
    123  N         -2.4820    0.7660   19.0370 N.am  196  THR196     -0.1937
    124  CA        -1.8460   -0.5460   18.9550 C.3   196  THR196      0.2028
    125  C         -0.8350   -0.7210   17.8320 C.2   196  THR196      0.2642
    126  O         -0.2570   -1.8030   17.6480 O.2   196  THR196     -0.2714
    127  CB        -2.8620   -1.6650   18.8020 C.3   196  THR196      0.1808
    128  OG1       -3.5420   -1.5110   17.5550 O.3   196  THR196     -0.2208
    129  CG2       -3.8790   -1.6810   19.9560 C.3   196  THR196      0.0379
    130  N         -0.5610    0.3780   17.1360 N.am  197  THR197     -0.1950
    131  CA         0.5480    0.4720   16.1640 C.3   197  THR197      0.1897
    132  C          1.3340    1.7350   16.5240 C.2   197  THR197      0.2313
    133  O          0.8260    2.6750   17.1390 O.2   197  THR197     -0.2863
    134  CB         0.0640    0.6680   14.7140 C.3   197  THR197      0.1794
    135  OG1       -0.7390    1.8520   14.5680 O.3   197  THR197     -0.2208
    136  CG2       -0.6820   -0.5080   14.2050 C.3   197  THR197      0.0378
    137  N        -10.4990    2.7410   25.6510 N.3   206  TRP206     -0.1241
    138  CA       -10.9220    1.5190   24.9830 C.3   206  TRP206      0.1605
    139  C        -12.2910    1.0850   25.4500 C.2   206  TRP206      0.2264
    140  O        -12.5410    1.0970   26.6730 O.2   206  TRP206     -0.2867
    141  CB        -9.9140    0.3370   25.1670 C.3   206  TRP206      0.0550
    142  CG        -8.8180    0.4590   24.1890 C.ar  206  TRP206      0.0003
    143  CD1       -7.5730    0.9940   24.3800 C.ar  206  TRP206      0.0946
    144  CD2       -8.8660    0.0170   22.8370 C.ar  206  TRP206      0.0152
    145  NE1       -6.8560    0.9450   23.2080 N.ar  206  TRP206     -0.2442
    146  CE2       -7.6400    0.3350   22.2530 C.ar  206  TRP206      0.0810
    147  CE3       -9.8720   -0.6140   22.0340 C.ar  206  TRP206      0.0012
    148  CZ2       -7.3830    0.0250   20.9530 C.ar  206  TRP206      0.0191
    149  CZ3       -9.5840   -0.9010   20.7640 C.ar  206  TRP206      0.0001
    150  CH2       -8.3770   -0.6010   20.2280 C.ar  206  TRP206      0.0015
@<TRIPOS>BOND
     1     1     2    1
     2     2     3    1
     3     2     5    1
     4     3     4    2
     5    17    16    2
     6     5     6    1
     7    12    11    2
     8    14    15    1
     9    16    15    1
    10    11    10    1
    11     6     7    2
    12     6     8   am
    13    15    18    1
    14    21    19   am
    15    18    19    1
    16     9    10    1
    17    10    13    1
    18    19    20    2
    19    25    24    2
    20    34    31    1
    21    34    35    1
    22    38    36   am
    23    43    40    1
    24    43    44    1
    25    40    39    1
    26    40    41    1
    27    31    32    1
    28    31    30    1
    29    24    30   am
    30    24    23    1
    31    36    35    1
    32    36    37    2
    33    27    29    1
    34    27    26    1
    35    32    33    2
    36    41    42    2
    37    44    45   ar
    38    44    46   ar
    39    23    26    1
    40    23    22    1
    41    26    28    1
    42    45    47   ar
    43    49    50    1
    44    51    50    1
    45    51    52    2
    46    46    48   ar
    47    50    53    1
    48    47    48   ar
    49    62    61    2
    50    83    85   ar
    51    83    81   ar
    52    53    54    1
    53    80    81    1
    54    80    77    1
    55    55    54   ar
    56    55    57   ar
    57    85    86   ar
    58    81    82   ar
    59    54    56   ar
    60   136   134    1
    61    57    58   ar
    62    86    84   ar
    63   135   134    1
    64    56    58   ar
    65   134   131    1
    66    82    84   ar
    67    72    71    2
    68    76    77    1
    69    59    60    1
    70    61    60    1
    71    75    73    1
    72    73    74    1
    73    73    70    1
    74    77    78    1
    75    69    70    1
    76    60    63    1
    77    78    79    2
    78    63    64    1
    79    70    71    1
    80   131   132    1
    81   131   130    1
    82   132   133    2
    83    65    64   ar
    84    65    67   ar
    85    64    66   ar
    86   130   125   am
    87    67    68   ar
    88    66    68   ar
    89   128   127    1
    90   126   125    2
    91    92    91    1
    92    93    91    1
    93   125   124    1
    94   121   120    1
    95   101    99    1
    96   122   120    1
    97   100    99    1
    98    91    88    1
    99   107   106    1
   100   127   124    1
   101   127   129    1
   102   120   119    1
   103   119   116    1
   104   124   123    1
   105   123   117   am
   106   108   106    1
   107    99    98    1
   108    87    88    1
   109   106   103    1
   110    88    89    1
   111   116   117    1
   112   116   115    1
   113   117   118    2
   114   103   104    1
   115   103   102    1
   116   150   149   ar
   117   150   148   ar
   118    98    95    1
   119   104   105    2
   120    89    90    2
   121   149   147   ar
   122   148   146   ar
   123    95    96    1
   124    95    94    1
   125   115   111   am
   126    96    97    2
   127   147   144   ar
   128   112   111    2
   129   111   110    1
   130   146   144   ar
   131   146   145   ar
   132   144   142   ar
   133   145   143   ar
   134   114   113    1
   135   110   113    1
   136   110   109    1
   137   142   143   ar
   138   142   141    1
   139   138   141    1
   140   138   139    1
   141   138   137    1
   142   139   140    2
