@<TRIPOS>MOLECULE
tmp/5fnjA00.pdb
 124 119 0 0 0
SMALL
GASTEIGER

@<TRIPOS>ATOM
      1  N         -8.6590    0.4280    5.6900 N.3    65  ASN65      -0.1240
      2  CA        -9.3120    1.4450    6.5110 C.3    65  ASN65       0.1653
      3  C        -10.4900    1.9800    5.7150 C.2    65  ASN65       0.2266
      4  O        -10.3360    2.3490    4.5540 O.2    65  ASN65      -0.2867
      5  CB        -8.4290    2.6490    6.7600 C.3    65  ASN65       0.1155
      6  CG        -7.1360    2.3610    7.5340 C.2    65  ASN65       0.2627
      7  OD1       -6.9820    1.3880    8.2860 O.2    65  ASN65      -0.2716
      8  ND2       -6.1870    3.3480    7.4110 N.am   65  ASN65      -0.0877
      9  N        -14.1210    8.7290   12.7780 N.3    89  ILE89      -0.1231
     10  CA       -13.2210    9.1210   11.6710 C.3    89  ILE89       0.1692
     11  C        -12.9340    7.9490   10.7480 C.2    89  ILE89       0.2591
     12  O        -12.8210    8.1030    9.5380 O.2    89  ILE89      -0.2718
     13  CB       -11.9310    9.7900   12.1650 C.3    89  ILE89       0.0266
     14  CG1      -11.0180   10.1700   10.9710 C.3    89  ILE89       0.0019
     15  CG2      -11.1530    8.8930   13.1560 C.3    89  ILE89       0.0020
     16  CD1       -9.8630   11.0670   11.4170 C.3    89  ILE89       0.0001
     17  N        -12.7980    6.7100   11.2990 N.am   90  GLN90      -0.1979
     18  CA       -12.4840    5.6190   10.4290 C.3    90  GLN90       0.1601
     19  C        -12.6710    4.3030   11.1610 C.2    90  GLN90       0.2287
     20  O        -12.7500    4.3070   12.3990 O.2    90  GLN90      -0.2864
     21  CB       -11.0140    5.6490    9.9270 C.3    90  GLN90       0.0394
     22  CG        -9.9590    5.5080   10.8660 C.3    90  GLN90       0.0908
     23  CD        -9.2350    4.1160   10.7660 C.2    90  GLN90       0.2608
     24  OE1       -9.6750    3.1810   11.3320 O.2    90  GLN90      -0.2717
     25  NE2       -8.1960    4.0400    9.9870 N.am   90  GLN90      -0.0878
     26  N        -11.1760   -0.0100   10.9020 N.3    92  HIS92      -0.1241
     27  CA       -10.3210   -0.9890   10.2920 C.3    92  HIS92       0.1621
     28  C        -10.4000   -2.2530   11.1320 C.2    92  HIS92       0.2264
     29  O        -11.0570   -2.2720   12.1790 O.2    92  HIS92      -0.2867
     30  CB        -8.8810   -0.5010   10.2710 C.3    92  HIS92       0.0745
     31  CG        -8.3360   -0.2190   11.6390 C.ar   92  HIS92       0.0817
     32  ND1       -8.4580    0.9900   12.2780 N.ar   92  HIS92      -0.2268
     33  CD2       -7.7210   -1.0340   12.5140 C.ar   92  HIS92       0.1154
     34  CE1       -7.9500    0.9020   13.4950 C.ar   92  HIS92       0.1986
     35  NE2       -7.5160   -0.3230   13.6680 N.ar   92  HIS92      -0.2212
     36  N         -8.0960   -6.0050   12.4480 N.3    94  HIS94      -0.1241
     37  CA        -6.8840   -6.8010   12.6310 C.3    94  HIS94       0.1621
     38  C         -7.3480   -8.2420   12.5140 C.2    94  HIS94       0.2264
     39  O         -8.4210   -8.5690   13.0140 O.2    94  HIS94      -0.2867
     40  CB        -6.2620   -6.5700   13.9900 C.3    94  HIS94       0.0745
     41  CG        -5.9790   -5.1270   14.3020 C.ar   94  HIS94       0.0817
     42  ND1       -4.7530   -4.5540   14.0570 N.ar   94  HIS94      -0.2268
     43  CD2       -6.7830   -4.1420   14.7340 C.ar   94  HIS94       0.1154
     44  CE1       -4.8030   -3.2770   14.4010 C.ar   94  HIS94       0.1986
     45  NE2       -6.0130   -2.9920   14.7770 N.ar   94  HIS94      -0.2212
     46  N        -11.9950   -2.2060   14.8920 N.3   117  HIS117     -0.1241
     47  CA       -11.7740   -0.9610   15.5980 C.3   117  HIS117      0.1621
     48  C        -12.4690    0.1910   14.9020 C.2   117  HIS117      0.2264
     49  O        -12.0740    0.5450   13.7920 O.2   117  HIS117     -0.2867
     50  CB       -10.2890   -0.6600   15.7110 C.3   117  HIS117      0.0745
     51  CG        -9.5960   -1.6070   16.6250 C.ar  117  HIS117      0.0817
     52  ND1       -8.2280   -1.8060   16.6170 N.ar  117  HIS117     -0.2268
     53  CD2      -10.0980   -2.4360   17.5720 C.ar  117  HIS117      0.1154
     54  CE1       -7.9380   -2.7410   17.4990 C.ar  117  HIS117      0.1986
     55  NE2       -9.0390   -3.1280   18.1040 N.ar  117  HIS117     -0.2212
     56  N        -12.8120    4.0710   15.2160 N.3   119  VAL119     -0.1245
     57  CA       -11.9490    5.0590   15.7970 C.3   119  VAL119      0.1561
     58  C        -12.6880    6.4150   15.8470 C.2   119  VAL119      0.2260
     59  O        -13.2140    6.8670   14.8340 O.2   119  VAL119     -0.2867
     60  CB       -10.6450    5.2180   15.0170 C.3   119  VAL119      0.0252
     61  CG1       -9.7850    6.3100   15.6660 C.3   119  VAL119      0.0019
     62  CG2       -9.8800    3.9080   14.9900 C.3   119  VAL119      0.0019
     63  N         -8.1440   15.3130   14.8680 N.3   128  PHE128     -0.1241
     64  CA        -7.5150   14.0710   15.2700 C.3   128  PHE128      0.1605
     65  C         -6.0950   14.2140   15.7480 C.2   128  PHE128      0.2264
     66  O         -5.7060   13.5930   16.7630 O.2   128  PHE128     -0.2867
     67  CB        -7.6000   13.0680   14.1140 C.3   128  PHE128      0.0534
     68  CG        -7.0250   11.7310   14.4310 C.ar  128  PHE128     -0.0203
     69  CD1       -7.7740   10.7530   15.0140 C.ar  128  PHE128     -0.0042
     70  CD2       -5.7040   11.4610   14.1080 C.ar  128  PHE128     -0.0042
     71  CE1       -7.1790    9.5000   15.2740 C.ar  128  PHE128     -0.0003
     72  CE2       -5.1300   10.2370   14.3430 C.ar  128  PHE128     -0.0003
     73  CZ        -5.8720    9.2480   14.9250 C.ar  128  PHE128     -0.0000
     74  N         -8.9920    9.9450   22.1900 N.3   138  LEU138     -0.1245
     75  CA        -9.7340    8.9770   21.3330 C.3   138  LEU138      0.1561
     76  C        -10.6000    8.0470   22.1230 C.2   138  LEU138      0.2260
     77  O        -10.3150    7.7420   23.2690 O.2   138  LEU138     -0.2867
     78  CB        -8.7460    8.1140   20.5260 C.3   138  LEU138      0.0270
     79  CG        -7.7870    8.8000   19.5660 C.3   138  LEU138      0.0019
     80  CD1       -6.9970    7.8020   18.7470 C.3   138  LEU138      0.0001
     81  CD2       -8.3280    9.8880   18.7010 C.3   138  LEU138      0.0001
     82  N        -11.9660    4.2710   21.1280 N.3   140  VAL140     -0.1245
     83  CA       -11.9760    3.1840   20.1330 C.3   140  VAL140      0.1561
     84  C        -12.9610    2.1420   20.6070 C.2   140  VAL140      0.2260
     85  O        -12.8070    1.5850   21.7060 O.2   140  VAL140     -0.2867
     86  CB       -10.5640    2.5950   19.7790 C.3   140  VAL140      0.0252
     87  CG1      -10.6620    1.5320   18.6870 C.3   140  VAL140      0.0019
     88  CG2       -9.6600    3.7010   19.3630 C.3   140  VAL140      0.0019
     89  N         -2.9400    3.5580   21.2750 N.3   195  LEU195     -0.1231
     90  CA        -3.0060    3.0510   19.9140 C.3   195  LEU195      0.1693
     91  C         -2.2540    1.7120   19.9230 C.2   195  LEU195      0.2593
     92  O         -1.2380    1.5720   20.6180 O.2   195  LEU195     -0.2718
     93  CB        -2.2780    3.9940   18.9710 C.3   195  LEU195      0.0284
     94  CG        -2.6250    5.4620   19.0430 C.3   195  LEU195      0.0019
     95  CD1       -1.7150    6.2440   18.1170 C.3   195  LEU195      0.0001
     96  CD2       -4.0740    5.6730   18.7640 C.3   195  LEU195      0.0001
     97  N         -2.7380    0.7480   19.1230 N.am  196  THR196     -0.1939
     98  CA        -2.0480   -0.5500   19.0660 C.3   196  THR196      0.2028
     99  C         -1.0530   -0.6650   17.9570 C.2   196  THR196      0.2642
    100  O         -0.4720   -1.7390   17.7910 O.2   196  THR196     -0.2714
    101  CB        -3.0650   -1.6740   18.9130 C.3   196  THR196      0.1808
    102  OG1       -3.7260   -1.5210   17.6560 O.3   196  THR196     -0.2208
    103  CG2       -4.0370   -1.7160   20.1070 C.3   196  THR196      0.0379
    104  N         -0.8270    0.4030   17.2250 N.am  197  THR197     -0.1950
    105  CA         0.3070    0.5340   16.2940 C.3   197  THR197      0.1897
    106  C          1.1230    1.7590   16.6030 C.2   197  THR197      0.2313
    107  O          0.6450    2.7220   17.2310 O.2   197  THR197     -0.2863
    108  CB        -0.1390    0.6720   14.8230 C.3   197  THR197      0.1794
    109  OG1       -0.8220    1.9400   14.5760 O.3   197  THR197     -0.2208
    110  CG2       -1.0310   -0.4850   14.3720 C.3   197  THR197      0.0378
    111  N        -10.6080    2.7420   25.6700 N.3   206  TRP206     -0.1241
    112  CA       -11.0600    1.5400   24.9680 C.3   206  TRP206      0.1605
    113  C        -12.4270    1.1480   25.4980 C.2   206  TRP206      0.2264
    114  O        -12.6630    1.1380   26.7170 O.2   206  TRP206     -0.2867
    115  CB       -10.0600    0.3650   25.1890 C.3   206  TRP206      0.0550
    116  CG        -8.8690    0.4880   24.2720 C.ar  206  TRP206      0.0003
    117  CD1       -7.6670    1.0690   24.5410 C.ar  206  TRP206      0.0946
    118  CD2       -8.8270    0.1000   22.9110 C.ar  206  TRP206      0.0152
    119  NE1       -6.8810    1.0400   23.4290 N.ar  206  TRP206     -0.2442
    120  CE2       -7.5670    0.4530   22.4130 C.ar  206  TRP206      0.0810
    121  CE3       -9.7490   -0.5220   22.0510 C.ar  206  TRP206      0.0012
    122  CZ2       -7.1910    0.1670   21.1380 C.ar  206  TRP206      0.0191
    123  CZ3       -9.3570   -0.7780   20.7570 C.ar  206  TRP206      0.0001
    124  CH2       -8.1080   -0.4730   20.3410 C.ar  206  TRP206      0.0015
@<TRIPOS>BOND
     1     4     3    2
     2     1     2    1
     3     3     2    1
     4     2     5    1
     5     5     6    1
     6     8     6   am
     7     6     7    2
     8    12    11    2
     9    21    18    1
    10    21    22    1
    11    25    23   am
    12    30    27    1
    13    30    31    1
    14    27    26    1
    15    27    28    1
    16    18    19    1
    17    18    17    1
    18    11    17   am
    19    11    10    1
    20    23    22    1
    21    23    24    2
    22    14    16    1
    23    14    13    1
    24    28    29    2
    25    19    20    2
    26    31    32   ar
    27    31    33   ar
    28    10    13    1
    29    10     9    1
    30    13    15    1
    31    32    34   ar
    32    36    37    1
    33    38    37    1
    34    38    39    2
    35    33    35   ar
    36    37    40    1
    37    34    35   ar
    38    49    48    2
    39    40    41    1
    40    42    41   ar
    41    42    44   ar
    42    70    72   ar
    43    70    68   ar
    44    67    68    1
    45    67    64    1
    46    41    43   ar
    47    72    73   ar
    48   110   108    1
    49    44    45   ar
    50    68    69   ar
    51   109   108    1
    52    43    45   ar
    53   108   105    1
    54    59    58    2
    55    63    64    1
    56    46    47    1
    57    48    47    1
    58    73    71   ar
    59    62    60    1
    60    69    71   ar
    61    60    61    1
    62    60    57    1
    63    56    57    1
    64    64    65    1
    65    47    50    1
    66    50    51    1
    67    65    66    2
    68    57    58    1
    69   105   106    1
    70   105   104    1
    71   106   107    2
    72    52    51   ar
    73    52    54   ar
    74    51    53   ar
    75   104    99   am
    76    54    55   ar
    77    53    55   ar
    78   102   101    1
    79   100    99    2
    80    99    98    1
    81    95    94    1
    82    87    86    1
    83    81    79    1
    84    80    79    1
    85    96    94    1
    86   101    98    1
    87   101   103    1
    88    93    94    1
    89    93    90    1
    90    98    97    1
    91    97    91   am
    92    88    86    1
    93    79    78    1
    94    86    83    1
    95    90    91    1
    96    90    89    1
    97    91    92    2
    98    83    84    1
    99    83    82    1
   100   124   123   ar
   101   124   122   ar
   102    78    75    1
   103    84    85    2
   104   123   121   ar
   105   122   120   ar
   106    75    76    1
   107    75    74    1
   108   121   118   ar
   109    76    77    2
   110   120   118   ar
   111   120   119   ar
   112   118   116   ar
   113   119   117   ar
   114   116   117   ar
   115   116   115    1
   116   112   115    1
   117   112   113    1
   118   112   111    1
   119   113   114    2
