@<TRIPOS>MOLECULE
tmp/5fnoB00.pdb
 95 90 0 0 0
SMALL
GASTEIGER

@<TRIPOS>ATOM
      1  N          9.0270   67.8370  113.8690 N.3   108  ARG108     -0.1231
      2  CA         8.4400   69.1400  113.5720 C.3   108  ARG108      0.1694
      3  C          7.3860   69.0160  112.4770 C.2   108  ARG108      0.2592
      4  O          7.6440   68.4460  111.4120 O.2   108  ARG108     -0.2718
      5  CB         9.5360   70.1270  113.1500 C.3   108  ARG108      0.0321
      6  CG        10.5490   70.4630  114.2440 C.3   108  ARG108      0.0489
      7  CD        11.7410   71.2470  113.6940 C.3   108  ARG108      0.2205
      8  NE        12.6740   70.4020  112.9430 N.pl3 108  ARG108     -0.0865
      9  CZ        13.8260   69.9340  113.4240 C.cat 108  ARG108      0.5346
     10  NH1       14.2060   70.2240  114.6660 N.pl3 108  ARG108      0.1354
     11  NH2       14.6030   69.1780  112.6590 N.pl3 108  ARG108      0.1354
     12  N          6.1930   69.5530  112.7410 N.am  109  GLY109     -0.1957
     13  CA         5.0700   69.4780  111.8240 C.3   109  GLY109      0.1869
     14  C          3.9610   68.5410  112.2660 C.2   109  GLY109      0.2309
     15  O          2.8350   68.6630  111.7710 O.2   109  GLY109     -0.2863
     16  N          1.7240   70.8180  114.4990 N.3   112  GLU112     -0.1231
     17  CA         1.2970   72.0390  113.8190 C.3   112  GLU112      0.1699
     18  C          0.3830   71.7570  112.6320 C.2   112  GLU112      0.2592
     19  O         -0.4830   72.5790  112.3130 O.2   112  GLU112     -0.2718
     20  CB         2.5200   72.8310  113.3570 C.3   112  GLU112      0.0402
     21  CG         3.4360   73.3020  114.4910 C.3   112  GLU112      0.1161
     22  CD         4.4660   72.2550  114.9050 C.2   112  GLU112      0.3649
     23  OE1        4.3870   71.0900  114.4450 O.co2 112  GLU112     -0.2457
     24  OE2        5.3640   72.6020  115.6970 O.co2 112  GLU112     -0.2457
     25  N          0.5550   70.6160  111.9680 N.am  113  ASN113     -0.1974
     26  CA        -0.2020   70.2780  110.7660 C.3   113  ASN113      0.1688
     27  C         -1.0820   69.0480  110.9930 C.2   113  ASN113      0.2292
     28  O         -1.3190   68.2710  110.0660 O.2   113  ASN113     -0.2864
     29  CB         0.7480   70.0540  109.5790 C.3   113  ASN113      0.1181
     30  CG         1.6870   71.2490  109.3370 C.2   113  ASN113      0.2629
     31  OD1        1.3240   72.3900  109.6310 O.2   113  ASN113     -0.2716
     32  ND2        2.8990   70.9850  108.8020 N.am  113  ASN113     -0.0877
     33  N         -3.8270   67.5870  108.5910 N.3   116  SER116     -0.1217
     34  CA        -3.5150   67.4280  107.1760 C.3   116  SER116      0.1889
     35  C         -3.8080   66.0110  106.6940 C.2   116  SER116      0.2288
     36  O         -3.3160   65.0330  107.2650 O.2   116  SER116     -0.2866
     37  CB        -2.0450   67.7650  106.9330 C.3   116  SER116      0.2089
     38  OG        -1.6170   67.3090  105.6660 O.3   116  SER116     -0.2183
     39  N         -2.6710   64.8820  103.8770 N.3   118  LEU118     -0.1245
     40  CA        -1.4280   64.3800  103.3010 C.3   118  LEU118      0.1561
     41  C         -0.4960   63.8390  104.3790 C.2   118  LEU118      0.2260
     42  O          0.2420   62.8770  104.1370 O.2   118  LEU118     -0.2867
     43  CB        -0.7410   65.4850  102.4930 C.3   118  LEU118      0.0270
     44  CG         0.5660   65.0890  101.7960 C.3   118  LEU118      0.0019
     45  CD1        0.3280   64.0240  100.7300 C.3   118  LEU118      0.0001
     46  CD2        1.2330   66.3060  101.1760 C.3   118  LEU118      0.0001
     47  N         11.5820   72.3800  105.7910 N.3   541  PHE541     -0.1241
     48  CA        10.4010   72.4630  104.9470 C.3   541  PHE541      0.1605
     49  C         10.7110   73.3090  103.7230 C.2   541  PHE541      0.2264
     50  O         11.4890   74.2640  103.7850 O.2   541  PHE541     -0.2867
     51  CB         9.2170   73.0680  105.7050 C.3   541  PHE541      0.0534
     52  CG         8.7210   72.2180  106.8390 C.ar  541  PHE541     -0.0203
     53  CD1        8.0150   71.0510  106.5890 C.ar  541  PHE541     -0.0042
     54  CD2        8.9550   72.5880  108.1510 C.ar  541  PHE541     -0.0042
     55  CE1        7.5550   70.2660  107.6250 C.ar  541  PHE541     -0.0003
     56  CE2        8.5000   71.8110  109.1970 C.ar  541  PHE541     -0.0003
     57  CZ         7.7970   70.6480  108.9370 C.ar  541  PHE541     -0.0000
     58  N          9.0430   75.3560  100.0870 N.3   543  ASP543     -0.1225
     59  CA         8.1250   76.4820   99.9310 C.3   543  ASP543      0.1805
     60  C          6.6750   76.0840  100.1690 C.2   543  ASP543      0.2598
     61  O          5.8630   76.9220  100.5810 O.2   543  ASP543     -0.2718
     62  CB         8.2750   77.0990   98.5410 C.3   543  ASP543      0.1424
     63  CG         9.4950   77.9830   98.4300 C.2   543  ASP543      0.3668
     64  OD1       10.1180   78.2760   99.4760 O.co2 543  ASP543     -0.2456
     65  OD2        9.8250   78.3940   97.2970 O.co2 543  ASP543     -0.2456
     66  N          6.3260   74.8230   99.9120 N.am  544  ARG544     -0.1966
     67  CA         4.9830   74.3170  100.1600 C.3   544  ARG544      0.1729
     68  C          4.8430   73.6360  101.5130 C.2   544  ARG544      0.2617
     69  O          3.8550   72.9330  101.7450 O.2   544  ARG544     -0.2715
     70  CB         4.5650   73.3510   99.0590 C.3   544  ARG544      0.0348
     71  CG         4.5050   73.9930   97.7230 C.3   544  ARG544      0.0492
     72  CD         3.3110   73.4310   97.0090 C.3   544  ARG544      0.2205
     73  NE         2.6870   74.4130   96.1520 N.pl3 544  ARG544     -0.0865
     74  CZ         2.9350   74.4120   94.8660 C.cat 544  ARG544      0.5346
     75  NH1        3.7640   73.5060   94.4450 N.pl3 544  ARG544      0.1354
     76  NH2        2.3960   75.2700   94.0390 N.pl3 544  ARG544      0.1354
     77  N          5.8050   73.8310  102.4070 N.am  545  GLY545     -0.1940
     78  CA         5.7010   73.2730  103.7370 C.3   545  GLY545      0.2014
     79  C          5.8840   71.7770  103.7990 C.2   545  GLY545      0.2638
     80  O          5.3090   71.1270  104.6800 O.2   545  GLY545     -0.2714
     81  N          6.6810   71.2100  102.8910 N.am  546  LEU546     -0.1977
     82  CA         6.8390   69.7710  102.7820 C.3   546  LEU546      0.1596
     83  C          8.3020   69.3700  102.9200 C.2   546  LEU546      0.2287
     84  O          9.2160   70.1350  102.5940 O.2   546  LEU546     -0.2864
     85  CB         6.2870   69.2520  101.4400 C.3   546  LEU546      0.0297
     86  CG         4.7810   69.4350  101.2210 C.3   546  LEU546      0.0022
     87  CD1        4.3970   68.9400   99.8370 C.3   546  LEU546      0.0001
     88  CD2        3.9900   68.6770  102.2780 C.3   546  LEU546      0.0001
     89  N          4.1340   66.8250  105.2510 N.3   551  PRO551     -0.2116
     90  CA         4.0560   67.9980  106.1230 C.3   551  PRO551      0.1372
     91  C          4.7300   67.8410  107.4800 C.2   551  PRO551      0.2244
     92  O          4.4100   68.5880  108.4200 O.2   551  PRO551     -0.2868
     93  CB         2.5560   68.2440  106.2880 C.3   551  PRO551      0.0268
     94  CG         1.8780   67.3240  105.3030 C.3   551  PRO551      0.0207
     95  CD         2.8450   66.2290  104.9830 C.3   551  PRO551      0.0892
@<TRIPOS>BOND
     1    76    74    1
     2    75    74    1
     3    74    73    2
     4    73    72    1
     5    72    71    1
     6    65    63   ar
     7    71    70    1
     8    63    62    1
     9    63    64   ar
    10    62    59    1
    11    70    67    1
    12    87    86    1
    13    66    67    1
    14    66    60   am
    15    59    58    1
    16    59    60    1
    17    67    68    1
    18    60    61    2
    19    45    44    1
    20    46    44    1
    21    86    85    1
    22    86    88    1
    23    85    82    1
    24    68    69    2
    25    68    77   am
    26    44    43    1
    27    77    78    1
    28    43    40    1
    29    84    83    2
    30    82    81    1
    31    82    83    1
    32    81    79   am
    33    40    39    1
    34    40    41    1
    35    49    50    2
    36    49    48    1
    37    78    79    1
    38    79    80    2
    39    42    41    2
    40    48    51    1
    41    48    47    1
    42    95    89    1
    43    95    94    1
    44    89    90    1
    45    94    93    1
    46    38    37    1
    47    51    52    1
    48    90    93    1
    49    90    91    1
    50    53    52   ar
    51    53    55   ar
    52    35    34    1
    53    35    36    2
    54    52    54   ar
    55    37    34    1
    56    34    33    1
    57    91    92    2
    58    55    57   ar
    59    54    56   ar
    60    32    30   am
    61    57    56   ar
    62    30    29    1
    63    30    31    2
    64    29    26    1
    65    28    27    2
    66    26    27    1
    67    26    25    1
    68     4     3    2
    69    15    14    2
    70    13    14    1
    71    13    12    1
    72    25    18   am
    73    19    18    2
    74     3    12   am
    75     3     2    1
    76    18    17    1
    77    11     9    1
    78     8     9    2
    79     8     7    1
    80     5     2    1
    81     5     6    1
    82    20    17    1
    83    20    21    1
    84     9    10    1
    85     2     1    1
    86     7     6    1
    87    17    16    1
    88    23    22   ar
    89    21    22    1
    90    22    24   ar
