@<TRIPOS>MOLECULE
tmp/5fnqA00.pdb
 86 79 0 0 0
SMALL
GASTEIGER

@<TRIPOS>ATOM
      1  N         15.7940   67.8620   35.8980 N.3    41  GLY41      -0.1225
      2  CA        17.0550   67.8290   35.1700 C.3    41  GLY41       0.1811
      3  C         18.2620   68.2010   36.0170 C.2    41  GLY41       0.2280
      4  O         19.2910   68.5730   35.4820 O.2    41  GLY41      -0.2866
      5  N         19.8310   69.4950   32.8850 N.3    92  ARG92      -0.1245
      6  CA        20.2340   68.1580   32.3680 C.3    92  ARG92       0.1563
      7  C         21.7450   67.9510   32.5850 C.2    92  ARG92       0.2260
      8  O         22.4910   67.5260   31.7020 O.2    92  ARG92      -0.2867
      9  CB        19.7420   67.9420   30.9230 C.3    92  ARG92       0.0307
     10  CG        18.2260   68.0500   30.8260 C.3    92  ARG92       0.0489
     11  CD        17.7740   68.2000   29.3790 C.3    92  ARG92       0.2205
     12  NE        16.3340   67.9960   29.2690 N.pl3  92  ARG92      -0.0865
     13  CZ        15.6440   68.0710   28.1260 C.cat  92  ARG92       0.5346
     14  NH1       16.2660   68.3500   26.9820 N.pl3  92  ARG92       0.1354
     15  NH2       14.3300   67.8660   28.1310 N.pl3  92  ARG92       0.1354
     16  N         24.7270   67.5550   27.1860 N.3   138  ILE138     -0.1231
     17  CA        23.6080   67.7320   28.1070 C.3   138  ILE138      0.1692
     18  C         22.9610   66.3440   28.2230 C.2   138  ILE138      0.2592
     19  O         23.1010   65.5120   27.3190 O.2   138  ILE138     -0.2718
     20  CB        22.6300   68.8430   27.6110 C.3   138  ILE138      0.0266
     21  CG1       21.7590   68.3640   26.4400 C.3   138  ILE138      0.0019
     22  CG2       23.4160   70.0370   27.0980 C.3   138  ILE138      0.0020
     23  CD1       20.3680   67.9160   26.8220 C.3   138  ILE138      0.0001
     24  N         22.2590   66.0830   29.3200 N.am  139  GLY139     -0.1957
     25  CA        21.7320   64.7330   29.5800 C.3   139  GLY139      0.1869
     26  C         22.8980   63.7540   29.6630 C.2   139  GLY139      0.2309
     27  O         22.7900   62.5740   29.2670 O.2   139  GLY139     -0.2863
     28  N         23.7580   64.7110   24.7770 N.3   155  PHE155     -0.1241
     29  CA        23.3030   65.3810   23.5630 C.3   155  PHE155      0.1605
     30  C         24.1260   66.6640   23.3860 C.2   155  PHE155      0.2264
     31  O         24.2580   67.4580   24.3120 O.2   155  PHE155     -0.2867
     32  CB        21.7950   65.6790   23.6880 C.3   155  PHE155      0.0534
     33  CG        21.1740   66.3510   22.4830 C.ar  155  PHE155     -0.0203
     34  CD1       21.0850   65.7080   21.2370 C.ar  155  PHE155     -0.0042
     35  CD2       20.6600   67.6570   22.5910 C.ar  155  PHE155     -0.0042
     36  CE1       20.5080   66.3430   20.1390 C.ar  155  PHE155     -0.0003
     37  CE2       20.0790   68.2960   21.4860 C.ar  155  PHE155     -0.0003
     38  CZ        20.0030   67.6370   20.2560 C.ar  155  PHE155     -0.0000
     39  N         22.5270   62.9730   19.5650 N.3   160  ARG160     -0.1245
     40  CA        22.7360   62.1750   20.7740 C.3   160  ARG160      0.1563
     41  C         24.0160   61.3550   20.5860 C.2   160  ARG160      0.2260
     42  O         24.3750   61.0050   19.4610 O.2   160  ARG160     -0.2867
     43  CB        21.5290   61.2930   21.1250 C.3   160  ARG160      0.0307
     44  CG        20.3320   62.0300   21.7120 C.3   160  ARG160      0.0489
     45  CD        19.3570   62.5540   20.6560 C.3   160  ARG160      0.2205
     46  NE        18.4130   63.5270   21.2410 N.pl3 160  ARG160     -0.0865
     47  CZ        17.5720   64.3020   20.5490 C.cat 160  ARG160      0.5346
     48  NH1       17.5230   64.2520   19.2180 N.pl3 160  ARG160      0.1354
     49  NH2       16.7690   65.1420   21.1970 N.pl3 160  ARG160      0.1354
     50  N         21.3600   59.3890   25.4300 N.3   185  SER185     -0.1202
     51  CA        21.1850   60.6790   26.0880 C.3   185  SER185      0.2020
     52  C         20.2420   60.4990   27.2800 C.2   185  SER185      0.2619
     53  O         19.1740   59.8870   27.1290 O.2   185  SER185     -0.2717
     54  CB        20.5570   61.6570   25.0900 C.3   185  SER185      0.2103
     55  OG        20.3450   62.8970   25.7250 O.3   185  SER185     -0.2182
     56  N         20.6140   61.0180   28.4500 N.am  186  GLY186     -0.1956
     57  CA        19.7650   60.8890   29.6510 C.3   186  GLY186      0.1869
     58  C         19.7130   59.4480   30.1650 C.2   186  GLY186      0.2309
     59  O         18.6710   58.9610   30.6530 O.2   186  GLY186     -0.2863
     60  N         18.0610   57.6880   25.8760 N.3   202  TYR202     -0.1241
     61  CA        17.3220   57.9920   24.6570 C.3   202  TYR202      0.1605
     62  C         18.3270   58.0770   23.5180 C.2   202  TYR202      0.2264
     63  O         19.3720   58.7270   23.6540 O.2   202  TYR202     -0.2867
     64  CB        16.5840   59.3320   24.8480 C.3   202  TYR202      0.0534
     65  CG        15.8190   59.8340   23.6510 C.ar  202  TYR202     -0.0201
     66  CD1       14.7950   59.0670   23.0800 C.ar  202  TYR202     -0.0009
     67  CD2       16.1170   61.0880   23.0790 C.ar  202  TYR202     -0.0009
     68  CE1       14.0830   59.5240   21.9740 C.ar  202  TYR202      0.0417
     69  CE2       15.4050   61.5560   21.9660 C.ar  202  TYR202      0.0417
     70  CZ        14.3930   60.7690   21.4220 C.ar  202  TYR202      0.1957
     71  OH        13.6720   61.2030   20.3210 O.3   202  TYR202     -0.2866
     72  N         14.3770   56.8270   29.8230 N.3   232  SER232     -0.1202
     73  CA        15.3690   57.9250   29.8060 C.3   232  SER232      0.2020
     74  C         15.0430   58.9020   30.9470 C.2   232  SER232      0.2618
     75  O         13.9450   58.8320   31.5170 O.2   232  SER232     -0.2717
     76  CB        15.3250   58.6830   28.4920 C.3   232  SER232      0.2103
     77  OG        14.0180   59.1820   28.3190 O.3   232  SER232     -0.2182
     78  N         15.9860   59.7930   31.2660 N.am  233  ALA233     -0.1979
     79  CA        15.8580   60.7830   32.3650 C.3   233  ALA233      0.1597
     80  C         15.5460   60.0800   33.6980 C.2   233  ALA233      0.2287
     81  O         14.7190   60.5370   34.5050 O.2   233  ALA233     -0.2864
     82  CB        14.8150   61.8640   32.0360 C.3   233  ALA233      0.0319
     83  N         13.7190   62.9390   35.4470 N.3   280  GLY280     -0.1225
     84  CA        14.6980   64.0300   35.7110 C.3   280  GLY280      0.1811
     85  C         14.9400   64.3500   37.1860 C.2   280  GLY280      0.2280
     86  O         15.1460   65.5280   37.5410 O.2   280  GLY280     -0.2866
@<TRIPOS>BOND
     1    48    47    1
     2    42    41    2
     3    39    40    1
     4    36    38   ar
     5    36    34   ar
     6    38    37   ar
     7    71    70    1
     8    47    49    1
     9    47    46    2
    10    41    40    1
    11    45    46    1
    12    45    44    1
    13    40    43    1
    14    43    44    1
    15    34    33   ar
    16    70    69   ar
    17    70    68   ar
    18    37    35   ar
    19    69    67   ar
    20    68    66   ar
    21    33    35   ar
    22    33    32    1
    23    67    65   ar
    24    66    65   ar
    25    30    29    1
    26    30    31    2
    27    62    63    2
    28    62    61    1
    29    29    32    1
    30    29    28    1
    31    65    64    1
    32    61    64    1
    33    61    60    1
    34    54    55    1
    35    54    51    1
    36    50    51    1
    37    51    52    1
    38    21    23    1
    39    21    20    1
    40    14    13    1
    41    22    20    1
    42    53    52    2
    43    16    17    1
    44    52    56   am
    45    19    18    2
    46    20    17    1
    47    17    18    1
    48    13    15    1
    49    13    12    2
    50    18    24   am
    51    77    76    1
    52    56    57    1
    53    76    73    1
    54    27    26    2
    55    12    11    1
    56    24    25    1
    57    11    10    1
    58    25    26    1
    59    57    58    1
    60    73    72    1
    61    73    74    1
    62    58    59    2
    63    10     9    1
    64     9     6    1
    65    74    78   am
    66    74    75    2
    67    78    79    1
    68     8     7    2
    69    82    79    1
    70    79    80    1
    71     6     7    1
    72     6     5    1
    73    80    81    2
    74     2     1    1
    75     2     3    1
    76    83    84    1
    77     4     3    2
    78    84    85    1
    79    85    86    2
