@<TRIPOS>MOLECULE
tmp/5fnrA00.pdb
 115 107 0 0 0
SMALL
GASTEIGER

@<TRIPOS>ATOM
      1  N         15.7950   67.8100   35.9120 N.3    40  GLY40      -0.1210
      2  CA        17.0510   67.8200   35.1420 C.3    40  GLY40       0.1956
      3  C         18.2600   68.2350   35.9640 C.2    40  GLY40       0.2611
      4  O         19.2950   68.6570   35.4160 O.2    40  GLY40      -0.2717
      5  N         18.1110   68.1080   37.2830 N.am   41  LEU41      -0.1979
      6  CA        19.1570   68.3660   38.2580 C.3    41  LEU41       0.1596
      7  C         19.9010   67.0520   38.5780 C.2    41  LEU41       0.2287
      8  O         19.4650   65.9580   38.1810 O.2    41  LEU41      -0.2864
      9  CB        18.5010   68.8910   39.5440 C.3    41  LEU41       0.0297
     10  CG        17.8050   67.8430   40.4490 C.3    41  LEU41       0.0022
     11  CD1       17.7470   68.3050   41.8900 C.3    41  LEU41       0.0001
     12  CD2       16.4350   67.4220   39.9460 C.3    41  LEU41       0.0001
     13  N         19.8830   69.5540   32.9610 N.3    91  ARG91      -0.1245
     14  CA        20.2090   68.2130   32.4580 C.3    91  ARG91       0.1563
     15  C         21.7060   67.9960   32.6800 C.2    91  ARG91       0.2260
     16  O         22.4500   67.6140   31.7860 O.2    91  ARG91      -0.2867
     17  CB        19.7330   68.0150   30.9970 C.3    91  ARG91       0.0307
     18  CG        18.2140   68.1200   30.8760 C.3    91  ARG91       0.0489
     19  CD        17.7560   68.4410   29.4620 C.3    91  ARG91       0.2205
     20  NE        16.3450   68.1260   29.2830 N.pl3  91  ARG91      -0.0865
     21  CZ        15.6720   68.2490   28.1320 C.cat  91  ARG91       0.5346
     22  NH1       16.2790   68.6850   27.0290 N.pl3  91  ARG91       0.1354
     23  NH2       14.3790   67.9280   28.0890 N.pl3  91  ARG91       0.1354
     24  N         24.7310   67.5460   27.2650 N.3   137  ILE137     -0.1231
     25  CA        23.6270   67.7300   28.2060 C.3   137  ILE137      0.1692
     26  C         23.0190   66.3420   28.3120 C.2   137  ILE137      0.2592
     27  O         23.1780   65.5410   27.3980 O.2   137  ILE137     -0.2718
     28  CB        22.6260   68.8170   27.7450 C.3   137  ILE137      0.0266
     29  CG1       21.8050   68.3240   26.5390 C.3   137  ILE137      0.0019
     30  CG2       23.3720   70.0660   27.3200 C.3   137  ILE137      0.0020
     31  CD1       20.3240   68.4950   26.6990 C.3   137  ILE137      0.0001
     32  N         22.3300   66.0510   29.4110 N.am  138  GLY138     -0.1957
     33  CA        21.8290   64.7030   29.6550 C.3   138  GLY138      0.1869
     34  C         23.0130   63.7520   29.7370 C.2   138  GLY138      0.2309
     35  O         22.9300   62.5800   29.3160 O.2   138  GLY138     -0.2863
     36  N         23.7650   64.7660   24.8170 N.3   154  PHE154     -0.1241
     37  CA        23.3230   65.4610   23.6050 C.3   154  PHE154      0.1605
     38  C         24.1510   66.7490   23.4200 C.2   154  PHE154      0.2264
     39  O         24.2180   67.5760   24.3200 O.2   154  PHE154     -0.2867
     40  CB        21.8320   65.7890   23.7580 C.3   154  PHE154      0.0534
     41  CG        21.2080   66.4510   22.5670 C.ar  154  PHE154     -0.0203
     42  CD1       21.1110   65.7850   21.3370 C.ar  154  PHE154     -0.0042
     43  CD2       20.7020   67.7620   22.6650 C.ar  154  PHE154     -0.0042
     44  CE1       20.5290   66.4020   20.2300 C.ar  154  PHE154     -0.0003
     45  CE2       20.1150   68.3890   21.5550 C.ar  154  PHE154     -0.0003
     46  CZ        20.0290   67.7060   20.3350 C.ar  154  PHE154     -0.0000
     47  N         22.6150   63.0270   19.6570 N.3   159  ARG159     -0.1245
     48  CA        22.7720   62.2040   20.8650 C.3   159  ARG159      0.1563
     49  C         24.0180   61.3660   20.6510 C.2   159  ARG159      0.2260
     50  O         24.3210   60.9860   19.5110 O.2   159  ARG159     -0.2867
     51  CB        21.5550   61.3250   21.1720 C.3   159  ARG159      0.0307
     52  CG        20.3960   62.0660   21.8050 C.3   159  ARG159      0.0489
     53  CD        19.4080   62.5980   20.7790 C.3   159  ARG159      0.2205
     54  NE        18.5360   63.6270   21.3650 N.pl3 159  ARG159     -0.0865
     55  CZ        17.7020   64.4060   20.6670 C.cat 159  ARG159      0.5346
     56  NH1       17.6100   64.2890   19.3460 N.pl3 159  ARG159      0.1354
     57  NH2       16.9520   65.3110   21.2880 N.pl3 159  ARG159      0.1354
     58  N         21.3670   59.4180   25.5400 N.3   184  SER184     -0.1202
     59  CA        21.2570   60.7190   26.2170 C.3   184  SER184      0.2020
     60  C         20.2580   60.6070   27.3750 C.2   184  SER184      0.2619
     61  O         19.1310   60.1190   27.1940 O.2   184  SER184     -0.2717
     62  CB        20.8020   61.7830   25.2210 C.3   184  SER184      0.2103
     63  OG        20.6190   63.0180   25.8710 O.3   184  SER184     -0.2182
     64  N         20.6480   61.0520   28.5580 N.am  185  GLY185     -0.1956
     65  CA        19.7620   60.8910   29.7220 C.3   185  GLY185      0.1869
     66  C         19.7090   59.4430   30.1960 C.2   185  GLY185      0.2309
     67  O         18.6500   58.9320   30.5840 O.2   185  GLY185     -0.2863
     68  N         18.1550   57.8650   25.9350 N.3   201  TYR201     -0.1241
     69  CA        17.3810   58.2420   24.7570 C.3   201  TYR201      0.1605
     70  C         18.3440   58.3780   23.5830 C.2   201  TYR201      0.2264
     71  O         19.3900   59.0120   23.6930 O.2   201  TYR201     -0.2867
     72  CB        16.6390   59.5680   25.0390 C.3   201  TYR201      0.0534
     73  CG        15.7770   60.1450   23.9260 C.ar  201  TYR201     -0.0201
     74  CD1       14.6210   59.4740   23.4720 C.ar  201  TYR201     -0.0009
     75  CD2       16.1110   61.3660   23.3220 C.ar  201  TYR201     -0.0009
     76  CE1       13.8210   60.0060   22.4420 C.ar  201  TYR201      0.0417
     77  CE2       15.3190   61.9110   22.2900 C.ar  201  TYR201      0.0417
     78  CZ        14.1810   61.2340   21.8550 C.ar  201  TYR201      0.1957
     79  OH        13.3950   61.7730   20.8320 O.3   201  TYR201     -0.2866
     80  N         13.3640   55.3420   23.8970 N.3   206  GLN206     -0.1245
     81  CA        13.8960   55.2010   25.2460 C.3   206  GLN206      0.1566
     82  C         14.3780   53.7440   25.3230 C.2   206  GLN206      0.2260
     83  O         13.7130   52.8190   24.7940 O.2   206  GLN206     -0.2867
     84  CB        12.8620   55.5700   26.3150 C.3   206  GLN206      0.0367
     85  CG        12.2870   56.9820   26.1750 C.3   206  GLN206      0.0905
     86  CD        11.2600   57.0880   25.0400 C.2   206  GLN206      0.2608
     87  OE1       10.6160   56.1170   24.6990 O.2   206  GLN206     -0.2717
     88  NE2       11.1180   58.2790   24.4630 N.am  206  GLN206     -0.0878
     89  N         14.4150   56.7920   29.8340 N.3   231  SER231     -0.1202
     90  CA        15.3580   57.9200   29.7220 C.3   231  SER231      0.2020
     91  C         15.0760   58.8670   30.8880 C.2   231  SER231      0.2618
     92  O         14.0040   58.7710   31.5070 O.2   231  SER231     -0.2717
     93  CB        15.1350   58.6670   28.4110 C.3   231  SER231      0.2103
     94  OG        13.8400   59.2420   28.4000 O.3   231  SER231     -0.2182
     95  N         16.0230   59.7690   31.1810 N.am  232  ALA232     -0.1979
     96  CA        15.8780   60.7550   32.2690 C.3   232  ALA232      0.1597
     97  C         15.5760   60.0560   33.6140 C.2   232  ALA232      0.2287
     98  O         14.7550   60.5010   34.4290 O.2   232  ALA232     -0.2864
     99  CB        14.8290   61.8120   31.9170 C.3   232  ALA232      0.0319
    100  N         11.2620   58.1230   31.7600 N.3   248  TYR248     -0.1241
    101  CA        10.1990   58.2520   30.7610 C.3   248  TYR248      0.1605
    102  C         10.3930   57.1510   29.7250 C.2   248  TYR248      0.2264
    103  O         11.4960   57.0010   29.1900 O.2   248  TYR248     -0.2867
    104  CB        10.2520   59.6610   30.1380 C.3   248  TYR248      0.0534
    105  CG         9.2300   59.9250   29.0500 C.ar  248  TYR248     -0.0201
    106  CD1        7.8690   60.0730   29.3510 C.ar  248  TYR248     -0.0009
    107  CD2        9.6270   60.0280   27.7170 C.ar  248  TYR248     -0.0009
    108  CE1        6.9380   60.3150   28.3470 C.ar  248  TYR248      0.0417
    109  CE2        8.7020   60.2710   26.7000 C.ar  248  TYR248      0.0417
    110  CZ         7.3630   60.4140   27.0150 C.ar  248  TYR248      0.1957
    111  OH         6.4580   60.6530   26.0070 O.3   248  TYR248     -0.2866
    112  N         13.7880   62.9420   35.2930 N.3   279  GLY279     -0.1225
    113  CA        14.7970   63.9840   35.6290 C.3   279  GLY279      0.1811
    114  C         14.9400   64.3240   37.1180 C.2   279  GLY279      0.2280
    115  O         15.0480   65.5110   37.4990 O.2   279  GLY279     -0.2866
@<TRIPOS>BOND
     1    56    55    1
     2    50    49    2
     3    47    48    1
     4    44    46   ar
     5    44    42   ar
     6    46    45   ar
     7    49    48    1
     8    55    57    1
     9    55    54    2
    10    53    54    1
    11    53    52    1
    12    79    78    1
    13    48    51    1
    14    51    52    1
    15    42    41   ar
    16    45    43   ar
    17    78    77   ar
    18    78    76   ar
    19    77    75   ar
    20    76    74   ar
    21    41    43   ar
    22    41    40    1
    23    75    73   ar
    24    38    37    1
    25    38    39    2
    26    74    73   ar
    27    70    71    2
    28    70    69    1
    29    37    40    1
    30    37    36    1
    31    80    81    1
    32    73    72    1
    33    88    86   am
    34    87    86    2
    35    69    72    1
    36    69    68    1
    37    83    82    2
    38    86    85    1
    39    62    63    1
    40    62    59    1
    41    81    82    1
    42    81    84    1
    43    58    59    1
    44   111   110    1
    45    85    84    1
    46    59    60    1
    47    29    31    1
    48    29    28    1
    49   109   110   ar
    50   109   107   ar
    51   110   108   ar
    52    22    21    1
    53    61    60    2
    54    24    25    1
    55    30    28    1
    56    60    64   am
    57    27    26    2
    58   107   105   ar
    59    28    25    1
    60    23    21    1
    61    21    20    2
    62    25    26    1
    63    26    32   am
    64   108   106   ar
    65    94    93    1
    66    93    90    1
    67    64    65    1
    68   105   106   ar
    69   105   104    1
    70   103   102    2
    71    20    19    1
    72    35    34    2
    73    32    33    1
    74    19    18    1
    75    33    34    1
    76    65    66    1
    77    90    89    1
    78    90    91    1
    79   102   101    1
    80   104   101    1
    81    66    67    2
    82   101   100    1
    83    18    17    1
    84    91    95   am
    85    91    92    2
    86    17    14    1
    87    95    96    1
    88    16    15    2
    89    99    96    1
    90    96    97    1
    91    14    15    1
    92    14    13    1
    93    97    98    2
    94     2     1    1
    95     2     3    1
    96   112   113    1
    97     4     3    2
    98   113   114    1
    99     3     5   am
   100   114   115    2
   101     5     6    1
   102     8     7    2
   103     6     7    1
   104     6     9    1
   105     9    10    1
   106    12    10    1
   107    10    11    1
