@<TRIPOS>MOLECULE
tmp/5fnsA00.pdb
 158 149 0 0 0
SMALL
GASTEIGER

@<TRIPOS>ATOM
      1  N         10.2310   65.8210   37.3550 N.3    10  TYR10      -0.1241
      2  CA         9.2720   66.3650   36.3880 C.3    10  TYR10       0.1605
      3  C          8.0760   65.4320   36.2300 C.2    10  TYR10       0.2264
      4  O          8.2330   64.2410   35.9670 O.2    10  TYR10      -0.2867
      5  CB         9.9430   66.5950   35.0160 C.3    10  TYR10       0.0534
      6  CG         9.0330   67.2370   33.9680 C.ar   10  TYR10      -0.0201
      7  CD1        8.8860   68.6280   33.8980 C.ar   10  TYR10      -0.0009
      8  CD2        8.3240   66.4430   33.0510 C.ar   10  TYR10      -0.0009
      9  CE1        8.0510   69.2170   32.9370 C.ar   10  TYR10       0.0417
     10  CE2        7.4890   67.0120   32.0900 C.ar   10  TYR10       0.0417
     11  CZ         7.3610   68.3970   32.0420 C.ar   10  TYR10       0.1957
     12  OH         6.5460   68.9650   31.1020 O.3    10  TYR10      -0.2866
     13  N         13.6630   70.2240   37.6270 N.3    39  SER39      -0.1202
     14  CA        13.9200   68.9540   36.9570 C.3    39  SER39       0.2020
     15  C         15.3020   69.0600   36.2890 C.2    39  SER39       0.2619
     16  O         15.8710   70.1520   36.1690 O.2    39  SER39      -0.2717
     17  CB        12.8200   68.6700   35.9170 C.3    39  SER39       0.2103
     18  OG        12.6770   69.8090   35.0670 O.3    39  SER39      -0.2182
     19  N         15.8440   67.9260   35.8540 N.am   40  GLY40      -0.1956
     20  CA        17.1160   67.9010   35.1210 C.3    40  GLY40       0.1869
     21  C         18.3010   68.2910   35.9850 C.2    40  GLY40       0.2309
     22  O         19.3350   68.7060   35.4670 O.2    40  GLY40      -0.2863
     23  N         10.6870   74.1710   35.0550 N.3    58  ASN58      -0.1240
     24  CA         9.6840   74.1750   34.0120 C.3    58  ASN58       0.1653
     25  C          8.3630   74.3980   34.7070 C.2    58  ASN58       0.2266
     26  O          7.8310   73.4780   35.3300 O.2    58  ASN58      -0.2867
     27  CB         9.6270   72.8200   33.2850 C.3    58  ASN58       0.1155
     28  CG        10.8170   72.5710   32.3920 C.2    58  ASN58       0.2627
     29  OD1       11.0940   73.3380   31.4640 O.2    58  ASN58      -0.2716
     30  ND2       11.5380   71.4820   32.6670 N.am   58  ASN58      -0.0877
     31  N         21.0510   73.0330   33.0950 N.3    90  ASN90      -0.1225
     32  CA        19.9220   72.1180   33.0720 C.3    90  ASN90       0.1785
     33  C         20.3680   70.7980   32.4270 C.2    90  ASN90       0.2597
     34  O         21.1780   70.8190   31.4820 O.2    90  ASN90      -0.2718
     35  CB        18.7860   72.7330   32.2670 C.3    90  ASN90       0.1169
     36  CG        17.5950   71.8190   32.1690 C.2    90  ASN90       0.2627
     37  OD1       17.3010   71.0950   33.1120 O.2    90  ASN90      -0.2716
     38  ND2       16.9000   71.8390   31.0300 N.am   90  ASN90      -0.0877
     39  N         19.8450   69.6670   32.9290 N.am   91  ARG91      -0.1979
     40  CA        20.1950   68.3310   32.3940 C.3    91  ARG91       0.1597
     41  C         21.7020   68.1100   32.6140 C.2    91  ARG91       0.2287
     42  O         22.4660   67.7380   31.7240 O.2    91  ARG91      -0.2864
     43  CB        19.7190   68.1630   30.9360 C.3    91  ARG91       0.0334
     44  CG        18.2180   68.4540   30.8070 C.3    91  ARG91       0.0492
     45  CD        17.7230   68.4210   29.3600 C.3    91  ARG91       0.2205
     46  NE        18.2400   69.5700   28.6220 N.pl3  91  ARG91      -0.0865
     47  CZ        17.9150   69.8920   27.3740 C.cat  91  ARG91       0.5346
     48  NH1       17.0490   69.1500   26.6770 N.pl3  91  ARG91       0.1354
     49  NH2       18.4720   70.9720   26.8340 N.pl3  91  ARG91       0.1354
     50  N         24.7480   67.6220   27.1730 N.3   137  ILE137     -0.1231
     51  CA        23.6310   67.8110   28.0840 C.3   137  ILE137      0.1692
     52  C         23.0040   66.4270   28.1910 C.2   137  ILE137      0.2592
     53  O         23.1810   65.6080   27.2830 O.2   137  ILE137     -0.2718
     54  CB        22.6690   68.9440   27.5990 C.3   137  ILE137      0.0266
     55  CG1       21.8100   68.5440   26.3800 C.3   137  ILE137      0.0019
     56  CG2       23.4810   70.1640   27.1810 C.3   137  ILE137      0.0020
     57  CD1       20.5770   67.7350   26.7120 C.3   137  ILE137      0.0001
     58  N         22.2860   66.1720   29.2790 N.am  138  GLY138     -0.1957
     59  CA        21.7560   64.8280   29.5600 C.3   138  GLY138      0.1869
     60  C         22.9370   63.8980   29.7650 C.2   138  GLY138      0.2309
     61  O         22.8760   62.7220   29.4100 O.2   138  GLY138     -0.2863
     62  N         23.8280   64.8210   24.6730 N.3   154  PHE154     -0.1241
     63  CA        23.3400   65.5230   23.4940 C.3   154  PHE154      0.1605
     64  C         24.1920   66.7830   23.3610 C.2   154  PHE154      0.2264
     65  O         24.3350   67.5540   24.3070 O.2   154  PHE154     -0.2867
     66  CB        21.8600   65.8850   23.6700 C.3   154  PHE154      0.0534
     67  CG        21.2380   66.5410   22.4710 C.ar  154  PHE154     -0.0203
     68  CD1       21.1300   65.8680   21.2490 C.ar  154  PHE154     -0.0042
     69  CD2       20.7440   67.8610   22.5590 C.ar  154  PHE154     -0.0042
     70  CE1       20.5470   66.4890   20.1360 C.ar  154  PHE154     -0.0003
     71  CE2       20.1610   68.4830   21.4480 C.ar  154  PHE154     -0.0003
     72  CZ        20.0640   67.7930   20.2330 C.ar  154  PHE154     -0.0000
     73  N         22.5640   63.0560   19.5200 N.3   159  ARG159     -0.1245
     74  CA        22.7670   62.2570   20.7340 C.3   159  ARG159      0.1563
     75  C         24.0570   61.4480   20.5310 C.2   159  ARG159      0.2260
     76  O         24.4070   61.1000   19.3890 O.2   159  ARG159     -0.2867
     77  CB        21.5500   61.3930   21.0800 C.3   159  ARG159      0.0307
     78  CG        20.3730   62.1640   21.6700 C.3   159  ARG159      0.0489
     79  CD        19.3950   62.6860   20.6120 C.3   159  ARG159      0.2205
     80  NE        18.5310   63.7050   21.2050 N.pl3 159  ARG159     -0.0865
     81  CZ        17.6520   64.4670   20.5520 C.cat 159  ARG159      0.5346
     82  NH1       17.4800   64.3550   19.2370 N.pl3 159  ARG159      0.1354
     83  NH2       16.9340   65.3560   21.2380 N.pl3 159  ARG159      0.1354
     84  N         21.4010   59.5120   25.4340 N.3   184  SER184     -0.1202
     85  CA        21.2160   60.7830   26.1360 C.3   184  SER184      0.2020
     86  C         20.2640   60.5940   27.3260 C.2   184  SER184      0.2619
     87  O         19.2070   59.9760   27.1810 O.2   184  SER184     -0.2717
     88  CB        20.6380   61.8030   25.1430 C.3   184  SER184      0.2103
     89  OG        20.4460   63.0560   25.7620 O.3   184  SER184     -0.2182
     90  N         20.6270   61.1200   28.4990 N.am  185  GLY185     -0.1956
     91  CA        19.7800   60.9490   29.6850 C.3   185  GLY185      0.1869
     92  C         19.7200   59.5100   30.1700 C.2   185  GLY185      0.2309
     93  O         18.6800   59.0250   30.6390 O.2   185  GLY185     -0.2863
     94  N         18.1080   57.8930   25.9290 N.3   201  TYR201     -0.1241
     95  CA        17.3270   58.2350   24.7590 C.3   201  TYR201      0.1605
     96  C         18.2850   58.3910   23.5880 C.2   201  TYR201      0.2264
     97  O         19.3430   59.0160   23.7110 O.2   201  TYR201     -0.2867
     98  CB        16.5950   59.5520   25.0570 C.3   201  TYR201      0.0534
     99  CG        15.7590   60.1350   23.9480 C.ar  201  TYR201     -0.0201
    100  CD1       14.6710   59.4300   23.4220 C.ar  201  TYR201     -0.0009
    101  CD2       16.0510   61.3950   23.4230 C.ar  201  TYR201     -0.0009
    102  CE1       13.8910   59.9580   22.3990 C.ar  201  TYR201      0.0417
    103  CE2       15.2760   61.9410   22.3950 C.ar  201  TYR201      0.0417
    104  CZ        14.2010   61.2180   21.8890 C.ar  201  TYR201      0.1957
    105  OH        13.4140   61.7330   20.8690 O.3   201  TYR201     -0.2866
    106  N         13.3050   55.3700   23.8620 N.3   206  GLN206     -0.1245
    107  CA        13.8570   55.2510   25.2110 C.3   206  GLN206      0.1566
    108  C         14.3750   53.8100   25.3000 C.2   206  GLN206      0.2260
    109  O         13.7900   52.9000   24.6940 O.2   206  GLN206     -0.2867
    110  CB        12.8230   55.5780   26.2970 C.3   206  GLN206      0.0367
    111  CG        12.2220   56.9860   26.2060 C.3   206  GLN206      0.0905
    112  CD        11.2130   57.1210   25.0650 C.2   206  GLN206      0.2608
    113  OE1       10.5660   56.1620   24.6930 O.2   206  GLN206     -0.2717
    114  NE2       11.0830   58.3270   24.5120 N.am  206  GLN206     -0.0878
    115  N         14.4000   56.8680   29.8920 N.3   231  SER231     -0.1202
    116  CA        15.3310   57.9900   29.7300 C.3   231  SER231      0.2020
    117  C         15.0830   58.9680   30.8850 C.2   231  SER231      0.2618
    118  O         13.9980   58.9400   31.4840 O.2   231  SER231     -0.2717
    119  CB        15.0680   58.6760   28.3960 C.3   231  SER231      0.2103
    120  OG        13.7740   59.2470   28.4190 O.3   231  SER231     -0.2182
    121  N         16.0690   59.8200   31.1950 N.am  232  ALA232     -0.1979
    122  CA        15.9750   60.7930   32.3150 C.3   232  ALA232      0.1597
    123  C         15.6380   60.0800   33.6400 C.2   232  ALA232      0.2287
    124  O         14.7980   60.5270   34.4280 O.2   232  ALA232     -0.2864
    125  CB        14.9660   61.9050   31.9770 C.3   232  ALA232      0.0319
    126  N         11.2880   58.2180   31.8780 N.3   248  TYR248     -0.1241
    127  CA        10.1930   58.3100   30.9140 C.3   248  TYR248      0.1605
    128  C         10.3720   57.1690   29.9240 C.2   248  TYR248      0.2264
    129  O         11.5000   56.9600   29.4450 O.2   248  TYR248     -0.2867
    130  CB        10.2530   59.6920   30.2400 C.3   248  TYR248      0.0534
    131  CG         9.2320   59.9020   29.1490 C.ar  248  TYR248     -0.0201
    132  CD1        7.8730   59.9720   29.4500 C.ar  248  TYR248     -0.0009
    133  CD2        9.6270   60.0310   27.8080 C.ar  248  TYR248     -0.0009
    134  CE1        6.9240   60.1650   28.4550 C.ar  248  TYR248      0.0417
    135  CE2        8.6790   60.2260   26.7970 C.ar  248  TYR248      0.0417
    136  CZ         7.3340   60.2900   27.1370 C.ar  248  TYR248      0.1957
    137  OH         6.3720   60.4800   26.1760 O.3   248  TYR248     -0.2866
    138  N          5.4100   58.5920   32.7430 N.3   253  PHE253     -0.1241
    139  CA         6.4340   59.0180   33.6980 C.3   253  PHE253      0.1605
    140  C          6.3870   57.9890   34.8210 C.2   253  PHE253      0.2264
    141  O          5.4190   57.9320   35.5960 O.2   253  PHE253     -0.2867
    142  CB         6.1970   60.4880   34.1280 C.3   253  PHE253      0.0534
    143  CG         6.4010   61.4450   32.9920 C.ar  253  PHE253     -0.0203
    144  CD1        5.3680   61.6920   32.0620 C.ar  253  PHE253     -0.0042
    145  CD2        7.6260   62.1010   32.8390 C.ar  253  PHE253     -0.0042
    146  CE1        5.5580   62.5780   31.0080 C.ar  253  PHE253     -0.0003
    147  CE2        7.8260   62.9890   31.7870 C.ar  253  PHE253     -0.0003
    148  CZ         6.7880   63.2250   30.8720 C.ar  253  PHE253     -0.0000
    149  N         10.2520   61.9690   36.0530 N.3   278  SER278     -0.1202
    150  CA        11.5550   61.8310   35.3800 C.3   278  SER278      0.2020
    151  C         12.4690   62.9850   35.8080 C.2   278  SER278      0.2619
    152  O         12.0030   63.9440   36.4690 O.2   278  SER278     -0.2717
    153  CB        11.3610   61.8610   33.8630 C.3   278  SER278      0.2103
    154  OG        10.6700   63.0490   33.4920 O.3   278  SER278     -0.2182
    155  N         13.7520   62.8960   35.4390 N.am  279  GLY279     -0.1956
    156  CA        14.7060   64.0030   35.6260 C.3   279  GLY279      0.1869
    157  C         14.9440   64.3390   37.0900 C.2   279  GLY279      0.2309
    158  O         15.1140   65.5210   37.4530 O.2   279  GLY279     -0.2863
@<TRIPOS>BOND
     1    82    81    1
     2    76    75    2
     3    73    74    1
     4    70    72   ar
     5    70    68   ar
     6    72    71   ar
     7    75    74    1
     8    81    80    2
     9    81    83    1
    10    79    80    1
    11    79    78    1
    12    74    77    1
    13   105   104    1
    14    77    78    1
    15    68    67   ar
    16    71    69   ar
    17   104   103   ar
    18   104   102   ar
    19   103   101   ar
    20   102   100   ar
    21    67    69   ar
    22    67    66    1
    23    64    63    1
    24    64    65    2
    25   100    99   ar
    26   101    99   ar
    27    63    66    1
    28    63    62    1
    29    96    97    2
    30    96    95    1
    31   106   107    1
    32    99    98    1
    33   114   112   am
    34   113   112    2
    35   109   108    2
    36    95    98    1
    37    95    94    1
    38   112   111    1
    39    88    89    1
    40    88    85    1
    41   107   108    1
    42   107   110    1
    43    84    85    1
    44    85    86    1
    45   137   136    1
    46   111   110    1
    47    55    57    1
    48    55    54    1
    49    48    47    1
    50   135   136   ar
    51   135   133   ar
    52    49    47    1
    53   136   134   ar
    54    50    51    1
    55    87    86    2
    56    56    54    1
    57    53    52    2
    58    86    90   am
    59    47    46    2
    60    54    51    1
    61   133   131   ar
    62    51    52    1
    63    52    58   am
    64   119   120    1
    65   119   116    1
    66   134   132   ar
    67    90    91    1
    68    46    45    1
    69   131   132   ar
    70   131   130    1
    71    58    59    1
    72    45    44    1
    73    61    60    2
    74   129   128    2
    75    59    60    1
    76    91    92    1
    77   116   115    1
    78   116   117    1
    79   128   127    1
    80    92    93    2
    81   130   127    1
    82    44    43    1
    83   148   146   ar
    84   148   147   ar
    85   117   121   am
    86   117   118    2
    87   127   126    1
    88    43    40    1
    89   146   144   ar
    90    38    36   am
    91    12    11    1
    92   121   122    1
    93    29    28    2
    94    34    33    2
    95    42    41    2
    96   147   145   ar
    97   125   122    1
    98    11    10   ar
    99    11     9   ar
   100   144   143   ar
   101    10     8   ar
   102    36    35    1
   103    36    37    2
   104    35    32    1
   105   122   123    1
   106    28    30   am
   107    28    27    1
   108    40    41    1
   109    40    39    1
   110    33    39   am
   111    33    32    1
   112   138   139    1
   113   145   143   ar
   114     9     7   ar
   115   143   142    1
   116     8     6   ar
   117    32    31    1
   118    27    24    1
   119   154   153    1
   120   123   124    2
   121   139   142    1
   122   139   140    1
   123   153   150    1
   124     7     6   ar
   125     6     5    1
   126    24    25    1
   127    24    23    1
   128    25    26    2
   129   140   141    2
   130     5     2    1
   131    18    17    1
   132    20    19    1
   133    20    21    1
   134   150   151    1
   135   150   149    1
   136   155   156    1
   137   155   151   am
   138    22    21    2
   139   156   157    1
   140   151   152    2
   141    19    15   am
   142    17    14    1
   143     4     3    2
   144    16    15    2
   145     3     2    1
   146    15    14    1
   147     2     1    1
   148    14    13    1
   149   157   158    2
