@<TRIPOS>MOLECULE
tmp/5fntA00.pdb
 158 149 0 0 0
SMALL
GASTEIGER

@<TRIPOS>ATOM
      1  N         10.1370   65.6130   37.4270 N.3    10  TYR10      -0.1241
      2  CA         9.0910   66.1790   36.5700 C.3    10  TYR10       0.1605
      3  C          7.8890   65.2510   36.4950 C.2    10  TYR10       0.2264
      4  O          8.0350   64.0690   36.2160 O.2    10  TYR10      -0.2867
      5  CB         9.6420   66.4010   35.1550 C.3    10  TYR10       0.0534
      6  CG         8.6780   67.1030   34.2260 C.ar   10  TYR10      -0.0201
      7  CD1        7.7360   66.3730   33.4820 C.ar   10  TYR10      -0.0009
      8  CD2        8.7040   68.4940   34.0880 C.ar   10  TYR10      -0.0009
      9  CE1        6.8420   67.0200   32.6220 C.ar   10  TYR10       0.0417
     10  CE2        7.8180   69.1490   33.2330 C.ar   10  TYR10       0.0417
     11  CZ         6.8980   68.4050   32.5100 C.ar   10  TYR10       0.1957
     12  OH         6.0290   69.0620   31.6690 O.3    10  TYR10      -0.2866
     13  N         13.5660   70.0090   37.6820 N.3    39  SER39      -0.1202
     14  CA        13.7370   68.7180   36.9980 C.3    39  SER39       0.2020
     15  C         15.0920   68.7840   36.2960 C.2    39  SER39       0.2619
     16  O         15.6770   69.8710   36.1920 O.2    39  SER39      -0.2717
     17  CB        12.6030   68.5230   36.0000 C.3    39  SER39       0.2103
     18  OG        12.4940   69.6790   35.1590 O.3    39  SER39      -0.2182
     19  N         15.6090   67.6600   35.8110 N.am   40  GLY40      -0.1956
     20  CA        16.9370   67.6470   35.1520 C.3    40  GLY40       0.1869
     21  C         18.1130   68.0890   36.0100 C.2    40  GLY40       0.2309
     22  O         19.1410   68.5300   35.4910 O.2    40  GLY40      -0.2863
     23  N         10.5080   74.1080   35.3140 N.3    58  ASN58      -0.1240
     24  CA         9.4350   74.1540   34.3180 C.3    58  ASN58       0.1653
     25  C          8.1360   74.3070   35.0790 C.2    58  ASN58       0.2266
     26  O          7.6440   73.3390   35.6320 O.2    58  ASN58      -0.2867
     27  CB         9.3890   72.8540   33.4840 C.3    58  ASN58       0.1155
     28  CG        10.5690   72.7090   32.5470 C.2    58  ASN58       0.2627
     29  OD1       10.8040   73.5720   31.7030 O.2    58  ASN58      -0.2716
     30  ND2       11.3260   71.6090   32.6880 N.am   58  ASN58      -0.0877
     31  N         20.9260   72.8220   33.1030 N.3    90  ASN90      -0.1225
     32  CA        19.7920   71.9220   33.0890 C.3    90  ASN90       0.1785
     33  C         20.2350   70.6020   32.4350 C.2    90  ASN90       0.2597
     34  O         21.0310   70.6250   31.4820 O.2    90  ASN90      -0.2718
     35  CB        18.6190   72.5330   32.2990 C.3    90  ASN90       0.1169
     36  CG        17.4190   71.6110   32.2290 C.2    90  ASN90       0.2627
     37  OD1       17.1230   70.8940   33.1860 O.2    90  ASN90      -0.2716
     38  ND2       16.7090   71.6200   31.0770 N.am   90  ASN90      -0.0877
     39  N         19.7170   69.4830   32.9520 N.am   91  ARG91      -0.1979
     40  CA        20.0360   68.1170   32.4390 C.3    91  ARG91       0.1597
     41  C         21.5370   67.8630   32.6250 C.2    91  ARG91       0.2287
     42  O         22.2640   67.4680   31.7080 O.2    91  ARG91      -0.2864
     43  CB        19.5260   67.9260   30.9940 C.3    91  ARG91       0.0334
     44  CG        18.0130   68.1440   30.9420 C.3    91  ARG91       0.0492
     45  CD        17.4300   68.2110   29.5430 C.3    91  ARG91       0.2205
     46  NE        17.9960   69.3270   28.7980 N.pl3  91  ARG91      -0.0865
     47  CZ        17.7510   69.5830   27.5190 C.cat  91  ARG91       0.5346
     48  NH1       16.9380   68.7990   26.8210 N.pl3  91  ARG91       0.1354
     49  NH2       18.3300   70.6360   26.9470 N.pl3  91  ARG91       0.1354
     50  N         24.5410   67.4070   27.2080 N.3   137  ILE137     -0.1231
     51  CA        23.4530   67.6030   28.1460 C.3   137  ILE137      0.1692
     52  C         22.8320   66.2020   28.3000 C.2   137  ILE137      0.2592
     53  O         23.0050   65.3680   27.4220 O.2   137  ILE137     -0.2718
     54  CB        22.4780   68.7010   27.6330 C.3   137  ILE137      0.0266
     55  CG1       21.6290   68.2180   26.4400 C.3   137  ILE137      0.0019
     56  CG2       23.2810   69.9210   27.2090 C.3   137  ILE137      0.0020
     57  CD1       20.3190   67.5470   26.8090 C.3   137  ILE137      0.0001
     58  N         22.1220   65.9420   29.3920 N.am  138  GLY138     -0.1957
     59  CA        21.6030   64.5910   29.6610 C.3   138  GLY138      0.1869
     60  C         22.7790   63.6310   29.7920 C.2   138  GLY138      0.2309
     61  O         22.6840   62.4420   29.4410 O.2   138  GLY138     -0.2863
     62  N         23.6080   64.5490   24.8110 N.3   154  PHE154     -0.1241
     63  CA        23.1330   65.2070   23.5960 C.3   154  PHE154      0.1605
     64  C         23.9580   66.4770   23.4160 C.2   154  PHE154      0.2264
     65  O         24.0920   67.2770   24.3460 O.2   154  PHE154     -0.2867
     66  CB        21.6340   65.5190   23.7480 C.3   154  PHE154      0.0534
     67  CG        21.0110   66.2130   22.5590 C.ar  154  PHE154     -0.0203
     68  CD1       20.8820   65.5670   21.3270 C.ar  154  PHE154     -0.0042
     69  CD2       20.5430   67.5280   22.6680 C.ar  154  PHE154     -0.0042
     70  CE1       20.3070   66.2040   20.2260 C.ar  154  PHE154     -0.0003
     71  CE2       19.9640   68.1730   21.5670 C.ar  154  PHE154     -0.0003
     72  CZ        19.8450   67.5120   20.3440 C.ar  154  PHE154     -0.0000
     73  N         22.3470   62.7540   19.6100 N.3   159  ARG159     -0.1245
     74  CA        22.5490   61.9570   20.8220 C.3   159  ARG159      0.1563
     75  C         23.8480   61.1630   20.6090 C.2   159  ARG159      0.2260
     76  O         24.2060   60.8310   19.4650 O.2   159  ARG159     -0.2867
     77  CB        21.3390   61.0660   21.1220 C.3   159  ARG159      0.0307
     78  CG        20.1550   61.8150   21.7460 C.3   159  ARG159      0.0489
     79  CD        19.2220   62.4040   20.6870 C.3   159  ARG159      0.2205
     80  NE        18.3040   63.3790   21.2850 N.pl3 159  ARG159     -0.0865
     81  CZ        17.4190   64.1190   20.6160 C.cat 159  ARG159      0.5346
     82  NH1       17.2890   64.0300   19.2850 N.pl3 159  ARG159      0.1354
     83  NH2       16.6500   64.9640   21.2890 N.pl3 159  ARG159      0.1354
     84  N         21.2260   59.2180   25.6210 N.3   184  SER184     -0.1202
     85  CA        21.0650   60.5210   26.2770 C.3   184  SER184      0.2020
     86  C         20.1280   60.3480   27.4510 C.2   184  SER184      0.2619
     87  O         19.0610   59.7200   27.3190 O.2   184  SER184     -0.2717
     88  CB        20.4590   61.5200   25.2860 C.3   184  SER184      0.2103
     89  OG        20.3910   62.8090   25.8770 O.3   184  SER184     -0.2182
     90  N         20.4950   60.8930   28.6070 N.am  185  GLY185     -0.1956
     91  CA        19.6850   60.7020   29.8140 C.3   185  GLY185      0.1869
     92  C         19.6320   59.2550   30.2900 C.2   185  GLY185      0.2309
     93  O         18.5950   58.7750   30.7530 O.2   185  GLY185     -0.2863
     94  N         17.9020   57.5540   26.0030 N.3   201  TYR201     -0.1241
     95  CA        17.1030   57.9100   24.8420 C.3   201  TYR201      0.1605
     96  C         18.0820   58.0570   23.6950 C.2   201  TYR201      0.2264
     97  O         19.1770   58.5880   23.8800 O.2   201  TYR201     -0.2867
     98  CB        16.4150   59.2530   25.1270 C.3   201  TYR201      0.0534
     99  CG        15.5840   59.8200   24.0070 C.ar  201  TYR201     -0.0201
    100  CD1       14.4220   59.1640   23.5850 C.ar  201  TYR201     -0.0009
    101  CD2       15.9510   61.0140   23.3660 C.ar  201  TYR201     -0.0009
    102  CE1       13.6420   59.6690   22.5590 C.ar  201  TYR201      0.0417
    103  CE2       15.1640   61.5360   22.3210 C.ar  201  TYR201      0.0417
    104  CZ        14.0170   60.8530   21.9320 C.ar  201  TYR201      0.1957
    105  OH        13.2010   61.3150   20.9100 O.3   201  TYR201     -0.2866
    106  N         13.2190   55.1170   24.0110 N.3   206  GLN206     -0.1245
    107  CA        13.7410   54.9560   25.3640 C.3   206  GLN206      0.1566
    108  C         14.2360   53.5160   25.4600 C.2   206  GLN206      0.2260
    109  O         13.6220   52.6000   24.9010 O.2   206  GLN206     -0.2867
    110  CB        12.6860   55.2580   26.4280 C.3   206  GLN206      0.0367
    111  CG        12.1030   56.6780   26.3850 C.3   206  GLN206      0.0905
    112  CD        11.0870   56.8510   25.2500 C.2   206  GLN206      0.2608
    113  OE1       10.4790   55.8900   24.8130 O.2   206  GLN206     -0.2717
    114  NE2       10.9060   58.0860   24.7750 N.am  206  GLN206     -0.0878
    115  N         14.2620   56.5730   30.0020 N.3   231  SER231     -0.1202
    116  CA        15.2120   57.6890   29.8970 C.3   231  SER231      0.2020
    117  C         14.9500   58.6460   31.0690 C.2   231  SER231      0.2618
    118  O         13.8650   58.6150   31.6580 O.2   231  SER231     -0.2717
    119  CB        15.0190   58.4130   28.5690 C.3   231  SER231      0.2103
    120  OG        13.7230   58.9930   28.5280 O.3   231  SER231     -0.2182
    121  N         15.9460   59.4810   31.3860 N.am  232  ALA232     -0.1979
    122  CA        15.9020   60.4860   32.4680 C.3   232  ALA232      0.1597
    123  C         15.5600   59.7760   33.7850 C.2   232  ALA232      0.2287
    124  O         14.7070   60.2050   34.5850 O.2   232  ALA232     -0.2864
    125  CB        14.9300   61.6230   32.1390 C.3   232  ALA232      0.0319
    126  N         11.1700   57.9340   32.0590 N.3   248  TYR248     -0.1241
    127  CA        10.1030   58.0170   31.0550 C.3   248  TYR248      0.1605
    128  C         10.2420   56.8850   30.0410 C.2   248  TYR248      0.2264
    129  O         11.3470   56.6340   29.5470 O.2   248  TYR248     -0.2867
    130  CB        10.1640   59.3920   30.3770 C.3   248  TYR248      0.0534
    131  CG         9.1160   59.6130   29.3020 C.ar  248  TYR248     -0.0201
    132  CD1        7.7580   59.6980   29.6250 C.ar  248  TYR248     -0.0009
    133  CD2        9.4900   59.7380   27.9470 C.ar  248  TYR248     -0.0009
    134  CE1        6.7910   59.9010   28.6370 C.ar  248  TYR248      0.0417
    135  CE2        8.5350   59.9410   26.9560 C.ar  248  TYR248      0.0417
    136  CZ         7.1910   60.0210   27.3100 C.ar  248  TYR248      0.1957
    137  OH         6.2330   60.2220   26.3370 O.3   248  TYR248     -0.2866
    138  N          5.3220   58.3750   32.9300 N.3   253  PHE253     -0.1241
    139  CA         6.3780   58.7520   33.8810 C.3   253  PHE253      0.1605
    140  C          6.3380   57.7210   34.9920 C.2   253  PHE253      0.2264
    141  O          5.3720   57.6520   35.7710 O.2   253  PHE253     -0.2867
    142  CB         6.1550   60.1980   34.3690 C.3   253  PHE253      0.0534
    143  CG         6.2530   61.1900   33.2560 C.ar  253  PHE253     -0.0203
    144  CD1        5.1700   61.3930   32.3770 C.ar  253  PHE253     -0.0042
    145  CD2        7.4230   61.9240   33.0730 C.ar  253  PHE253     -0.0042
    146  CE1        5.2590   62.3110   31.3430 C.ar  253  PHE253     -0.0003
    147  CE2        7.5200   62.8510   32.0330 C.ar  253  PHE253     -0.0003
    148  CZ         6.4370   63.0400   31.1720 C.ar  253  PHE253     -0.0000
    149  N         10.1520   61.6890   36.3380 N.3   278  SER278     -0.1202
    150  CA        11.4160   61.5390   35.6130 C.3   278  SER278      0.2020
    151  C         12.3180   62.7340   35.9380 C.2   278  SER278      0.2619
    152  O         11.8570   63.7200   36.5230 O.2   278  SER278     -0.2717
    153  CB        11.1860   61.3750   34.0970 C.3   278  SER278      0.2103
    154  OG        10.4900   62.5040   33.5700 O.3   278  SER278     -0.2182
    155  N         13.5950   62.6390   35.5600 N.am  279  GLY279     -0.1956
    156  CA        14.5490   63.7380   35.6970 C.3   279  GLY279      0.1869
    157  C         14.8090   64.1120   37.1440 C.2   279  GLY279      0.2309
    158  O         14.9880   65.3140   37.4640 O.2   279  GLY279     -0.2863
@<TRIPOS>BOND
     1    82    81    1
     2    76    75    2
     3    73    74    1
     4    70    72   ar
     5    70    68   ar
     6    72    71   ar
     7    75    74    1
     8    81    80    2
     9    81    83    1
    10    79    80    1
    11    79    78    1
    12    74    77    1
    13   105   104    1
    14    77    78    1
    15    68    67   ar
    16    71    69   ar
    17   104   103   ar
    18   104   102   ar
    19   103   101   ar
    20    67    69   ar
    21    67    66    1
    22   102   100   ar
    23   101    99   ar
    24    64    63    1
    25    64    65    2
    26   100    99   ar
    27    63    66    1
    28    63    62    1
    29    96    97    2
    30    96    95    1
    31    99    98    1
    32   106   107    1
    33   114   112   am
    34   113   112    2
    35    95    98    1
    36    95    94    1
    37   109   108    2
    38   112   111    1
    39    88    89    1
    40    88    85    1
    41   107   108    1
    42   107   110    1
    43    84    85    1
    44    85    86    1
    45   137   136    1
    46   111   110    1
    47    55    57    1
    48    55    54    1
    49    48    47    1
    50    49    47    1
    51   135   136   ar
    52   135   133   ar
    53    50    51    1
    54    56    54    1
    55   136   134   ar
    56    87    86    2
    57    53    52    2
    58    86    90   am
    59    47    46    2
    60    54    51    1
    61   133   131   ar
    62    51    52    1
    63    52    58   am
    64   120   119    1
    65   119   116    1
    66    90    91    1
    67   134   132   ar
    68    46    45    1
    69   131   132   ar
    70   131   130    1
    71    58    59    1
    72    61    60    2
    73    45    44    1
    74   129   128    2
    75    59    60    1
    76    91    92    1
    77   116   115    1
    78   116   117    1
    79   128   127    1
    80    92    93    2
    81   130   127    1
    82    44    43    1
    83    43    40    1
    84   127   126    1
    85   117   121   am
    86   117   118    2
    87    38    36   am
    88   148   146   ar
    89   148   147   ar
    90   146   144   ar
    91   121   122    1
    92    34    33    2
    93    12    11    1
    94    29    28    2
    95    42    41    2
    96   147   145   ar
    97   125   122    1
    98    36    35    1
    99    36    37    2
   100    35    32    1
   101   144   143   ar
   102    33    39   am
   103    33    32    1
   104    40    41    1
   105    40    39    1
   106   122   123    1
   107    11     9   ar
   108    11    10   ar
   109    28    30   am
   110    28    27    1
   111     9     7   ar
   112   138   139    1
   113   145   143   ar
   114    32    31    1
   115    10     8   ar
   116   143   142    1
   117     7     6   ar
   118    27    24    1
   119   154   153    1
   120   123   124    2
   121   139   142    1
   122   139   140    1
   123     8     6   ar
   124   153   150    1
   125     6     5    1
   126    24    25    1
   127    24    23    1
   128   140   141    2
   129    25    26    2
   130    20    19    1
   131    20    21    1
   132     5     2    1
   133    18    17    1
   134    22    21    2
   135   155   156    1
   136   155   151   am
   137   150   151    1
   138   150   149    1
   139   156   157    1
   140    19    15   am
   141   151   152    2
   142    17    14    1
   143    16    15    2
   144     4     3    2
   145    15    14    1
   146     3     2    1
   147     2     1    1
   148    14    13    1
   149   157   158    2
