@<TRIPOS>MOLECULE
tmp/5fnuA00.pdb
 158 149 0 0 0
SMALL
GASTEIGER

@<TRIPOS>ATOM
      1  N         10.1680   65.6080   37.3920 N.3     9  TYR9       -0.1241
      2  CA         9.1290   66.1740   36.5240 C.3     9  TYR9        0.1605
      3  C          7.9470   65.2290   36.3880 C.2     9  TYR9        0.2264
      4  O          8.1120   64.0500   36.1010 O.2     9  TYR9       -0.2867
      5  CB         9.7020   66.4610   35.1250 C.3     9  TYR9        0.0534
      6  CG         8.6880   67.0490   34.1700 C.ar    9  TYR9       -0.0201
      7  CD1        8.4450   68.4310   34.1490 C.ar    9  TYR9       -0.0009
      8  CD2        7.9680   66.2250   33.2820 C.ar    9  TYR9       -0.0009
      9  CE1        7.5150   68.9800   33.2740 C.ar    9  TYR9        0.0417
     10  CE2        7.0360   66.7690   32.4050 C.ar    9  TYR9        0.0417
     11  CZ         6.8220   68.1410   32.4130 C.ar    9  TYR9        0.1957
     12  OH         5.9100   68.6910   31.5550 O.3     9  TYR9       -0.2866
     13  N         13.5550   69.9910   37.6900 N.3    38  SER38      -0.1202
     14  CA        13.7630   68.7150   37.0200 C.3    38  SER38       0.2020
     15  C         15.1150   68.8060   36.3260 C.2    38  SER38       0.2619
     16  O         15.6870   69.9050   36.1920 O.2    38  SER38      -0.2717
     17  CB        12.6610   68.4740   35.9890 C.3    38  SER38       0.2103
     18  OG        12.5030   69.6430   35.1810 O.3    38  SER38      -0.2182
     19  N         15.6360   67.6650   35.8810 N.am   39  GLY39      -0.1956
     20  CA        16.9230   67.6430   35.1600 C.3    39  GLY39       0.1869
     21  C         18.1220   68.0570   36.0120 C.2    39  GLY39       0.2309
     22  O         19.1540   68.4770   35.4860 O.2    39  GLY39      -0.2863
     23  N         10.4420   74.0610   35.3350 N.3    57  ASN57      -0.1240
     24  CA         9.3500   74.1260   34.3630 C.3    57  ASN57       0.1653
     25  C          8.0580   74.2840   35.1300 C.2    57  ASN57       0.2266
     26  O          7.5570   73.3250   35.6930 O.2    57  ASN57      -0.2867
     27  CB         9.2900   72.8420   33.5180 C.3    57  ASN57       0.1155
     28  CG        10.4940   72.6770   32.6350 C.2    57  ASN57       0.2627
     29  OD1       10.7600   73.5150   31.7760 O.2    57  ASN57      -0.2716
     30  ND2       11.2410   71.5910   32.8370 N.am   57  ASN57      -0.0877
     31  N         20.8600   72.7690   33.1000 N.3    89  ASN89      -0.1225
     32  CA        19.7370   71.8390   33.0600 C.3    89  ASN89       0.1785
     33  C         20.1660   70.5350   32.3930 C.2    89  ASN89       0.2597
     34  O         20.9730   70.5660   31.4640 O.2    89  ASN89      -0.2718
     35  CB        18.5840   72.4390   32.2310 C.3    89  ASN89       0.1169
     36  CG        17.3710   71.5350   32.1740 C.2    89  ASN89       0.2627
     37  OD1       17.0790   70.8150   33.1220 O.2    89  ASN89      -0.2716
     38  ND2       16.6540   71.5680   31.0570 N.am   89  ASN89      -0.0877
     39  N         19.6300   69.4070   32.8620 N.am   90  ARG90      -0.1979
     40  CA        20.0080   68.0690   32.3290 C.3    90  ARG90       0.1597
     41  C         21.5110   67.8580   32.5570 C.2    90  ARG90       0.2287
     42  O         22.2810   67.4740   31.6600 O.2    90  ARG90      -0.2864
     43  CB        19.5430   67.8910   30.8640 C.3    90  ARG90       0.0334
     44  CG        18.0420   68.1640   30.7560 C.3    90  ARG90       0.0492
     45  CD        17.4770   68.1600   29.3390 C.3    90  ARG90       0.2205
     46  NE        17.9680   69.3050   28.5990 N.pl3  90  ARG90      -0.0865
     47  CZ        17.6540   69.5900   27.3410 C.cat  90  ARG90       0.5346
     48  NH1       16.8270   68.8070   26.6420 N.pl3  90  ARG90       0.1354
     49  NH2       18.1830   70.6750   26.7930 N.pl3  90  ARG90       0.1354
     50  N         24.4990   67.4440   27.0830 N.3   136  ILE136     -0.1231
     51  CA        23.3840   67.6190   28.0030 C.3   136  ILE136      0.1692
     52  C         22.7990   66.2180   28.1740 C.2   136  ILE136      0.2592
     53  O         23.0120   65.3700   27.3160 O.2   136  ILE136     -0.2718
     54  CB        22.3770   68.7080   27.4960 C.3   136  ILE136      0.0266
     55  CG1       21.5470   68.2430   26.2880 C.3   136  ILE136      0.0019
     56  CG2       23.1450   69.9480   27.0620 C.3   136  ILE136      0.0020
     57  CD1       20.2720   67.5080   26.6340 C.3   136  ILE136      0.0001
     58  N         22.0710   65.9730   29.2650 N.am  137  GLY137     -0.1957
     59  CA        21.5740   64.6240   29.5670 C.3   137  GLY137      0.1869
     60  C         22.7410   63.6590   29.7090 C.2   137  GLY137      0.2309
     61  O         22.6220   62.4760   29.3660 O.2   137  GLY137     -0.2863
     62  N         23.6150   64.5440   24.6940 N.3   153  PHE153     -0.1241
     63  CA        23.1240   65.1630   23.4610 C.3   153  PHE153      0.1605
     64  C         23.9480   66.4360   23.2650 C.2   153  PHE153      0.2264
     65  O         24.0980   67.2330   24.1980 O.2   153  PHE153     -0.2867
     66  CB        21.6210   65.4790   23.6130 C.3   153  PHE153      0.0534
     67  CG        21.0020   66.1530   22.4230 C.ar  153  PHE153     -0.0203
     68  CD1       20.9210   65.5060   21.1870 C.ar  153  PHE153     -0.0042
     69  CD2       20.4860   67.4630   22.5300 C.ar  153  PHE153     -0.0042
     70  CE1       20.3440   66.1320   20.0770 C.ar  153  PHE153     -0.0003
     71  CE2       19.9070   68.0920   21.4180 C.ar  153  PHE153     -0.0003
     72  CZ        19.8370   67.4260   20.1920 C.ar  153  PHE153     -0.0000
     73  N         22.3350   62.6580   19.5280 N.3   158  ARG158     -0.1245
     74  CA        22.5530   61.9160   20.7820 C.3   158  ARG158      0.1563
     75  C         23.8500   61.1220   20.5730 C.2   158  ARG158      0.2260
     76  O         24.2160   60.8140   19.4290 O.2   158  ARG158     -0.2867
     77  CB        21.3630   61.0180   21.1500 C.3   158  ARG158      0.0307
     78  CG        20.1570   61.7650   21.7270 C.3   158  ARG158      0.0489
     79  CD        19.1940   62.2640   20.6560 C.3   158  ARG158      0.2205
     80  NE        18.3160   63.3060   21.2070 N.pl3 158  ARG158     -0.0865
     81  CZ        17.4750   64.0580   20.4940 C.cat 158  ARG158      0.5346
     82  NH1       17.3670   63.9080   19.1670 N.pl3 158  ARG158      0.1354
     83  NH2       16.7310   64.9720   21.1150 N.pl3 158  ARG158      0.1354
     84  N         21.2010   59.1940   25.5330 N.3   183  SER183     -0.1202
     85  CA        21.0420   60.4940   26.1970 C.3   183  SER183      0.2020
     86  C         20.1070   60.3100   27.3920 C.2   183  SER183      0.2619
     87  O         19.0420   59.6730   27.2640 O.2   183  SER183     -0.2717
     88  CB        20.3940   61.4740   25.2220 C.3   183  SER183      0.2103
     89  OG        20.2930   62.7560   25.8200 O.3   183  SER183     -0.2182
     90  N         20.4810   60.8510   28.5420 N.am  184  GLY184     -0.1956
     91  CA        19.6730   60.6710   29.7660 C.3   184  GLY184      0.1869
     92  C         19.6550   59.2380   30.2480 C.2   184  GLY184      0.2309
     93  O         18.6410   58.7270   30.7220 O.2   184  GLY184     -0.2863
     94  N         17.8360   57.5280   25.9620 N.3   200  TYR200     -0.1241
     95  CA        17.0770   57.8790   24.7750 C.3   200  TYR200      0.1605
     96  C         18.0580   58.0470   23.6300 C.2   200  TYR200      0.2264
     97  O         19.1400   58.6020   23.8090 O.2   200  TYR200     -0.2867
     98  CB        16.3690   59.2330   25.0280 C.3   200  TYR200      0.0534
     99  CG        15.5220   59.7920   23.9020 C.ar  200  TYR200     -0.0201
    100  CD1       14.3880   59.1070   23.4480 C.ar  200  TYR200     -0.0009
    101  CD2       15.8540   61.0130   23.2900 C.ar  200  TYR200     -0.0009
    102  CE1       13.6000   59.6160   22.4110 C.ar  200  TYR200      0.0417
    103  CE2       15.0690   61.5330   22.2490 C.ar  200  TYR200      0.0417
    104  CZ        13.9520   60.8340   21.8180 C.ar  200  TYR200      0.1957
    105  OH        13.1690   61.3260   20.7980 O.3   200  TYR200     -0.2866
    106  N         13.1530   55.0370   23.8960 N.3   205  GLN205     -0.1245
    107  CA        13.7070   54.9430   25.2590 C.3   205  GLN205      0.1566
    108  C         14.2130   53.4930   25.3650 C.2   205  GLN205      0.2260
    109  O         13.6080   52.5840   24.7870 O.2   205  GLN205     -0.2867
    110  CB        12.6740   55.2740   26.3390 C.3   205  GLN205      0.0367
    111  CG        12.0590   56.6870   26.2570 C.3   205  GLN205      0.0905
    112  CD        11.0220   56.8200   25.1410 C.2   205  GLN205      0.2608
    113  OE1       10.4560   55.8390   24.6920 O.2   205  GLN205     -0.2717
    114  NE2       10.7740   58.0560   24.6930 N.am  205  GLN205     -0.0878
    115  N         14.2220   56.5370   29.9790 N.3   230  SER230     -0.1202
    116  CA        15.1880   57.6220   29.8520 C.3   230  SER230      0.2020
    117  C         14.9800   58.5660   31.0420 C.2   230  SER230      0.2618
    118  O         13.8990   58.5510   31.6590 O.2   230  SER230     -0.2717
    119  CB        14.9630   58.3660   28.5440 C.3   230  SER230      0.2103
    120  OG        13.6990   59.0250   28.5700 O.3   230  SER230     -0.2182
    121  N         16.0050   59.3730   31.3500 N.am  231  ALA231     -0.1979
    122  CA        15.9960   60.3360   32.4720 C.3   231  ALA231      0.1597
    123  C         15.6080   59.6620   33.7950 C.2   231  ALA231      0.2287
    124  O         14.7710   60.1510   34.5770 O.2   231  ALA231     -0.2864
    125  CB        15.1090   61.5430   32.1720 C.3   231  ALA231      0.0319
    126  N         11.1570   57.8410   31.9780 N.3   247  TYR247     -0.1241
    127  CA        10.0690   57.9660   31.0340 C.3   247  TYR247      0.1605
    128  C         10.2260   56.8430   30.0170 C.2   247  TYR247      0.2264
    129  O         11.3480   56.5940   29.5720 O.2   247  TYR247     -0.2867
    130  CB        10.1500   59.3710   30.4060 C.3   247  TYR247      0.0534
    131  CG         9.1200   59.6200   29.3360 C.ar  247  TYR247     -0.0201
    132  CD1        7.7470   59.6570   29.6440 C.ar  247  TYR247     -0.0009
    133  CD2        9.5130   59.8190   28.0020 C.ar  247  TYR247     -0.0009
    134  CE1        6.7970   59.8860   28.6580 C.ar  247  TYR247      0.0417
    135  CE2        8.5690   60.0490   27.0080 C.ar  247  TYR247      0.0417
    136  CZ         7.2110   60.0800   27.3450 C.ar  247  TYR247      0.1957
    137  OH         6.2540   60.3080   26.3720 O.3   247  TYR247     -0.2866
    138  N          5.2910   58.3970   32.8180 N.3   252  PHE252     -0.1241
    139  CA         6.3510   58.7950   33.7520 C.3   252  PHE252      0.1605
    140  C          6.3010   57.7720   34.8710 C.2   252  PHE252      0.2264
    141  O          5.3370   57.7300   35.6510 O.2   252  PHE252     -0.2867
    142  CB         6.1220   60.2520   34.1960 C.3   252  PHE252      0.0534
    143  CG         6.3120   61.2150   33.0640 C.ar  252  PHE252     -0.0203
    144  CD1        5.2720   61.4620   32.1450 C.ar  252  PHE252     -0.0042
    145  CD2        7.5300   61.8770   32.9080 C.ar  252  PHE252     -0.0042
    146  CE1        5.4480   62.3510   31.0990 C.ar  252  PHE252     -0.0003
    147  CE2        7.7160   62.7720   31.8570 C.ar  252  PHE252     -0.0003
    148  CZ         6.6750   63.0060   30.9580 C.ar  252  PHE252     -0.0000
    149  N         10.1820   61.6810   36.2020 N.3   277  SER277     -0.1202
    150  CA        11.4750   61.5010   35.5190 C.3   277  SER277      0.2020
    151  C         12.3760   62.7010   35.8760 C.2   277  SER277      0.2619
    152  O         11.9010   63.6570   36.4770 O.2   277  SER277     -0.2717
    153  CB        11.2830   61.3780   33.9950 C.3   277  SER277      0.2103
    154  OG        10.5790   62.5170   33.4920 O.3   277  SER277     -0.2182
    155  N         13.6560   62.6320   35.5030 N.am  278  GLY278     -0.1956
    156  CA        14.6070   63.7550   35.6690 C.3   278  GLY278      0.1869
    157  C         14.8490   64.1050   37.1320 C.2   278  GLY278      0.2309
    158  O         15.0470   65.2930   37.4820 O.2   278  GLY278     -0.2863
@<TRIPOS>BOND
     1    82    81    1
     2    76    75    2
     3    73    74    1
     4    70    72   ar
     5    70    68   ar
     6    72    71   ar
     7    81    83    1
     8    81    80    2
     9    75    74    1
    10    79    80    1
    11    79    78    1
    12    74    77    1
    13   105   104    1
    14    77    78    1
    15    68    67   ar
    16    71    69   ar
    17   104   103   ar
    18   104   102   ar
    19   103   101   ar
    20   102   100   ar
    21    67    69   ar
    22    67    66    1
    23    64    63    1
    24    64    65    2
    25   101    99   ar
    26   100    99   ar
    27    63    66    1
    28    63    62    1
    29    96    97    2
    30    96    95    1
    31   106   107    1
    32    99    98    1
    33   113   112    2
    34   114   112   am
    35    95    98    1
    36    95    94    1
    37   109   108    2
    38   112   111    1
    39    88    89    1
    40    88    85    1
    41   107   108    1
    42   107   110    1
    43    84    85    1
    44    85    86    1
    45   111   110    1
    46    55    57    1
    47    55    54    1
    48   137   136    1
    49    48    47    1
    50    49    47    1
    51   135   136   ar
    52   135   133   ar
    53    56    54    1
    54    50    51    1
    55    87    86    2
    56    53    52    2
    57    47    46    2
    58   136   134   ar
    59    86    90   am
    60    54    51    1
    61   133   131   ar
    62    51    52    1
    63    52    58   am
    64    90    91    1
    65   119   120    1
    66   119   116    1
    67    46    45    1
    68   134   132   ar
    69    58    59    1
    70   131   132   ar
    71   131   130    1
    72    45    44    1
    73    61    60    2
    74    59    60    1
    75   129   128    2
    76    91    92    1
    77   116   115    1
    78   116   117    1
    79   128   127    1
    80    92    93    2
    81   130   127    1
    82    44    43    1
    83    43    40    1
    84   148   146   ar
    85   148   147   ar
    86   127   126    1
    87   117   121   am
    88   117   118    2
    89    38    36   am
    90   146   144   ar
    91   121   122    1
    92    34    33    2
    93    12    11    1
    94    42    41    2
    95    29    28    2
    96   147   145   ar
    97   144   143   ar
    98   125   122    1
    99    36    35    1
   100    36    37    2
   101    35    32    1
   102    40    41    1
   103    40    39    1
   104    33    39   am
   105    33    32    1
   106    10    11   ar
   107    10     8   ar
   108    11     9   ar
   109   122   123    1
   110    28    30   am
   111    28    27    1
   112   138   139    1
   113   145   143   ar
   114    32    31    1
   115   143   142    1
   116     9     7   ar
   117     8     6   ar
   118   154   153    1
   119    27    24    1
   120   139   142    1
   121   139   140    1
   122   123   124    2
   123   153   150    1
   124     7     6   ar
   125     6     5    1
   126    24    25    1
   127    24    23    1
   128   140   141    2
   129     5     2    1
   130    25    26    2
   131    20    19    1
   132    20    21    1
   133    18    17    1
   134    22    21    2
   135   155   156    1
   136   155   151   am
   137   150   151    1
   138   150   149    1
   139   156   157    1
   140   151   152    2
   141    19    15   am
   142    17    14    1
   143     4     3    2
   144    16    15    2
   145    15    14    1
   146     3     2    1
   147     2     1    1
   148    14    13    1
   149   157   158    2
