@<TRIPOS>MOLECULE
tmp/5fnvC01.pdb
 215 202 0 0 0
SMALL
GASTEIGER

@<TRIPOS>ATOM
      1  N         20.0490   42.7350   -4.9980 N.3     4  CYS4       -0.1235
      2  CA        19.9720   41.2830   -5.0250 C.3     4  CYS4        0.1677
      3  C         20.1710   40.8220   -6.4320 C.2     4  CYS4        0.2270
      4  O         19.4660   41.3150   -7.3300 O.2     4  CYS4       -0.2867
      5  CB        18.5350   40.8380   -4.6730 C.3     4  CYS4        0.0956
      6  SG        18.4490   39.1290   -4.1430 S.3     4  CYS4       -0.0801
      7  N         23.8000   42.9840   -1.4700 N.3   133  GLN133     -0.1230
      8  CA        23.4340   42.2250   -0.2720 C.3   133  GLN133      0.1701
      9  C         23.5600   40.7330   -0.4670 C.2   133  GLN133      0.2632
     10  O         24.0130   40.0690    0.4530 O.2   133  GLN133     -0.2714
     11  CB        22.0940   42.6970    0.2950 C.3   133  GLN133      0.0381
     12  CG        22.1600   44.1860    0.7680 C.3   133  GLN133      0.0905
     13  CD        23.1390   44.5500    1.9090 C.2   133  GLN133      0.2608
     14  OE1       23.6340   45.7070    2.0200 O.2   133  GLN133     -0.2717
     15  NE2       23.3540   43.6020    2.7960 N.am  133  GLN133     -0.0878
     16  N         23.3200   40.2050   -1.6730 N.am  134  GLY134     -0.1718
     17  CA        23.6160   38.7960   -1.9520 C.2   134  GLY134      0.1480
     18  C         22.9750   38.2240   -3.1760 C.2   134  GLY134      0.2820
     19  O         22.5000   38.9410   -4.0380 O.2   134  GLY134     -0.2669
     20  N         22.9520   36.8950   -3.2230 N.am  135  PHE135     -0.1925
     21  CA        22.4950   36.1280   -4.3790 C.3   135  PHE135      0.1774
     22  C         21.3070   35.2330   -4.0240 C.2   135  PHE135      0.2619
     23  O         21.2540   34.7080   -2.9190 O.2   135  PHE135     -0.2715
     24  CB        23.6470   35.2390   -4.9000 C.3   135  PHE135      0.0574
     25  CG        24.9000   35.9890   -5.1760 C.ar  135  PHE135     -0.0200
     26  CD1       25.0420   36.6950   -6.3490 C.ar  135  PHE135     -0.0042
     27  CD2       25.9080   36.0550   -4.2390 C.ar  135  PHE135     -0.0042
     28  CE1       26.1930   37.4400   -6.6050 C.ar  135  PHE135     -0.0003
     29  CE2       27.0780   36.7980   -4.4840 C.ar  135  PHE135     -0.0003
     30  CZ        27.2180   37.5020   -5.6690 C.ar  135  PHE135     -0.0000
     31  N         20.3600   35.0940   -4.9570 N.am  136  LEU136     -0.1977
     32  CA        19.2730   34.1570   -4.8640 C.3   136  LEU136      0.1596
     33  C         19.4790   33.1630   -5.9860 C.2   136  LEU136      0.2287
     34  O         19.4770   33.5450   -7.1590 O.2   136  LEU136     -0.2864
     35  CB        17.9210   34.8430   -5.0760 C.3   136  LEU136      0.0297
     36  CG        17.5820   36.0820   -4.2460 C.3   136  LEU136      0.0022
     37  CD1       16.1390   36.5150   -4.5270 C.3   136  LEU136      0.0001
     38  CD2       17.7830   35.8410   -2.7520 C.3   136  LEU136      0.0001
     39  N         25.6600   37.1510    1.3910 N.3   165  SER165     -0.1217
     40  CA        24.6030   36.1470    1.6080 C.3   165  SER165      0.1889
     41  C         24.2550   35.4160    0.3330 C.2   165  SER165      0.2288
     42  O         24.1430   36.0090   -0.7230 O.2   165  SER165     -0.2866
     43  CB        23.3370   36.7830    2.1910 C.3   165  SER165      0.2089
     44  OG        23.6010   37.3150    3.4860 O.3   165  SER165     -0.2183
     45  N         21.1970   32.7850   -0.7930 N.3   167  LEU167     -0.1245
     46  CA        19.9520   32.0870   -0.5100 C.3   167  LEU167      0.1561
     47  C         19.6150   31.2390   -1.7210 C.2   167  LEU167      0.2260
     48  O         19.9300   31.6190   -2.8520 O.2   167  LEU167     -0.2867
     49  CB        18.8050   33.0870   -0.2170 C.3   167  LEU167      0.0270
     50  CG        18.7910   33.8190    1.1550 C.3   167  LEU167      0.0019
     51  CD1       19.9390   34.7530    1.3470 C.3   167  LEU167      0.0001
     52  CD2       17.5270   34.6120    1.2690 C.3   167  LEU167      0.0001
     53  N         16.4990   28.8430   -3.8070 N.3   169  PHE169     -0.1241
     54  CA        15.1670   28.2940   -4.0780 C.3   169  PHE169      0.1605
     55  C         15.4020   26.9980   -4.7890 C.2   169  PHE169      0.2264
     56  O         15.8070   27.0080   -5.9260 O.2   169  PHE169     -0.2867
     57  CB        14.3420   29.2220   -4.9470 C.3   169  PHE169      0.0534
     58  CG        13.7450   30.3380   -4.1720 C.ar  169  PHE169     -0.0203
     59  CD1       12.5640   30.1530   -3.4580 C.ar  169  PHE169     -0.0042
     60  CD2       14.3950   31.5490   -4.0730 C.ar  169  PHE169     -0.0042
     61  CE1       12.0360   31.1780   -2.6900 C.ar  169  PHE169     -0.0003
     62  CE2       13.8640   32.5780   -3.3130 C.ar  169  PHE169     -0.0003
     63  CZ        12.6910   32.3930   -2.6290 C.ar  169  PHE169     -0.0000
     64  N         20.5810   30.3120    3.6740 N.3   200  CYS200     -0.1235
     65  CA        19.1980   29.9720    3.8310 C.3   200  CYS200      0.1677
     66  C         18.7070   29.3230    2.5240 C.2   200  CYS200      0.2270
     67  O         18.9930   29.8340    1.4510 O.2   200  CYS200     -0.2867
     68  CB        18.4290   31.2420    4.1350 C.3   200  CYS200      0.0956
     69  SG        16.7250   30.9720    4.5990 S.3   200  CYS200     -0.0801
     70  N         15.1030   27.7060    0.5440 N.3   202  PHE202     -0.1241
     71  CA        13.6750   27.4620    0.5020 C.3   202  PHE202      0.1605
     72  C         13.4350   26.2890   -0.4390 C.2   202  PHE202      0.2264
     73  O         13.5640   26.4290   -1.6310 O.2   202  PHE202     -0.2867
     74  CB        12.9700   28.7210    0.0200 C.3   202  PHE202      0.0534
     75  CG        13.3640   29.9630    0.7760 C.ar  202  PHE202     -0.0203
     76  CD1       12.9570   30.1490    2.0980 C.ar  202  PHE202     -0.0042
     77  CD2       14.1350   30.9340    0.1900 C.ar  202  PHE202     -0.0042
     78  CE1       13.3150   31.2900    2.7970 C.ar  202  PHE202     -0.0003
     79  CE2       14.5170   32.0720    0.8900 C.ar  202  PHE202     -0.0003
     80  CZ        14.1060   32.2520    2.1930 C.ar  202  PHE202     -0.0000
     81  N          6.2330   36.7110   -2.5990 N.3   237  SER237     -0.1202
     82  CA         5.9520   37.0800   -1.1910 C.3   237  SER237      0.2020
     83  C          7.2150   37.0880   -0.3540 C.2   237  SER237      0.2619
     84  O          7.3470   37.8930    0.5420 O.2   237  SER237     -0.2717
     85  CB         4.9710   36.1160   -0.5370 C.3   237  SER237      0.2103
     86  OG         3.8160   35.9410   -1.3090 O.3   237  SER237     -0.2182
     87  N          8.1210   36.1530   -0.6130 N.am  238  ILE238     -0.1965
     88  CA         9.3580   36.0730    0.1420 C.3   238  ILE238      0.1727
     89  C         10.2800   37.2630   -0.1690 C.2   238  ILE238      0.2616
     90  O         10.9980   37.7210    0.7310 O.2   238  ILE238     -0.2715
     91  CB        10.0710   34.7160   -0.0660 C.3   238  ILE238      0.0290
     92  CG1        9.2490   33.6110    0.6180 C.3   238  ILE238      0.0022
     93  CG2       11.5090   34.7320    0.5110 C.3   238  ILE238      0.0023
     94  CD1        9.6130   32.2120    0.1540 C.3   238  ILE238      0.0001
     95  N         10.2800   37.7500   -1.4150 N.am  239  THR239     -0.1951
     96  CA        11.1290   38.8750   -1.8030 C.3   239  THR239      0.1897
     97  C         10.3960   40.2130   -1.7490 C.2   239  THR239      0.2313
     98  O         11.0300   41.2320   -1.9470 O.2   239  THR239     -0.2863
     99  CB        11.6920   38.6910   -3.1960 C.3   239  THR239      0.1794
    100  OG1       10.6100   38.5150   -4.1320 O.3   239  THR239     -0.2208
    101  CG2       12.5760   37.4830   -3.2350 C.3   239  THR239      0.0378
    102  N          9.2100   42.2580    0.6270 N.3   241  SER241     -0.1202
    103  CA         9.6900   43.3390    1.4900 C.3   241  SER241      0.2020
    104  C         10.9750   44.0040    0.9350 C.2   241  SER241      0.2618
    105  O         11.1870   45.1660    1.1850 O.2   241  SER241     -0.2717
    106  CB         9.9080   42.8540    2.9170 C.3   241  SER241      0.2103
    107  OG        11.0630   42.0620    2.9670 O.3   241  SER241     -0.2182
    108  N         11.8160   43.2790    0.1860 N.am  242  LEU242     -0.1979
    109  CA        12.9380   43.9020   -0.5490 C.3   242  LEU242      0.1596
    110  C         12.5110   44.8500   -1.6610 C.2   242  LEU242      0.2287
    111  O         13.1150   45.9040   -1.8570 O.2   242  LEU242     -0.2864
    112  CB        13.8440   42.8470   -1.1910 C.3   242  LEU242      0.0297
    113  CG        15.0650   42.4600   -0.4010 C.3   242  LEU242      0.0022
    114  CD1       15.7160   41.2670   -1.0680 C.3   242  LEU242      0.0001
    115  CD2       16.0290   43.6300   -0.3150 C.3   242  LEU242      0.0001
    116  N         12.8230   49.8270    4.5590 N.3   248  LEU248     -0.1245
    117  CA        13.6220   48.6390    4.9120 C.3   248  LEU248      0.1561
    118  C         15.1350   48.8600    5.0930 C.2   248  LEU248      0.2260
    119  O         15.8220   49.4450    4.2440 O.2   248  LEU248     -0.2867
    120  CB        13.4220   47.4900    3.9110 C.3   248  LEU248      0.0270
    121  CG        13.7880   46.0980    4.4470 C.3   248  LEU248      0.0019
    122  CD1       12.6630   45.5670    5.3500 C.3   248  LEU248      0.0001
    123  CD2       14.1200   45.1570    3.2890 C.3   248  LEU248      0.0001
    124  N         20.8200   42.9340    5.1360 N.3   252  LEU252     -0.1245
    125  CA        19.7490   41.9280    4.9040 C.3   252  LEU252      0.1561
    126  C         20.0050   40.5480    5.5410 C.2   252  LEU252      0.2260
    127  O         19.3470   39.5570    5.1620 O.2   252  LEU252     -0.2867
    128  CB        19.5370   41.7340    3.3890 C.3   252  LEU252      0.0270
    129  CG        19.4490   42.9890    2.5060 C.3   252  LEU252      0.0019
    130  CD1       19.1810   42.5510    1.0710 C.3   252  LEU252      0.0001
    131  CD2       18.3830   43.9880    2.9880 C.3   252  LEU252      0.0001
    132  N         17.3920   39.3790    8.6350 N.3   255  PHE255     -0.1227
    133  CA        16.3350   38.4820    8.3550 C.3   255  PHE255      0.1736
    134  C         16.6490   36.9780    8.5250 C.2   255  PHE255      0.2595
    135  O         15.7550   36.2130    8.7890 O.2   255  PHE255     -0.2718
    136  CB        15.8560   38.8560    6.9560 C.3   255  PHE255      0.0547
    137  CG        15.4710   40.3260    6.8280 C.ar  255  PHE255     -0.0202
    138  CD1       14.4200   40.8580    7.6070 C.ar  255  PHE255     -0.0042
    139  CD2       16.1610   41.1770    5.9770 C.ar  255  PHE255     -0.0042
    140  CE1       14.0610   42.2000    7.5190 C.ar  255  PHE255     -0.0003
    141  CE2       15.7970   42.5150    5.8760 C.ar  255  PHE255     -0.0003
    142  CZ        14.7500   43.0260    6.6490 C.ar  255  PHE255     -0.0000
    143  N         17.9020   36.5610    8.4430 N.am  256  GLN256     -0.1979
    144  CA        18.3180   35.2010    8.8360 C.3   256  GLN256      0.1601
    145  C         18.6960   35.0750   10.3250 C.2   256  GLN256      0.2287
    146  O         18.8960   33.9810   10.8520 O.2   256  GLN256     -0.2864
    147  CB        19.5180   34.6840    8.0070 C.3   256  GLN256      0.0394
    148  CG        20.3990   35.6070    7.1440 C.3   256  GLN256      0.0908
    149  CD        20.0570   35.5540    5.6550 C.2   256  GLN256      0.2608
    150  OE1       19.0650   34.9520    5.2670 O.2   256  GLN256     -0.2717
    151  NE2       20.8840   36.1860    4.8250 N.am  256  GLN256     -0.0878
    152  N         15.2660   33.5620   11.2020 N.3   259  LEU259     -0.1245
    153  CA        14.9830   32.1990   10.7610 C.3   259  LEU259      0.1561
    154  C         16.1010   31.1490   10.9430 C.2   259  LEU259      0.2260
    155  O         15.8360   29.9850   10.7920 O.2   259  LEU259     -0.2867
    156  CB        14.5740   32.2240    9.2770 C.3   259  LEU259      0.0270
    157  CG        13.3070   33.0220    8.8960 C.3   259  LEU259      0.0019
    158  CD1       13.2880   33.3550    7.3930 C.3   259  LEU259      0.0001
    159  CD2       12.0390   32.2860    9.3310 C.3   259  LEU259      0.0001
    160  N          7.8800   33.6430   10.3240 N.3   316  CYS316     -0.1221
    161  CA         7.7490   34.9430    9.7230 C.3   316  CYS316      0.1808
    162  C          6.5260   34.8880    8.7790 C.2   316  CYS316      0.2601
    163  O          6.3910   33.9450    7.9980 O.2   316  CYS316     -0.2717
    164  CB         9.0460   35.2410    8.9840 C.3   316  CYS316      0.0970
    165  SG         9.2030   36.9590    8.5040 S.3   316  CYS316     -0.0800
    166  N          5.6300   35.8660    8.8660 N.am  317  LEU317     -0.1965
    167  CA         4.4310   35.9450    8.0020 C.3   317  LEU317      0.1728
    168  C          4.4700   37.2080    7.1810 C.2   317  LEU317      0.2616
    169  O          4.7640   38.2680    7.7050 O.2   317  LEU317     -0.2715
    170  CB         3.1410   35.9690    8.8270 C.3   317  LEU317      0.0311
    171  CG         2.8120   34.6570    9.5280 C.3   317  LEU317      0.0022
    172  CD1        2.9080   34.8370   11.0170 C.3   317  LEU317      0.0001
    173  CD2        1.4050   34.1930    9.2260 C.3   317  LEU317      0.0001
    174  N          4.1490   37.1310    5.8980 N.am  318  LEU318     -0.1977
    175  CA         3.9730   38.3620    5.1170 C.3   318  LEU318      0.1596
    176  C          2.5680   38.3400    4.5710 C.2   318  LEU318      0.2287
    177  O          2.2150   37.4320    3.8100 O.2   318  LEU318     -0.2864
    178  CB         4.9870   38.5090    3.9540 C.3   318  LEU318      0.0297
    179  CG         4.6470   39.8010    3.1320 C.3   318  LEU318      0.0022
    180  CD1        5.4300   41.0110    3.5800 C.3   318  LEU318      0.0001
    181  CD2        4.8080   39.6350    1.6570 C.3   318  LEU318      0.0001
    182  N          7.0050   37.0200   13.6020 N.3   352  LYS352     -0.1231
    183  CA         7.3520   38.2340   12.8960 C.3   352  LYS352      0.1693
    184  C          6.3750   38.4140   11.7270 C.2   352  LYS352      0.2592
    185  O          6.1160   37.4840   10.9660 O.2   352  LYS352     -0.2718
    186  CB         8.8190   38.1660   12.4660 C.3   352  LYS352      0.0285
    187  CG         9.4270   39.4930   11.9980 C.3   352  LYS352      0.0035
    188  CD        10.5630   40.0430   12.8820 C.3   352  LYS352      0.0206
    189  CE        11.1900   41.3070   12.2700 C.3   352  LYS352      0.1093
    190  NZ        10.4970   42.5720   12.6740 N.3   352  LYS352     -0.1314
    191  N          5.8510   39.6300   11.5910 N.am  353  VAL353     -0.1966
    192  CA         4.7860   39.9490   10.6610 C.3   353  VAL353      0.1727
    193  C          5.1260   41.1570    9.8040 C.2   353  VAL353      0.2616
    194  O          5.4040   42.2100   10.2940 O.2   353  VAL353     -0.2715
    195  CB         3.4980   40.2690   11.4110 C.3   353  VAL353      0.0290
    196  CG1        2.3540   40.5780   10.4420 C.3   353  VAL353      0.0023
    197  CG2        3.0990   39.1070   12.3150 C.3   353  VAL353      0.0023
    198  N          5.0790   40.9830    8.5020 N.am  354  GLY354     -0.1955
    199  CA         5.0450   42.0980    7.5550 C.3   354  GLY354      0.1869
    200  C          3.6780   42.1800    6.8630 C.2   354  GLY354      0.2309
    201  O          3.0570   41.1530    6.5600 O.2   354  GLY354     -0.2863
    202  N          1.8990   34.6660    3.0610 N.3   376  CYS376     -0.1235
    203  CA         2.9590   33.6620    2.9310 C.3   376  CYS376      0.1677
    204  C          3.6660   33.5230    4.2910 C.2   376  CYS376      0.2270
    205  O          3.9720   34.5430    4.9300 O.2   376  CYS376     -0.2867
    206  CB         3.9750   34.0700    1.8740 C.3   376  CYS376      0.0956
    207  SG         5.2630   32.8250    1.7250 S.3   376  CYS376     -0.0801
    208  N          6.8900   31.6440    6.4900 N.3   378  LEU378     -0.1245
    209  CA         8.1210   30.8780    6.5320 C.3   378  LEU378      0.1561
    210  C          8.3120   30.4820    7.9650 C.2   378  LEU378      0.2260
    211  O          8.3880   31.3360    8.8480 O.2   378  LEU378     -0.2867
    212  CB         9.2830   31.7240    6.0770 C.3   378  LEU378      0.0270
    213  CG         9.3720   32.0410    4.5920 C.3   378  LEU378      0.0019
    214  CD1       10.4190   33.1280    4.3470 C.3   378  LEU378      0.0001
    215  CD2        9.7170   30.7730    3.8520 C.3   378  LEU378      0.0001
@<TRIPOS>BOND
     1     4     3    2
     2    34    33    2
     3    28    26   ar
     4    28    30   ar
     5     3     2    1
     6    26    25   ar
     7    33    32    1
     8    56    55    2
     9    30    29   ar
    10    25    24    1
    11    25    27   ar
    12    35    32    1
    13    35    36    1
    14     2     1    1
    15     2     5    1
    16    31    32    1
    17    31    22   am
    18    57    58    1
    19    57    54    1
    20    24    21    1
    21    55    54    1
    22     5     6    1
    23    37    36    1
    24    29    27   ar
    25    21    22    1
    26    21    20    1
    27    36    38    1
    28    58    60   ar
    29    58    59   ar
    30   100    99    1
    31    54    53    1
    32    60    62   ar
    33    19    18    2
    34    22    23    2
    35    59    61   ar
    36    62    63   ar
    37   101    99    1
    38    20    18   am
    39    99    96    1
    40    18    17    1
    41    48    47    2
    42    61    63   ar
    43    81    82    1
    44    17    16    2
    45    98    97    2
    46   111   110    2
    47    96    97    1
    48    96    95    1
    49    47    46    1
    50    16     9    1
    51   110   109    1
    52    73    72    2
    53     7     8    1
    54    95    89   am
    55    86    85    1
    56    82    85    1
    57    82    83    1
    58   112   109    1
    59   112   113    1
    60   114   113    1
    61    45    46    1
    62    42    41    2
    63    87    83   am
    64    87    88    1
    65   109   108    1
    66    46    49    1
    67     9     8    1
    68     9    10    2
    69    72    71    1
    70   113   115    1
    71    83    84    2
    72     8    11    1
    73    49    50    1
    74    89    88    1
    75    89    90    2
    76    91    88    1
    77    91    93    1
    78    91    92    1
    79    74    71    1
    80    74    75    1
    81    94    92    1
    82   108   104   am
    83    77    75   ar
    84    77    79   ar
    85    11    12    1
    86    41    40    1
    87    71    70    1
    88   102   103    1
    89    12    13    1
    90    75    76   ar
    91    79    80   ar
    92   104   105    2
    93   104   103    1
    94   130   129    1
    95    50    52    1
    96    50    51    1
    97    39    40    1
    98    67    66    2
    99   103   106    1
   100    40    43    1
   101   181   179    1
   102   207   206    1
   103   206   203    1
   104    13    14    2
   105    13    15   am
   106    76    78   ar
   107    43    44    1
   108    80    78   ar
   109   129   131    1
   110   129   128    1
   111    66    65    1
   112   106   107    1
   113   203   202    1
   114   203   204    1
   115   179   180    1
   116   179   178    1
   117   123   121    1
   118   128   125    1
   119    64    65    1
   120   177   176    2
   121    65    68    1
   122   215   213    1
   123   120   121    1
   124   120   117    1
   125   178   175    1
   126    68    69    1
   127   119   118    2
   128   204   205    2
   129   214   213    1
   130   121   122    1
   131   116   117    1
   132   176   175    1
   133   213   212    1
   134   151   149   am
   135   125   124    1
   136   125   126    1
   137   117   118    1
   138   175   174    1
   139   127   126    2
   140   150   149    2
   141   149   148    1
   142   141   139   ar
   143   141   142   ar
   144   174   168   am
   145   139   137   ar
   146   212   209    1
   147   208   209    1
   148   209   210    1
   149   201   200    2
   150   142   140   ar
   151   137   136    1
   152   137   138   ar
   153   200   199    1
   154   136   133    1
   155   148   147    1
   156   168   169    2
   157   168   167    1
   158   158   157    1
   159   140   138   ar
   160   199   198    1
   161   210   211    2
   162   163   162    2
   163   167   170    1
   164   167   166    1
   165   147   144    1
   166   133   134    1
   167   133   132    1
   168   143   134   am
   169   143   144    1
   170   198   193   am
   171   165   164    1
   172   134   135    2
   173   162   166   am
   174   162   161    1
   175   170   171    1
   176   144   145    1
   177   157   156    1
   178   157   159    1
   179   164   161    1
   180   173   171    1
   181   156   153    1
   182   171   172    1
   183   161   160    1
   184   193   194    2
   185   193   192    1
   186   145   146    2
   187   196   195    1
   188   192   195    1
   189   192   191    1
   190   153   154    1
   191   153   152    1
   192   155   154    2
   193   185   184    2
   194   195   197    1
   195   191   184   am
   196   184   183    1
   197   187   186    1
   198   187   188    1
   199   189   190    1
   200   189   188    1
   201   186   183    1
   202   183   182    1
