@<TRIPOS>MOLECULE
tmp/5fo1A00.pdb
 93 89 0 0 0
SMALL
GASTEIGER

@<TRIPOS>ATOM
      1  N         25.1220  -20.5820    4.1590 N.3    22  GLY22      -0.1210
      2  CA        24.6730  -21.8620    3.5820 C.3    22  GLY22       0.1956
      3  C         24.7040  -21.8620    2.0560 C.2    22  GLY22       0.2612
      4  O         24.8500  -20.8040    1.4330 O.2    22  GLY22      -0.2717
      5  N         24.5690  -23.0460    1.4520 N.am   23  VAL23      -0.1965
      6  CA        24.3660  -23.1660    0.0010 C.3    23  VAL23       0.1727
      7  C         23.0730  -22.4760   -0.4420 C.2    23  VAL23       0.2616
      8  O         23.0530  -21.7880   -1.4680 O.2    23  VAL23      -0.2715
      9  CB        24.3090  -24.6310   -0.4680 C.3    23  VAL23       0.0290
     10  CG1       24.3800  -24.6930   -1.9940 C.3    23  VAL23       0.0023
     11  CG2       25.4300  -25.4700    0.1600 C.3    23  VAL23       0.0023
     12  N         22.0000  -22.6600    0.3300 N.am   24  PHE24      -0.1960
     13  CA        20.7090  -21.9980    0.0660 C.3    24  PHE24       0.1771
     14  C         20.0430  -22.3550   -1.2770 C.2    24  PHE24       0.2619
     15  O         19.2450  -21.5710   -1.8010 O.2    24  PHE24      -0.2715
     16  CB        20.8330  -20.4600    0.1930 C.3    24  PHE24       0.0574
     17  CG        20.8900  -19.9670    1.6150 C.ar   24  PHE24      -0.0200
     18  CD1       19.7320  -19.9040    2.3930 C.ar   24  PHE24      -0.0042
     19  CD2       22.1050  -19.5870    2.1870 C.ar   24  PHE24      -0.0042
     20  CE1       19.7880  -19.4600    3.7060 C.ar   24  PHE24      -0.0003
     21  CE2       22.1640  -19.1520    3.5060 C.ar   24  PHE24      -0.0003
     22  CZ        21.0050  -19.0810    4.2620 C.ar   24  PHE24      -0.0000
     23  N         20.3580  -23.5250   -1.8250 N.am   25  ASP25      -0.1971
     24  CA        19.8120  -23.9240   -3.1170 C.3    25  ASP25       0.1709
     25  C         18.3220  -24.1320   -3.0140 C.2    25  ASP25       0.2293
     26  O         17.8640  -24.9720   -2.2500 O.2    25  ASP25      -0.2864
     27  CB        20.4880  -25.1890   -3.6570 C.3    25  ASP25       0.1436
     28  CG        20.1120  -25.4870   -5.1100 C.2    25  ASP25       0.3671
     29  OD1       19.8290  -24.5490   -5.8780 O.co2  25  ASP25      -0.2456
     30  OD2       20.0960  -26.6760   -5.4860 O.co2  25  ASP25      -0.2456
     31  N         14.1950  -22.7790    0.1070 N.3    28  HIS28      -0.1241
     32  CA        12.9740  -23.3950    0.6120 C.3    28  HIS28       0.1621
     33  C         12.5460  -22.8000    1.9350 C.2    28  HIS28       0.2264
     34  O         13.2100  -21.9010    2.4540 O.2    28  HIS28      -0.2867
     35  CB        13.1340  -24.9050    0.7280 C.3    28  HIS28       0.0745
     36  CG        14.3290  -25.3270    1.5310 C.ar   28  HIS28       0.0817
     37  ND1       14.5030  -24.9600    2.8210 N.ar   28  HIS28      -0.2268
     38  CD2       15.4280  -26.1040    1.1900 C.ar   28  HIS28       0.1154
     39  CE1       15.6550  -25.4760    3.2820 C.ar   28  HIS28       0.1986
     40  NE2       16.2190  -26.1840    2.2830 N.ar   28  HIS28      -0.2212
     41  N         15.1180  -22.4310    4.6180 N.3    31  HIS31      -0.1241
     42  CA        16.0260  -21.3140    4.3100 C.3    31  HIS31       0.1621
     43  C         15.4320  -19.9730    4.6680 C.2    31  HIS31       0.2264
     44  O         16.1370  -19.0730    5.1230 O.2    31  HIS31      -0.2867
     45  CB        16.4200  -21.3210    2.8350 C.3    31  HIS31       0.0745
     46  CG        17.2960  -22.4840    2.4390 C.ar   31  HIS31       0.0817
     47  ND1       17.2460  -23.0410    1.2120 N.ar   31  HIS31      -0.2268
     48  CD2       18.2700  -23.1940    3.1580 C.ar   31  HIS31       0.1154
     49  CE1       18.1420  -24.0430    1.1390 C.ar   31  HIS31       0.1986
     50  NE2       18.7670  -24.1390    2.3330 N.ar   31  HIS31      -0.2212
     51  N         15.9920  -18.8640    8.4010 N.3    34  LEU34      -0.1245
     52  CA        17.3220  -18.2940    8.6440 C.3    34  LEU34       0.1561
     53  C         17.3850  -16.8630    8.1390 C.2    34  LEU34       0.2260
     54  O         17.8780  -15.9840    8.8370 O.2    34  LEU34      -0.2867
     55  CB        18.4290  -19.1170    7.9700 C.3    34  LEU34       0.0270
     56  CG        18.5700  -20.6100    8.2370 C.3    34  LEU34       0.0019
     57  CD1       19.9050  -21.0840    7.7080 C.3    34  LEU34       0.0001
     58  CD2       18.4690  -20.9220    9.7140 C.3    34  LEU34       0.0001
     59  N         22.5070  -28.2100   10.8860 N.3   125  ASN125     -0.1240
     60  CA        23.3560  -29.0670   10.0520 C.3   125  ASN125      0.1653
     61  C         24.6900  -28.4430    9.6410 C.2   125  ASN125      0.2266
     62  O         25.5760  -29.1460    9.1530 O.2   125  ASN125     -0.2867
     63  CB        22.5930  -29.5260    8.7890 C.3   125  ASN125      0.1155
     64  CG        22.0380  -28.3610    7.9670 C.2   125  ASN125      0.2627
     65  OD1       21.5860  -27.3470    8.5100 O.2   125  ASN125     -0.2716
     66  ND2       22.0530  -28.5120    6.6450 N.am  125  ASN125     -0.0877
     67  N         16.3150  -27.6990   11.9350 N.3   154  LEU154     -0.1245
     68  CA        15.8190  -27.9940   10.6030 C.3   154  LEU154      0.1561
     69  C         14.2970  -28.0850   10.6230 C.2   154  LEU154      0.2260
     70  O         13.7120  -28.5370   11.6070 O.2   154  LEU154     -0.2867
     71  CB        16.4790  -29.2690   10.0730 C.3   154  LEU154      0.0270
     72  CG        17.9940  -29.0850    9.8880 C.3   154  LEU154      0.0019
     73  CD1       18.7490  -30.4080    9.8540 C.3   154  LEU154      0.0001
     74  CD2       18.2640  -28.2740    8.6330 C.3   154  LEU154      0.0001
     75  N         14.2730  -29.9410    3.1790 N.3   163  SER163     -0.1202
     76  CA        15.6500  -29.6480    2.8150 C.3   163  SER163      0.2020
     77  C         15.8010  -29.6350    1.2950 C.2   163  SER163      0.2619
     78  O         14.8770  -30.0240    0.5720 O.2   163  SER163     -0.2717
     79  CB        16.5830  -30.7000    3.4230 C.3   163  SER163      0.2103
     80  OG        16.4130  -31.9430    2.7660 O.3   163  SER163     -0.2182
     81  N         16.9610  -29.1920    0.8110 N.am  164  SER164     -0.1937
     82  CA        17.2640  -29.2430   -0.6170 C.3   164  SER164      0.2055
     83  C         17.1320  -30.6760   -1.1640 C.2   164  SER164      0.2643
     84  O         16.5490  -30.8970   -2.2360 O.2   164  SER164     -0.2714
     85  CB        18.6520  -28.6650   -0.8900 C.3   164  SER164      0.2130
     86  OG        18.6680  -27.2630   -0.6480 O.3   164  SER164     -0.2179
     87  N         17.6210  -31.6420   -0.3910 N.am  165  THR165     -0.1950
     88  CA        17.5480  -33.0600   -0.7190 C.3   165  THR165      0.1897
     89  C         16.1220  -33.5240   -0.9680 C.2   165  THR165      0.2313
     90  O         15.8420  -34.1170   -2.0070 O.2   165  THR165     -0.2863
     91  CB        18.2410  -33.9100    0.3730 C.3   165  THR165      0.1794
     92  OG1       19.6180  -33.5250    0.4320 O.3   165  THR165     -0.2208
     93  CG2       18.1600  -35.4300    0.0760 C.3   165  THR165      0.0378
@<TRIPOS>BOND
     1    29    28   ar
     2    30    28   ar
     3    28    27    1
     4    27    24    1
     5    24    25    1
     6    24    23    1
     7    25    26    2
     8    84    83    2
     9    90    89    2
    10    10     9    1
    11    23    14   am
    12    15    14    2
    13     8     7    2
    14    14    13    1
    15    83    82    1
    16    83    87   am
    17    89    88    1
    18    85    86    1
    19    85    82    1
    20    88    87    1
    21    88    91    1
    22    82    81    1
    23     9     6    1
    24     9    11    1
    25     7     6    1
    26     7    12   am
    27     6     5    1
    28    13    16    1
    29    13    12    1
    30    93    91    1
    31    31    32    1
    32    16    17    1
    33    91    92    1
    34    78    77    2
    35    32    35    1
    36    32    33    1
    37    35    36    1
    38    81    77   am
    39    49    47   ar
    40    49    50   ar
    41    38    36   ar
    42    38    40   ar
    43    47    46   ar
    44    77    76    1
    45     4     3    2
    46     5     3   am
    47    36    37   ar
    48    17    19   ar
    49    17    18   ar
    50    33    34    2
    51     3     2    1
    52    19    21   ar
    53    40    39   ar
    54    50    48   ar
    55    18    20   ar
    56    46    45    1
    57    46    48   ar
    58    80    79    1
    59    76    75    1
    60    76    79    1
    61    37    39   ar
    62    45    42    1
    63    21    22   ar
    64     2     1    1
    65    20    22   ar
    66    42    41    1
    67    42    43    1
    68    43    44    2
    69    66    64   am
    70    57    56    1
    71    64    65    2
    72    64    63    1
    73    55    56    1
    74    55    52    1
    75    53    52    1
    76    53    54    2
    77    56    58    1
    78    51    52    1
    79    74    72    1
    80    63    60    1
    81    62    61    2
    82    61    60    1
    83    73    72    1
    84    72    71    1
    85    60    59    1
    86    71    68    1
    87    68    69    1
    88    68    67    1
    89    69    70    2
