@<TRIPOS>MOLECULE
tmp/5fobA00.pdb
 96 90 0 0 0
SMALL
GASTEIGER

@<TRIPOS>ATOM
      1  N         12.9560  -11.8920   53.4530 N.3    19  THR19      -0.1218
      2  CA        13.4610  -10.8850   54.3720 C.3    19  THR19       0.1862
      3  C         12.6430  -10.8750   55.6590 C.2    19  THR19       0.2287
      4  O         11.4220  -11.0270   55.6370 O.2    19  THR19      -0.2866
      5  CB        13.4460   -9.4800   53.7290 C.3    19  THR19       0.1770
      6  OG1       14.3890   -9.4340   52.6510 O.3    19  THR19      -0.2211
      7  CG2       13.8130   -8.4110   54.7430 C.3    19  THR19       0.0375
      8  N         11.9840   -8.4940   59.0700 N.3    21  VAL21      -0.1245
      9  CA        12.1670   -7.1490   59.6110 C.3    21  VAL21       0.1561
     10  C         12.0520   -7.1130   61.1340 C.2    21  VAL21       0.2260
     11  O         11.0450   -7.5270   61.7080 O.2    21  VAL21      -0.2867
     12  CB        11.1780   -6.1430   58.9870 C.3    21  VAL21       0.0252
     13  CG1       11.3200   -4.7810   59.6460 C.3    21  VAL21       0.0019
     14  CG2       11.4140   -6.0360   57.4910 C.3    21  VAL21       0.0019
     15  N         22.4200   -9.7880   63.5300 N.3    52  THR52      -0.1218
     16  CA        22.4280   -8.3700   63.1900 C.3    52  THR52       0.1862
     17  C         22.2630   -7.5560   64.4670 C.2    52  THR52       0.2287
     18  O         21.5680   -7.9800   65.3830 O.2    52  THR52      -0.2866
     19  CB        21.3140   -8.0310   62.1610 C.3    52  THR52       0.1770
     20  OG1       21.8870   -7.9380   60.8500 O.3    52  THR52      -0.2211
     21  CG2       20.6190   -6.7170   62.4930 C.3    52  THR52       0.0375
     22  N         20.5990    4.0260   63.1530 N.3    58  THR58      -0.1218
     23  CA        19.7710    3.6200   62.0170 C.3    58  THR58       0.1862
     24  C         18.2930    3.8220   62.2740 C.2    58  THR58       0.2287
     25  O         17.4770    3.4350   61.4450 O.2    58  THR58      -0.2866
     26  CB        19.9350    2.1300   61.6570 C.3    58  THR58       0.1770
     27  OG1       18.7090    1.4330   61.9200 O.3    58  THR58      -0.2211
     28  CG2       21.0190    1.5070   62.4640 C.3    58  THR58       0.0375
     29  N         15.9330    0.1250   63.3300 N.3    61  MET61      -0.1230
     30  CA        15.2780   -0.7390   62.3470 C.3    61  MET61       0.1702
     31  C         16.2800   -1.6780   61.6790 C.2    61  MET61       0.2593
     32  O         17.3230   -1.2380   61.1910 O.2    61  MET61      -0.2718
     33  CB        14.5380    0.0960   61.2980 C.3    61  MET61       0.0401
     34  CG        15.3940    1.1550   60.6240 C.3    61  MET61       0.0596
     35  SD        14.4900    2.1150   59.3990 S.3    61  MET61      -0.1393
     36  CE        15.7510    3.2820   58.8970 C.3    61  MET61       0.0692
     37  N         15.9680   -2.9710   61.6550 N.am   62  GLY62      -0.1942
     38  CA        16.8870   -3.9260   61.0600 C.3    62  GLY62       0.2014
     39  C         16.2490   -4.9580   60.1520 C.2    62  GLY62       0.2639
     40  O         15.0570   -5.2180   60.2580 O.2    62  GLY62      -0.2714
     41  N         17.0320   -5.5350   59.2420 N.am   63  ASN63      -0.1958
     42  CA        16.5680   -6.7000   58.4810 C.3    63  ASN63       0.1819
     43  C         17.5810   -7.8350   58.3740 C.2    63  ASN63       0.2621
     44  O         18.7940   -7.6170   58.3660 O.2    63  ASN63      -0.2715
     45  CB        16.0600   -6.3240   57.0790 C.3    63  ASN63       0.1195
     46  CG        17.1860   -6.0230   56.0990 C.2    63  ASN63       0.2630
     47  OD1       17.8250   -6.9380   55.5750 O.2    63  ASN63      -0.2716
     48  ND2       17.4310   -4.7340   55.8470 N.am   63  ASN63      -0.0877
     49  N         17.0560   -9.0510   58.2850 N.am   64  VAL64      -0.1963
     50  CA        17.8690  -10.2210   57.9900 C.3    64  VAL64       0.1727
     51  C         17.3010  -10.9630   56.7840 C.2    64  VAL64       0.2616
     52  O         16.1310  -11.3370   56.7710 O.2    64  VAL64      -0.2715
     53  CB        17.9600  -11.1810   59.1960 C.3    64  VAL64       0.0290
     54  CG1       19.0620  -10.7430   60.1440 C.3    64  VAL64       0.0023
     55  CG2       16.6280  -11.2590   59.9210 C.3    64  VAL64       0.0023
     56  N         18.1270  -11.1660   55.7630 N.am   65  THR65      -0.1951
     57  CA        17.6790  -11.8930   54.5820 C.3    65  THR65       0.1897
     58  C         18.1670  -13.3300   54.6250 C.2    65  THR65       0.2313
     59  O         19.3290  -13.5970   54.9350 O.2    65  THR65      -0.2863
     60  CB        18.1480  -11.2350   53.2730 C.3    65  THR65       0.1794
     61  OG1       19.4000  -11.8000   52.8650 O.3    65  THR65      -0.2208
     62  CG2       18.2940   -9.7360   53.4540 C.3    65  THR65       0.0378
     63  N          8.9640   -9.0640   50.7160 N.3   478  LEU478     -0.1231
     64  CA         9.2620   -7.7060   51.1410 C.3   478  LEU478      0.1693
     65  C         10.3340   -7.1290   50.2300 C.2   478  LEU478      0.2592
     66  O         11.3820   -7.7390   50.0290 O.2   478  LEU478     -0.2718
     67  CB         9.7410   -7.6920   52.5920 C.3   478  LEU478      0.0284
     68  CG         8.7450   -8.1950   53.6370 C.3   478  LEU478      0.0019
     69  CD1        9.4260   -8.3620   54.9920 C.3   478  LEU478      0.0001
     70  CD2        7.5530   -7.2500   53.7420 C.3   478  LEU478      0.0001
     71  N         10.0610   -5.9570   49.6690 N.am  479  LEU479     -0.1966
     72  CA        10.9940   -5.3090   48.7610 C.3   479  LEU479      0.1728
     73  C         11.6840   -4.1570   49.4670 C.2   479  LEU479      0.2616
     74  O         12.8760   -3.9080   49.2790 O.2   479  LEU479     -0.2715
     75  CB        10.2530   -4.7840   47.5350 C.3   479  LEU479      0.0311
     76  CG        11.0760   -3.9080   46.5910 C.3   479  LEU479      0.0022
     77  CD1       12.0560   -4.7520   45.7850 C.3   479  LEU479      0.0001
     78  CD2       10.1650   -3.0990   45.6840 C.3   479  LEU479      0.0001
     79  N         10.9150   -3.4550   50.2870 N.am  480  LYS480     -0.1963
     80  CA        11.4120   -2.2930   50.9980 C.3   480  LYS480      0.1728
     81  C         10.7110   -2.2220   52.3410 C.2   480  LYS480      0.2616
     82  O          9.6520   -2.8110   52.5240 O.2   480  LYS480     -0.2715
     83  CB        11.1200   -1.0250   50.1920 C.3   480  LYS480      0.0311
     84  CG        12.3410   -0.1690   49.8950 C.3   480  LYS480      0.0038
     85  CD        12.0040    0.9840   48.9570 C.3   480  LYS480      0.0206
     86  CE        12.9630    1.0230   47.7740 C.3   480  LYS480      0.1093
     87  NZ        12.9000   -0.2310   46.9710 N.3   480  LYS480     -0.1314
     88  N         11.3140   -1.5180   53.2860 N.am  481  ALA481     -0.1963
     89  CA        10.6320   -1.1770   54.5240 C.3   481  ALA481      0.1728
     90  C         11.2760    0.0770   55.0760 C.2   481  ALA481      0.2616
     91  O         12.3860    0.4320   54.6810 O.2   481  ALA481     -0.2715
     92  CB        10.7030   -2.3150   55.5250 C.3   481  ALA481      0.0334
     93  N         10.5850    0.7650   55.9750 N.am  482  GLY482     -0.1955
     94  CA        11.1030    2.0270   56.4620 C.3   482  GLY482      0.1869
     95  C         10.2200    2.7190   57.4730 C.2   482  GLY482      0.2309
     96  O          9.2800    2.1310   58.0070 O.2   482  GLY482     -0.2863
@<TRIPOS>BOND
     1    78    76    1
     2    77    76    1
     3    76    75    1
     4    87    86    1
     5    75    72    1
     6    86    85    1
     7    72    73    1
     8    72    71    1
     9    85    84    1
    10    74    73    2
    11    73    79   am
    12    71    65   am
    13    84    83    1
    14    66    65    2
    15    83    80    1
    16    65    64    1
    17    79    80    1
    18    63    64    1
    19    80    81    1
    20    64    67    1
    21    81    82    2
    22    81    88   am
    23    67    68    1
    24     6     5    1
    25    61    60    1
    26    60    62    1
    27    60    57    1
    28    88    89    1
    29     1     2    1
    30    68    70    1
    31    68    69    1
    32     5     2    1
    33     5     7    1
    34     2     3    1
    35    89    90    1
    36    89    92    1
    37    57    58    1
    38    57    56    1
    39    58    59    2
    40    91    90    2
    41    90    93   am
    42    47    46    2
    43     4     3    2
    44    56    51   am
    45    48    46   am
    46    93    94    1
    47    46    45    1
    48    94    95    1
    49    52    51    2
    50    51    50    1
    51    45    42    1
    52    95    96    2
    53    14    12    1
    54    50    49    1
    55    50    53    1
    56    49    43   am
    57    44    43    2
    58    43    42    1
    59    42    41    1
    60    36    35    1
    61    12     9    1
    62    12    13    1
    63     8     9    1
    64    53    55    1
    65    53    54    1
    66    41    39   am
    67    35    34    1
    68     9    10    1
    69    39    40    2
    70    39    38    1
    71    34    33    1
    72    20    19    1
    73    38    37    1
    74    10    11    2
    75    32    31    2
    76    33    30    1
    77    25    24    2
    78    37    31   am
    79    26    27    1
    80    26    23    1
    81    26    28    1
    82    31    30    1
    83    23    24    1
    84    23    22    1
    85    19    21    1
    86    19    16    1
    87    30    29    1
    88    16    15    1
    89    16    17    1
    90    17    18    2
