@<TRIPOS>MOLECULE
tmp/5foeB00.pdb
 194 190 0 0 0
SMALL
GASTEIGER

@<TRIPOS>ATOM
      1  N          9.2240   25.7470   31.5220 N.3    14  GLY14      -0.1210
      2  CA         7.8820   25.6430   30.9510 C.3    14  GLY14       0.1956
      3  C          6.7130   26.1110   31.8000 C.2    14  GLY14       0.2612
      4  O          6.8800   26.5730   32.9500 O.2    14  GLY14      -0.2717
      5  N          5.5150   25.9410   31.2190 N.am   15  PHE15      -0.1962
      6  CA         4.2700   26.5080   31.7390 C.3    15  PHE15       0.1771
      7  C          3.9820   26.0600   33.1890 C.2    15  PHE15       0.2620
      8  O          3.7300   26.8850   34.0990 O.2    15  PHE15      -0.2715
      9  CB         3.1030   26.1340   30.7630 C.3    15  PHE15       0.0574
     10  CG         1.8320   26.9330   30.9650 C.ar   15  PHE15      -0.0200
     11  CD1        1.7060   28.1930   30.4210 C.ar   15  PHE15      -0.0042
     12  CD2        0.7770   26.4280   31.7100 C.ar   15  PHE15      -0.0042
     13  CE1        0.5720   28.9420   30.6280 C.ar   15  PHE15      -0.0003
     14  CE2       -0.3750   27.1630   31.8970 C.ar   15  PHE15      -0.0003
     15  CZ        -0.4780   28.4260   31.3620 C.ar   15  PHE15      -0.0000
     16  N          4.0550   24.7510   33.4220 N.am   16  ASN16      -0.1958
     17  CA         3.7010   24.2050   34.7270 C.3    16  ASN16       0.1819
     18  C          4.7110   24.3740   35.8520 C.2    16  ASN16       0.2621
     19  O          4.3310   24.3740   37.0180 O.2    16  ASN16      -0.2715
     20  CB         3.2670   22.7490   34.5800 C.3    16  ASN16       0.1195
     21  CG         1.9100   22.6600   33.9490 C.2    16  ASN16       0.2630
     22  OD1        0.8990   22.8890   34.5980 O.2    16  ASN16      -0.2716
     23  ND2        1.8860   22.4510   32.6650 N.am   16  ASN16      -0.0877
     24  N          5.9840   24.5400   35.5270 N.am   17  LEU17      -0.1977
     25  CA         6.9100   24.9810   36.5440 C.3    17  LEU17       0.1596
     26  C          6.6290   26.4550   36.8620 C.2    17  LEU17       0.2287
     27  O          6.6680   26.8730   38.0180 O.2    17  LEU17      -0.2864
     28  CB         8.3590   24.7770   36.1550 C.3    17  LEU17       0.0297
     29  CG         9.1300   25.3260   37.3710 C.3    17  LEU17       0.0022
     30  CD1        9.8920   24.2730   38.1410 C.3    17  LEU17       0.0001
     31  CD2        9.8870   26.5950   37.0930 C.3    17  LEU17       0.0001
     32  N          9.0540   26.5560   25.7820 N.3    50  HIS50      -0.1226
     33  CA         9.2770   25.3410   25.0170 C.3    50  HIS50       0.1752
     34  C          7.9260   24.5900   24.8480 C.2    50  HIS50       0.2596
     35  O          7.0180   24.6830   25.7070 O.2    50  HIS50      -0.2718
     36  CB        10.3930   24.4880   25.6460 C.3    50  HIS50       0.0759
     37  CG         9.9620   23.7020   26.8420 C.ar   50  HIS50       0.0818
     38  ND1        9.6880   24.2840   28.0640 N.ar   50  HIS50      -0.2268
     39  CD2        9.7900   22.3710   27.0110 C.ar   50  HIS50       0.1154
     40  CE1        9.3520   23.3440   28.9300 C.ar   50  HIS50       0.1986
     41  NE2        9.3940   22.1760   28.3130 N.ar   50  HIS50      -0.2212
     42  N          7.8170   23.8950   23.7150 N.am   51  HIS51      -0.1961
     43  CA         6.5570   23.3170   23.1590 C.3    51  HIS51       0.1787
     44  C          5.5760   24.3260   22.5890 C.2    51  HIS51       0.2620
     45  O          4.6290   23.9230   21.9160 O.2    51  HIS51      -0.2715
     46  CB         5.7980   22.4550   24.1590 C.3    51  HIS51       0.0785
     47  CG         6.5730   21.2840   24.6520 C.ar   51  HIS51       0.0821
     48  ND1        6.2250   19.9760   24.3710 N.ar   51  HIS51      -0.2267
     49  CD2        7.6770   21.2280   25.4250 C.ar   51  HIS51       0.1154
     50  CE1        7.0960   19.1670   24.9470 C.ar   51  HIS51       0.1986
     51  NE2        7.9860   19.9040   25.5970 N.ar   51  HIS51      -0.2212
     52  N          5.7590   25.6240   22.8540 N.am   52  TRP52      -0.1974
     53  CA         4.8610   26.6170   22.2430 C.3    52  TRP52       0.1640
     54  C          5.3660   27.0670   20.8750 C.2    52  TRP52       0.2290
     55  O          6.5510   26.9890   20.5840 O.2    52  TRP52      -0.2864
     56  CB         4.6760   27.8230   23.1650 C.3    52  TRP52       0.0576
     57  CG         3.7480   27.5720   24.3120 C.ar   52  TRP52       0.0006
     58  CD1        3.3770   26.3500   24.8500 C.ar   52  TRP52       0.0946
     59  CD2        3.0820   28.5630   25.0770 C.ar   52  TRP52       0.0152
     60  NE1        2.5240   26.5430   25.8970 N.ar   52  TRP52      -0.2442
     61  CE2        2.3190   27.8870   26.0620 C.ar   52  TRP52       0.0810
     62  CE3        3.0670   29.9600   25.0440 C.ar   52  TRP52       0.0012
     63  CZ2        1.5310   28.5590   26.9830 C.ar   52  TRP52       0.0191
     64  CZ3        2.2690   30.6430   25.9850 C.ar   52  TRP52       0.0001
     65  CH2        1.5170   29.9380   26.9330 C.ar   52  TRP52       0.0015
     66  N         -1.2660   10.9720   31.4320 N.3   249  HIS249     -0.1241
     67  CA        -0.3510   11.9460   30.9000 C.3   249  HIS249      0.1621
     68  C          0.9040   11.2310   30.4630 C.2   249  HIS249      0.2264
     69  O          1.6460   10.6930   31.3070 O.2   249  HIS249     -0.2867
     70  CB         0.0050   13.0430   31.9100 C.3   249  HIS249      0.0745
     71  CG         1.0230   13.9990   31.3720 C.ar  249  HIS249      0.0817
     72  ND1        2.0850   14.4680   32.1180 N.ar  249  HIS249     -0.2268
     73  CD2        1.1780   14.5140   30.1240 C.ar  249  HIS249      0.1154
     74  CE1        2.8180   15.2710   31.3690 C.ar  249  HIS249      0.1986
     75  NE2        2.2950   15.3130   30.1510 N.ar  249  HIS249     -0.2212
     76  N          4.2410   11.8960   28.8250 N.3   251  ARG251     -0.1245
     77  CA         5.2020   12.9520   28.5520 C.3   251  ARG251      0.1563
     78  C          6.3650   12.3680   27.7850 C.2   251  ARG251      0.2260
     79  O          7.0630   11.5000   28.2930 O.2   251  ARG251     -0.2867
     80  CB         5.6920   13.5570   29.8900 C.3   251  ARG251      0.0307
     81  CG         6.6600   14.7090   29.7460 C.3   251  ARG251      0.0489
     82  CD         5.9880   15.9720   29.2090 C.3   251  ARG251      0.2205
     83  NE         6.8910   17.1010   29.4340 N.pl3 251  ARG251     -0.0865
     84  CZ         7.9320   17.4090   28.6640 C.cat 251  ARG251      0.5346
     85  NH1        8.2200   16.7070   27.5580 N.pl3 251  ARG251      0.1354
     86  NH2        8.7120   18.4300   29.0070 N.pl3 251  ARG251      0.1354
     87  N         11.6490   14.6480   27.1660 N.3   255  PHE255     -0.1241
     88  CA        11.7600   13.6270   28.2220 C.3   255  PHE255      0.1605
     89  C         12.3810   12.2990   27.7580 C.2   255  PHE255      0.2264
     90  O         13.0060   11.6050   28.5590 O.2   255  PHE255     -0.2867
     91  CB        10.4080   13.3820   28.8890 C.3   255  PHE255      0.0534
     92  CG        10.1890   14.1960   30.1450 C.ar  255  PHE255     -0.0203
     93  CD1       10.5520   15.5400   30.2080 C.ar  255  PHE255     -0.0042
     94  CD2        9.6270   13.6130   31.2740 C.ar  255  PHE255     -0.0042
     95  CE1       10.3550   16.2760   31.3820 C.ar  255  PHE255     -0.0003
     96  CE2        9.4220   14.3490   32.4270 C.ar  255  PHE255     -0.0003
     97  CZ         9.7850   15.6800   32.4830 C.ar  255  PHE255     -0.0000
     98  N         -3.4950   12.5360   27.2960 N.3   288  ALA288     -0.1231
     99  CA        -2.8140   13.8140   27.2180 C.3   288  ALA288      0.1694
    100  C         -1.3680   13.5240   26.8760 C.2   288  ALA288      0.2593
    101  O         -0.6400   12.8620   27.6400 O.2   288  ALA288     -0.2718
    102  CB        -2.9290   14.5600   28.5440 C.3   288  ALA288      0.0304
    103  N         -0.9300   13.9870   25.7110 N.am  289  THR289     -0.1939
    104  CA         0.4350   13.7750   25.3440 C.3   289  THR289      0.2028
    105  C          0.9580   14.8810   24.4810 C.2   289  THR289      0.2642
    106  O          0.2110   15.5270   23.7460 O.2   289  THR289     -0.2714
    107  CB         0.6240   12.4240   24.6460 C.3   289  THR289      0.1808
    108  OG1        2.0060   12.1080   24.5710 O.3   289  THR289     -0.2208
    109  CG2        0.0270   12.4450   23.2530 C.3   289  THR289      0.0379
    110  N          2.2710   15.0820   24.5800 N.am  290  ASP290     -0.1971
    111  CA         2.9950   15.9570   23.6590 C.3   290  ASP290      0.1709
    112  C          3.6490   15.1590   22.5370 C.2   290  ASP290      0.2293
    113  O          4.2680   15.7530   21.6410 O.2   290  ASP290     -0.2864
    114  CB         4.0590   16.7820   24.4030 C.3   290  ASP290      0.1436
    115  CG         5.0420   15.9250   25.1730 C.2   290  ASP290      0.3671
    116  OD1        4.7760   14.7050   25.3200 O.co2 290  ASP290     -0.2456
    117  OD2        6.0790   16.4690   25.6370 O.co2 290  ASP290     -0.2456
    118  N         -1.6500   26.9120   22.1530 N.3   320  ASP320     -0.1239
    119  CA        -1.0350   25.7120   22.7060 C.3   320  ASP320      0.1674
    120  C         -1.2120   25.5730   24.2150 C.2   320  ASP320      0.2266
    121  O         -1.4280   24.4760   24.7180 O.2   320  ASP320     -0.2867
    122  CB         0.4430   25.6720   22.3660 C.3   320  ASP320      0.1410
    123  CG         0.7000   25.4430   20.8870 C.2   320  ASP320      0.3668
    124  OD1       -0.2200   25.0400   20.1820 O.co2 320  ASP320     -0.2456
    125  OD2        1.8340   25.6570   20.4310 O.co2 320  ASP320     -0.2456
    126  N         -4.8630   24.4840   25.0200 N.3   323  ILE323     -0.1231
    127  CA        -4.9770   23.0530   24.7430 C.3   323  ILE323      0.1692
    128  C         -4.4110   22.2230   25.8900 C.2   323  ILE323      0.2591
    129  O         -4.9720   21.1860   26.2930 O.2   323  ILE323     -0.2718
    130  CB        -4.1860   22.6520   23.4580 C.3   323  ILE323      0.0266
    131  CG1       -4.6110   23.3860   22.1930 C.3   323  ILE323      0.0019
    132  CG2       -4.3130   21.1710   23.1580 C.3   323  ILE323      0.0020
    133  CD1       -6.0430   23.7580   22.1380 C.3   323  ILE323      0.0001
    134  N         -3.2710   22.6600   26.3940 N.am  324  ALA324     -0.1980
    135  CA        -2.5830   21.9280   27.4480 C.3   324  ALA324      0.1597
    136  C         -3.4220   21.8960   28.7150 C.2   324  ALA324      0.2287
    137  O         -3.5380   20.8410   29.3560 O.2   324  ALA324     -0.2864
    138  CB        -1.2160   22.5300   27.6850 C.3   324  ALA324      0.0319
    139  N         -6.1970   19.4200   28.2640 N.3   327  ASP327     -0.1239
    140  CA        -5.7070   18.0750   28.5130 C.3   327  ASP327      0.1674
    141  C         -5.5990   17.7830   30.0220 C.2   327  ASP327      0.2266
    142  O         -5.9550   16.6950   30.4920 O.2   327  ASP327     -0.2867
    143  CB        -4.3370   17.8740   27.8850 C.3   327  ASP327      0.1410
    144  CG        -4.3900   17.6410   26.3970 C.2   327  ASP327      0.3668
    145  OD1       -5.4360   17.2710   25.8420 O.co2 327  ASP327     -0.2456
    146  OD2       -3.3350   17.7940   25.7790 O.co2 327  ASP327     -0.2456
    147  N          8.3800   12.8740   37.3300 N.3   342  GLU342     -0.1231
    148  CA         8.9800   14.1980   37.5520 C.3   342  GLU342      0.1699
    149  C          8.4390   15.2940   36.6460 C.2   342  GLU342      0.2593
    150  O          9.0100   16.3790   36.6150 O.2   342  GLU342     -0.2718
    151  CB        10.5180   14.1260   37.5020 C.3   342  GLU342      0.0402
    152  CG        11.0850   13.3310   38.6840 C.3   342  GLU342      0.1161
    153  CD        12.5990   13.3390   38.8290 C.2   342  GLU342      0.3649
    154  OE1       13.3050   13.5760   37.8320 O.co2 342  GLU342     -0.2457
    155  OE2       13.0850   13.0390   39.9380 O.co2 342  GLU342     -0.2457
    156  N          7.3250   15.0420   35.9400 N.am  343  SER343     -0.1938
    157  CA         6.6950   16.0650   35.1100 C.3   343  SER343      0.2055
    158  C          5.8180   16.9740   35.9680 C.2   343  SER343      0.2644
    159  O          4.9480   16.4980   36.7070 O.2   343  SER343     -0.2714
    160  CB         5.8390   15.4450   33.9730 C.3   343  SER343      0.2130
    161  OG         5.0150   16.4490   33.3910 O.3   343  SER343     -0.2179
    162  N          6.0450   18.2890   35.8380 N.am  344  THR344     -0.1936
    163  CA         5.2100   19.2930   36.5050 C.3   344  THR344      0.2028
    164  C          3.8340   19.3950   35.8750 C.2   344  THR344      0.2642
    165  O          2.8830   19.8210   36.5150 O.2   344  THR344     -0.2714
    166  CB         5.8540   20.6940   36.4450 C.3   344  THR344      0.1808
    167  OG1        6.0230   21.1270   35.0820 O.3   344  THR344     -0.2208
    168  CG2        7.1930   20.6550   37.1560 C.3   344  THR344      0.0379
    169  N          3.7210   19.0290   34.5920 N.am  345  PHE345     -0.1973
    170  CA         2.4080   18.9640   33.9580 C.3   345  PHE345      0.1639
    171  C          1.5470   17.9150   34.7110 C.2   345  PHE345      0.2290
    172  O          0.3720   18.1490   35.0380 O.2   345  PHE345     -0.2864
    173  CB         2.6110   18.6150   32.4830 C.3   345  PHE345      0.0560
    174  CG         1.3520   18.5740   31.6490 C.ar  345  PHE345     -0.0200
    175  CD1        0.4720   17.5040   31.7340 C.ar  345  PHE345     -0.0042
    176  CD2        1.1130   19.5530   30.6730 C.ar  345  PHE345     -0.0042
    177  CE1       -0.6470   17.4360   30.9050 C.ar  345  PHE345     -0.0003
    178  CE2       -0.0090   19.4860   29.8380 C.ar  345  PHE345     -0.0003
    179  CZ        -0.8900   18.4290   29.9630 C.ar  345  PHE345     -0.0000
    180  N         12.7590   22.9410   37.0590 N.3   401  SER401     -0.1217
    181  CA        12.5280   21.7700   36.2040 C.3   401  SER401      0.1889
    182  C         13.6600   21.5320   35.2460 C.2   401  SER401      0.2288
    183  O         13.7710   20.5050   34.6210 O.2   401  SER401     -0.2866
    184  CB        11.1780   21.8020   35.4910 C.3   401  SER401      0.2089
    185  OG        11.2510   22.5420   34.3380 O.3   401  SER401     -0.2183
    186  N         16.4420   17.9350   34.3530 N.3   433  GLN433     -0.1245
    187  CA        17.1240   17.8290   33.0880 C.3   433  GLN433      0.1566
    188  C         17.9070   19.1150   32.8390 C.2   433  GLN433      0.2260
    189  O         17.8270   20.0490   33.6390 O.2   433  GLN433     -0.2867
    190  CB        16.1180   17.5440   31.9560 C.3   433  GLN433      0.0367
    191  CG        15.0070   18.5570   31.6800 C.3   433  GLN433      0.0905
    192  CD        14.1740   18.1370   30.4440 C.2   433  GLN433      0.2608
    193  OE1       14.7190   17.6520   29.4230 O.2   433  GLN433     -0.2717
    194  NE2       12.8580   18.3270   30.5240 N.am  433  GLN433     -0.0878
@<TRIPOS>BOND
     1   124   123   ar
     2   125   123   ar
     3    55    54    2
     4    54    53    1
     5   123   122    1
     6   113   112    2
     7    45    44    2
     8   133   131    1
     9   118   119    1
    10   131   130    1
    11    53    52    1
    12    53    56    1
    13   122   119    1
    14   112   111    1
    15    44    52   am
    16    44    43    1
    17   119   120    1
    18   132   130    1
    19    43    42    1
    20    43    46    1
    21    56    57    1
    22   109   107    1
    23   130   127    1
    24   111   114    1
    25   111   110    1
    26    42    34   am
    27   106   105    2
    28    46    47    1
    29   120   121    2
    30    57    58   ar
    31    57    59   ar
    32    48    47   ar
    33    48    50   ar
    34   114   115    1
    35   105   110   am
    36   105   104    1
    37   108   107    1
    38   107   104    1
    39    47    49   ar
    40   127   126    1
    41   127   128    1
    42    34    33    1
    43    34    35    2
    44    58    60   ar
    45    50    51   ar
    46    33    36    1
    47    33    32    1
    48    62    59   ar
    49    62    64   ar
    50    59    61   ar
    51   115   116   ar
    52   115   117   ar
    53   104   103    1
    54    49    51   ar
    55    36    37    1
    56   103   100   am
    57   146   144   ar
    58   145   144   ar
    59   128   129    2
    60   128   134   am
    61    60    61   ar
    62    64    65   ar
    63    61    63   ar
    64   134   135    1
    65   144   143    1
    66    37    39   ar
    67    37    38   ar
    68   100    99    1
    69   100   101    2
    70    65    63   ar
    71    39    41   ar
    72    87    88    1
    73    99    98    1
    74    99   102    1
    75   135   138    1
    76   135   136    1
    77    85    84    1
    78    89    88    1
    79    89    90    2
    80    78    79    2
    81    78    77    1
    82   143   140    1
    83    38    40   ar
    84    88    91    1
    85   139   140    1
    86    41    40   ar
    87   140   141    1
    88    77    76    1
    89    77    80    1
    90    84    86    1
    91    84    83    2
    92   136   137    2
    93    91    92    1
    94    82    83    1
    95    82    81    1
    96   193   192    2
    97    81    80    1
    98   178   179   ar
    99   178   176   ar
   100   179   177   ar
   101   141   142    2
   102    73    75   ar
   103    73    71   ar
   104    92    93   ar
   105    92    94   ar
   106    75    74   ar
   107    93    95   ar
   108    11    13   ar
   109    11    10   ar
   110   192   194   am
   111   192   191    1
   112    68    67    1
   113    68    69    2
   114    13    15   ar
   115   176   174   ar
   116     9    10    1
   117     9     6    1
   118    67    66    1
   119    67    70    1
   120   177   175   ar
   121     2     1    1
   122     2     3    1
   123    10    12   ar
   124     5     6    1
   125     5     3   am
   126    94    96   ar
   127    15    14   ar
   128    74    72   ar
   129    71    70    1
   130    71    72   ar
   131    95    97   ar
   132   174   175   ar
   133   174   173    1
   134   191   190    1
   135    12    14   ar
   136     6     7    1
   137     3     4    2
   138   190   187    1
   139    96    97   ar
   140   173   170    1
   141    23    21   am
   142   188   187    1
   143   188   189    2
   144   187   186    1
   145     7    16   am
   146     7     8    2
   147   161   160    1
   148    16    17    1
   149    21    20    1
   150    21    22    2
   151   170   169    1
   152   170   171    1
   153   160   157    1
   154   185   184    1
   155    20    17    1
   156   169   164   am
   157   183   182    2
   158   171   172    2
   159    17    18    1
   160   167   166    1
   161   157   156    1
   162   157   158    1
   163   182   181    1
   164   184   181    1
   165    24    18   am
   166    24    25    1
   167   162   158   am
   168   162   163    1
   169    18    19    2
   170   164   163    1
   171   164   165    2
   172   156   149   am
   173   158   159    2
   174    28    25    1
   175    28    29    1
   176   181   180    1
   177   166   163    1
   178   166   168    1
   179    25    26    1
   180   150   149    2
   181   149   148    1
   182    26    27    2
   183    31    29    1
   184   147   148    1
   185    29    30    1
   186   151   148    1
   187   151   152    1
   188   154   153   ar
   189   152   153    1
   190   153   155   ar
