@<TRIPOS>MOLECULE
tmp/5fogD00.pdb
 178 169 0 0 0
SMALL
GASTEIGER

@<TRIPOS>ATOM
      1  N          0.4700  -36.4110   18.9460 N.3     5  TYR5       -0.1241
      2  CA        -0.3110  -35.7110   19.9610 C.3     5  TYR5        0.1605
      3  C         -1.7940  -35.8860   19.7220 C.2     5  TYR5        0.2264
      4  O         -2.2210  -36.3550   18.6680 O.2     5  TYR5       -0.2867
      5  CB        -0.0050  -34.2150   19.9380 C.3     5  TYR5        0.0534
      6  CG         1.4090  -33.8670   20.3070 C.ar    5  TYR5       -0.0201
      7  CD1        2.4180  -33.8480   19.3470 C.ar    5  TYR5       -0.0009
      8  CD2        1.7400  -33.5310   21.6110 C.ar    5  TYR5       -0.0009
      9  CE1        3.7220  -33.5140   19.6810 C.ar    5  TYR5        0.0417
     10  CE2        3.0410  -33.1900   21.9560 C.ar    5  TYR5        0.0417
     11  CZ         4.0270  -33.1870   20.9910 C.ar    5  TYR5        0.1957
     12  OH         5.3090  -32.8520   21.3410 O.3     5  TYR5       -0.2866
     13  N         -2.3000  -29.0770   22.1120 N.3    33  ALA33      -0.1231
     14  CA        -1.6600  -30.3590   21.8680 C.3    33  ALA33       0.1694
     15  C         -1.3130  -30.9900   23.2090 C.2    33  ALA33       0.2593
     16  O         -0.6940  -30.3490   24.0440 O.2    33  ALA33      -0.2718
     17  CB        -0.4020  -30.1680   21.0400 C.3    33  ALA33       0.0304
     18  N         -1.7060  -32.2450   23.4000 N.am   34  THR34      -0.1939
     19  CA        -1.3660  -32.9830   24.6190 C.3    34  THR34       0.2028
     20  C         -0.9410  -34.4070   24.2930 C.2    34  THR34       0.2642
     21  O         -1.4430  -35.0190   23.3600 O.2    34  THR34      -0.2714
     22  CB        -2.5410  -32.9990   25.6470 C.3    34  THR34       0.1808
     23  OG1       -2.1090  -33.6140   26.8680 O.3    34  THR34      -0.2208
     24  CG2       -3.7670  -33.7520   25.1160 C.3    34  THR34       0.0379
     25  N         -0.0070  -34.9280   25.0770 N.am   35  LEU35      -0.1963
     26  CA         0.2740  -36.3490   25.0740 C.3    35  LEU35       0.1728
     27  C         -0.6220  -37.0980   26.0600 C.2    35  LEU35       0.2616
     28  O         -0.5220  -38.3260   26.1390 O.2    35  LEU35      -0.2715
     29  CB         1.7420  -36.6070   25.4360 C.3    35  LEU35       0.0311
     30  CG         2.8030  -36.0260   24.4950 C.3    35  LEU35       0.0022
     31  CD1        4.1970  -36.3190   25.0410 C.3    35  LEU35       0.0001
     32  CD2        2.6560  -36.5640   23.0800 C.3    35  LEU35       0.0001
     33  N         -1.4930  -36.3900   26.7960 N.am   36  ARG36      -0.1977
     34  CA        -2.2470  -37.0000   27.9110 C.3    36  ARG36       0.1597
     35  C         -3.7640  -36.7530   27.8390 C.2    36  ARG36       0.2287
     36  O         -4.3390  -36.0860   28.6940 O.2    36  ARG36      -0.2864
     37  CB        -1.6540  -36.5430   29.2410 C.3    36  ARG36       0.0334
     38  CG        -0.1580  -36.8800   29.3290 C.3    36  ARG36       0.0492
     39  CD         0.3650  -36.9630   30.7480 C.3    36  ARG36       0.2205
     40  NE        -0.4140  -37.9330   31.5070 N.pl3  36  ARG36      -0.0865
     41  CZ        -0.4770  -37.9880   32.8280 C.cat  36  ARG36       0.5346
     42  NH1        0.2220  -37.1380   33.5830 N.pl3  36  ARG36       0.1354
     43  NH2       -1.2460  -38.9100   33.3940 N.pl3  36  ARG36       0.1354
     44  N         -6.2380  -37.2480   30.8990 N.3    39  THR39      -0.1203
     45  CA        -6.3140  -36.2560   31.9710 C.3    39  THR39       0.1994
     46  C         -7.3320  -35.1280   31.7460 C.2    39  THR39       0.2617
     47  O         -7.4560  -34.2500   32.5930 O.2    39  THR39      -0.2717
     48  CB        -4.9520  -35.5840   32.1700 C.3    39  THR39       0.1784
     49  OG1       -4.6070  -34.8680   30.9810 O.3    39  THR39      -0.2211
     50  CG2       -3.8890  -36.6120   32.5030 C.3    39  THR39       0.0376
     51  N         -8.0600  -35.1360   30.6290 N.am   40  MET40      -0.1979
     52  CA        -8.9730  -34.0310   30.3260 C.3    40  MET40       0.1605
     53  C        -10.1350  -33.9380   31.3320 C.2    40  MET40       0.2287
     54  O        -10.7640  -32.8950   31.4550 O.2    40  MET40      -0.2864
     55  CB        -9.4850  -34.1130   28.8780 C.3    40  MET40       0.0413
     56  CG        -8.4130  -33.9910   27.7980 C.3    40  MET40       0.0598
     57  SD        -7.4270  -32.4810   27.8860 S.3    40  MET40      -0.1393
     58  CE        -5.9760  -32.9360   28.8460 C.3    40  MET40       0.0692
     59  N          0.4010  -18.2250   31.3410 N.3   154  MET154     -0.1245
     60  CA         1.5330  -19.0550   31.7880 C.3   154  MET154      0.1570
     61  C          2.7750  -18.5280   31.0820 C.2   154  MET154      0.2261
     62  O          2.7240  -18.2500   29.8820 O.2   154  MET154     -0.2867
     63  CB         1.3020  -20.5120   31.4030 C.3   154  MET154      0.0387
     64  CG         2.4050  -21.4710   31.8030 C.3   154  MET154      0.0595
     65  SD         1.8520  -23.1830   31.7270 S.3   154  MET154     -0.1393
     66  CE         2.9220  -24.0190   32.8830 C.3   154  MET154      0.0692
     67  N          6.0310  -19.9880   31.0210 N.3   156  SER156     -0.1202
     68  CA         6.9720  -21.0140   30.6100 C.3   156  SER156      0.2020
     69  C          6.6200  -21.6860   29.2680 C.2   156  SER156      0.2619
     70  O          7.2960  -22.6450   28.8560 O.2   156  SER156     -0.2717
     71  CB         7.0260  -22.0770   31.7070 C.3   156  SER156      0.2103
     72  OG         5.7670  -22.7530   31.8160 O.3   156  SER156     -0.2182
     73  N          5.5760  -21.2060   28.5850 N.am  157  ILE157     -0.1965
     74  CA         5.1580  -21.8000   27.3140 C.3   157  ILE157      0.1727
     75  C          6.1980  -21.4670   26.2590 C.2   157  ILE157      0.2616
     76  O          6.7210  -20.3510   26.2220 O.2   157  ILE157     -0.2715
     77  CB         3.7590  -21.3040   26.8680 C.3   157  ILE157      0.0290
     78  CG1        2.6730  -22.0080   27.6800 C.3   157  ILE157      0.0022
     79  CG2        3.5040  -21.5270   25.3740 C.3   157  ILE157      0.0023
     80  CD1        1.3480  -21.2640   27.7070 C.3   157  ILE157      0.0001
     81  N          6.4870  -22.4570   25.4210 N.am  158  SER158     -0.1950
     82  CA         7.3250  -22.2910   24.2450 C.3   158  SER158      0.1924
     83  C          6.4120  -22.1460   23.0270 C.2   158  SER158      0.2314
     84  O          5.5880  -23.0200   22.7790 O.2   158  SER158     -0.2863
     85  CB         8.2280  -23.5130   24.0680 C.3   158  SER158      0.2116
     86  OG         8.8950  -23.4440   22.8220 O.3   158  SER158     -0.2180
     87  N          6.4010  -25.0570   20.2820 N.3   161  LYS161     -0.1231
     88  CA         5.8540  -26.3610   20.6110 C.3   161  LYS161      0.1693
     89  C          4.3390  -26.3080   20.5120 C.2   161  LYS161      0.2593
     90  O          3.7210  -25.3110   20.8590 O.2   161  LYS161     -0.2718
     91  CB         6.2950  -26.7950   22.0140 C.3   161  LYS161      0.0285
     92  CG         5.8930  -28.2230   22.3540 C.3   161  LYS161      0.0035
     93  CD         6.3690  -28.6260   23.7360 C.3   161  LYS161      0.0206
     94  CE         5.9710  -30.0600   24.0410 C.3   161  LYS161      0.1093
     95  NZ         6.6860  -30.5630   25.2450 N.3   161  LYS161     -0.1314
     96  N          3.7530  -27.4020   20.0420 N.am  162  GLY162     -0.1942
     97  CA         2.3050  -27.5280   19.9120 C.3   162  GLY162      0.2014
     98  C          1.6880  -26.2950   19.2760 C.2   162  GLY162      0.2640
     99  O          2.1790  -25.8180   18.2510 O.2   162  GLY162     -0.2714
    100  N          0.6540  -25.7560   19.9190 N.am  163  THR163     -0.1936
    101  CA        -0.0700  -24.6200   19.3930 C.3   163  THR163      0.2028
    102  C          0.3060  -23.3220   20.0740 C.2   163  THR163      0.2643
    103  O         -0.2110  -22.2670   19.7120 O.2   163  THR163     -0.2714
    104  CB        -1.5720  -24.8450   19.5470 C.3   163  THR163      0.1808
    105  OG1       -1.8940  -24.9850   20.9390 O.3   163  THR163     -0.2208
    106  CG2       -1.9920  -26.0880   18.7810 C.3   163  THR163      0.0379
    107  N          1.1920  -23.3870   21.0660 N.am  164  GLY164     -0.1939
    108  CA         1.4060  -22.2540   21.9740 C.3   164  GLY164      0.2014
    109  C          0.2940  -22.0640   23.0050 C.2   164  GLY164      0.2639
    110  O          0.3490  -21.1170   23.8150 O.2   164  GLY164     -0.2714
    111  N         -0.7070  -22.9510   22.9930 N.am  165  ILE165     -0.1963
    112  CA        -1.8070  -22.9060   23.9580 C.3   165  ILE165      0.1727
    113  C         -1.9270  -24.2960   24.5510 C.2   165  ILE165      0.2616
    114  O         -1.9580  -25.2820   23.8080 O.2   165  ILE165     -0.2715
    115  CB        -3.1410  -22.4770   23.3150 C.3   165  ILE165      0.0290
    116  CG1       -2.9370  -21.2170   22.4510 C.3   165  ILE165      0.0022
    117  CG2       -4.1960  -22.2200   24.3960 C.3   165  ILE165      0.0023
    118  CD1       -4.2070  -20.6750   21.8100 C.3   165  ILE165      0.0001
    119  N         -1.9560  -24.3770   25.8820 N.am  166  VAL166     -0.1963
    120  CA        -1.9570  -25.6760   26.5720 C.3   166  VAL166      0.1727
    121  C         -3.0650  -25.8300   27.5970 C.2   166  VAL166      0.2616
    122  O         -3.5120  -24.8540   28.2260 O.2   166  VAL166     -0.2715
    123  CB        -0.5780  -26.0190   27.2140 C.3   166  VAL166      0.0290
    124  CG1        0.5120  -25.9200   26.1830 C.3   166  VAL166      0.0023
    125  CG2       -0.2020  -25.0790   28.3240 C.3   166  VAL166      0.0023
    126  N         -3.4870  -27.0810   27.7540 N.am  167  THR167     -0.1951
    127  CA        -4.4310  -27.4740   28.7820 C.3   167  THR167      0.1897
    128  C         -3.8010  -27.3210   30.1650 C.2   167  THR167      0.2313
    129  O         -2.5990  -27.3130   30.2770 O.2   167  THR167     -0.2863
    130  CB        -4.8150  -28.9600   28.6490 C.3   167  THR167      0.1794
    131  OG1       -3.6210  -29.7580   28.6390 O.3   167  THR167     -0.2208
    132  CG2       -5.5950  -29.2150   27.3970 C.3   167  THR167      0.0378
    133  N         -4.0910  -29.2340   33.8840 N.3   169  VAL169     -0.1245
    134  CA        -4.5490  -30.2950   34.7420 C.3   169  VAL169      0.1561
    135  C         -3.6240  -30.3250   35.9580 C.2   169  VAL169      0.2260
    136  O         -2.7610  -31.2030   36.0780 O.2   169  VAL169     -0.2867
    137  CB        -4.5570  -31.6560   34.0080 C.3   169  VAL169      0.0252
    138  CG1       -5.2300  -32.7100   34.8860 C.3   169  VAL169      0.0019
    139  CG2       -5.2920  -31.5450   32.6790 C.3   169  VAL169      0.0019
    140  N         -2.3110  -33.3740   38.1280 N.3   172  ASP172     -0.1225
    141  CA        -1.3640  -34.3420   37.5730 C.3   172  ASP172      0.1805
    142  C         -0.3060  -33.8010   36.6040 C.2   172  ASP172      0.2598
    143  O          0.3640  -34.5960   35.9660 O.2   172  ASP172     -0.2718
    144  CB        -2.1340  -35.4950   36.9130 C.3   172  ASP172      0.1424
    145  CG        -3.0080  -36.2410   37.9130 C.2   172  ASP172      0.3668
    146  OD1       -2.4630  -37.0120   38.7410 O.co2 172  ASP172     -0.2456
    147  OD2       -4.2400  -36.0180   37.9000 O.co2 172  ASP172     -0.2456
    148  N         -0.1670  -32.4850   36.4740 N.am  173  SER173     -0.1952
    149  CA         0.9580  -31.8930   35.7600 C.3   173  SER173      0.1924
    150  C          1.6580  -30.9720   36.7370 C.2   173  SER173      0.2314
    151  O          1.0560  -30.0070   37.2240 O.2   173  SER173     -0.2863
    152  CB         0.5120  -31.0970   34.5280 C.3   173  SER173      0.2116
    153  OG         1.4390  -30.0520   34.1950 O.3   173  SER173     -0.2180
    154  N          3.9240  -28.7070   36.0770 N.3   175  ASP175     -0.1225
    155  CA         3.9510  -27.3710   35.4390 C.3   175  ASP175      0.1805
    156  C          2.6440  -26.6260   35.7220 C.2   175  ASP175      0.2597
    157  O          2.6430  -25.4550   36.1330 O.2   175  ASP175     -0.2718
    158  CB         4.1060  -27.4900   33.9030 C.3   175  ASP175      0.1424
    159  CG         5.5430  -27.8200   33.4520 C.2   175  ASP175      0.3668
    160  OD1        6.4600  -27.0030   33.6830 O.co2 175  ASP175     -0.2456
    161  OD2        5.7360  -28.8760   32.8150 O.co2 175  ASP175     -0.2456
    162  N          1.5290  -27.3170   35.4860 N.am  176  ASP176     -0.1974
    163  CA         0.2120  -26.7290   35.6770 C.3   176  ASP176      0.1709
    164  C         -0.0010  -26.3910   37.1340 C.2   176  ASP176      0.2293
    165  O         -0.4940  -25.3150   37.4550 O.2   176  ASP176     -0.2864
    166  CB        -0.8750  -27.6770   35.1960 C.3   176  ASP176      0.1436
    167  CG        -0.7950  -27.9440   33.7180 C.2   176  ASP176      0.3671
    168  OD1       -0.1710  -27.1360   32.9920 O.co2 176  ASP176     -0.2456
    169  OD2       -1.3660  -28.9620   33.2750 O.co2 176  ASP176     -0.2456
    170  N          8.1970  -34.0680   35.7830 N.3   239  LYS239     -0.1245
    171  CA         7.3740  -34.4730   34.6490 C.3   239  LYS239      0.1561
    172  C          7.7740  -35.8440   34.0860 C.2   239  LYS239      0.2260
    173  O          6.9040  -36.6340   33.7010 O.2   239  LYS239     -0.2867
    174  CB         7.4410  -33.4060   33.5550 C.3   239  LYS239      0.0271
    175  CG         6.4170  -33.5800   32.4510 C.3   239  LYS239      0.0035
    176  CD         6.9280  -33.1510   31.0840 C.3   239  LYS239      0.0206
    177  CE         6.6250  -31.7030   30.7550 C.3   239  LYS239      0.1093
    178  NZ         6.2970  -31.6010   29.2990 N.3   239  LYS239     -0.1314
@<TRIPOS>BOND
     1    99    98    2
     2     4     3    2
     3   106   104    1
     4     1     2    1
     5    98    97    1
     6    98   100   am
     7     7     9   ar
     8     7     6   ar
     9   101   104    1
    10   101   100    1
    11   101   102    1
    12   104   105    1
    13     9    11   ar
    14   103   102    2
    15     3     2    1
    16    97    96    1
    17     5     2    1
    18     5     6    1
    19    96    89   am
    20   102   107   am
    21    87    88    1
    22     6     8   ar
    23    89    88    1
    24    89    90    2
    25    88    91    1
    26    11    12    1
    27    11    10   ar
    28    17    14    1
    29   107   108    1
    30     8    10   ar
    31   118   116    1
    32    14    13    1
    33    14    15    1
    34   108   109    1
    35    91    92    1
    36    92    93    1
    37   116   115    1
    38    84    83    2
    39    86    85    1
    40   111   109   am
    41   111   112    1
    42   109   110    2
    43    83    82    1
    44    32    30    1
    45    15    18   am
    46    15    16    2
    47   115   112    1
    48   115   117    1
    49    21    20    2
    50    18    19    1
    51    93    94    1
    52   114   113    2
    53   112   113    1
    54    94    95    1
    55    85    82    1
    56    82    81    1
    57    20    19    1
    58    20    25   am
    59    30    31    1
    60    30    29    1
    61   113   119   am
    62    19    22    1
    63    26    25    1
    64    26    29    1
    65    26    27    1
    66    24    22    1
    67    79    77    1
    68    81    75   am
    69    22    23    1
    70   119   120    1
    71    27    28    2
    72    27    33   am
    73   124   123    1
    74    76    75    2
    75    75    74    1
    76   120   123    1
    77   120   121    1
    78    33    34    1
    79    77    74    1
    80    77    78    1
    81   123   125    1
    82    74    73    1
    83   132   130    1
    84   121   126   am
    85   121   122    2
    86    78    80    1
    87   126   127    1
    88    56    57    1
    89    56    55    1
    90    35    34    1
    91    35    36    2
    92    57    58    1
    93    34    37    1
    94    73    69   am
    95   131   130    1
    96   130   127    1
    97   127   128    1
    98    70    69    2
    99    55    52    1
   100    37    38    1
   101    69    68    1
   102   178   177    1
   103    38    39    1
   104    62    61    2
   105   128   129    2
   106    52    51    1
   107    52    53    1
   108    68    67    1
   109    68    71    1
   110    51    46   am
   111    39    40    1
   112   177   176    1
   113    44    45    1
   114    49    48    1
   115    61    60    1
   116   176   175    1
   117    53    54    2
   118    59    60    1
   119    63    60    1
   120    63    64    1
   121    40    41    2
   122    71    72    1
   123    65    64    1
   124    65    66    1
   125    46    45    1
   126    46    47    2
   127    45    48    1
   128    48    50    1
   129   175   174    1
   130   139   137    1
   131   161   159   ar
   132    41    43    1
   133    41    42    1
   134   168   167   ar
   135   169   167   ar
   136   159   160   ar
   137   159   158    1
   138   174   171    1
   139   173   172    2
   140   167   166    1
   141   133   134    1
   142   158   155    1
   143   137   134    1
   144   137   138    1
   145   172   171    1
   146   153   152    1
   147   152   149    1
   148   171   170    1
   149   134   135    1
   150   166   163    1
   151   155   156    1
   152   155   154    1
   153   162   163    1
   154   162   156   am
   155   163   164    1
   156   156   157    2
   157   149   148    1
   158   149   150    1
   159   135   136    2
   160   143   142    2
   161   148   142   am
   162   142   141    1
   163   150   151    2
   164   144   141    1
   165   144   145    1
   166   164   165    2
   167   141   140    1
   168   147   145   ar
   169   145   146   ar
