@<TRIPOS>MOLECULE
tmp/5foiA01.pdb
 189 175 0 0 0
SMALL
GASTEIGER

@<TRIPOS>ATOM
      1  N         15.4630  -12.7750   -1.3060 N.3    61  PRO61      -0.2116
      2  CA        14.9340  -13.0780   -2.6410 C.3    61  PRO61       0.1372
      3  C         15.4660  -14.3560   -3.3080 C.2    61  PRO61       0.2244
      4  O         14.8530  -14.8530   -4.2070 O.2    61  PRO61      -0.2868
      5  CB        15.3240  -11.8500   -3.4700 C.3    61  PRO61       0.0268
      6  CG        15.5860  -10.7730   -2.4730 C.3    61  PRO61       0.0207
      7  CD        16.0230  -11.4210   -1.2090 C.3    61  PRO61       0.0892
      8  N         11.1430  -13.4230  -16.4780 N.3    70  ALA70      -0.1231
      9  CA        11.6050  -12.0900  -16.0760 C.3    70  ALA70       0.1694
     10  C         11.7720  -11.8910  -14.5500 C.2    70  ALA70       0.2592
     11  O         12.2090  -10.8510  -14.1160 O.2    70  ALA70      -0.2718
     12  CB        10.6520  -11.0370  -16.6330 C.3    70  ALA70       0.0304
     13  N         11.4010  -12.8670  -13.7420 N.am   71  ASP71      -0.1960
     14  CA        11.4730  -12.7360  -12.2800 C.3    71  ASP71       0.1840
     15  C         12.8640  -13.1600  -11.7670 C.2    71  ASP71       0.2623
     16  O         13.4120  -14.1840  -12.1680 O.2    71  ASP71      -0.2715
     17  CB        10.3540  -13.5670  -11.6490 C.3    71  ASP71       0.1450
     18  CG        10.3580  -13.5110  -10.1550 C.2    71  ASP71       0.3671
     19  OD1       10.8420  -12.5100   -9.5870 O.co2  71  ASP71      -0.2456
     20  OD2        9.8520  -14.4740   -9.5500 O.co2  71  ASP71      -0.2456
     21  N         13.4370  -12.3540  -10.8960 N.am   72  GLY72      -0.1940
     22  CA        14.8450  -12.4860  -10.5630 C.3    72  GLY72       0.2014
     23  C         15.1550  -11.6410   -9.3540 C.2    72  GLY72       0.2639
     24  O         14.2680  -10.9410   -8.8510 O.2    72  GLY72      -0.2714
     25  N         16.4030  -11.7060   -8.8820 N.am   73  ASP73      -0.1957
     26  CA        16.7850  -11.0970   -7.5990 C.3    73  ASP73       0.1840
     27  C         17.2600   -9.6310   -7.7510 C.2    73  ASP73       0.2622
     28  O         17.5460   -8.9620   -6.7600 O.2    73  ASP73      -0.2715
     29  CB        17.8300  -11.9790   -6.8760 C.3    73  ASP73       0.1450
     30  CG        19.2870  -11.5640   -7.1710 C.2    73  ASP73       0.3671
     31  OD1       19.6800  -11.4820   -8.3580 O.co2  73  ASP73      -0.2456
     32  OD2       20.0520  -11.3190   -6.2050 O.co2  73  ASP73      -0.2456
     33  N         17.3200   -9.1380   -8.9850 N.am   74  GLY74      -0.1954
     34  CA        17.5790   -7.7250   -9.2260 C.3    74  GLY74       0.1869
     35  C         19.0350   -7.3090   -9.1630 C.2    74  GLY74       0.2309
     36  O         19.3360   -6.1100   -9.0270 O.2    74  GLY74      -0.2863
     37  N         20.2430   -5.9990   -5.7600 N.3    77  PHE77      -0.1241
     38  CA        19.4730   -4.9530   -5.1410 C.3    77  PHE77       0.1605
     39  C         18.6330   -5.4830   -3.9750 C.2    77  PHE77       0.2264
     40  O         17.7930   -6.3350   -4.1590 O.2    77  PHE77      -0.2867
     41  CB        18.5560   -4.2490   -6.1410 C.3    77  PHE77       0.0534
     42  CG        17.5480   -3.3150   -5.4880 C.ar   77  PHE77      -0.0203
     43  CD1       16.3610   -3.8010   -4.9640 C.ar   77  PHE77      -0.0042
     44  CD2       17.7950   -1.9510   -5.4240 C.ar   77  PHE77      -0.0042
     45  CE1       15.4560   -2.9550   -4.3780 C.ar   77  PHE77      -0.0003
     46  CE2       16.8820   -1.1080   -4.8860 C.ar   77  PHE77      -0.0003
     47  CZ        15.7250   -1.6010   -4.3380 C.ar   77  PHE77      -0.0000
     48  N         16.3740   -3.7640   -0.5220 N.3    79  SER79      -0.1217
     49  CA        15.9370   -2.7660    0.4500 C.3    79  SER79       0.1889
     50  C         15.7360   -3.5180    1.7270 C.2    79  SER79       0.2288
     51  O         15.8280   -4.7200    1.7020 O.2    79  SER79      -0.2866
     52  CB        14.6280   -2.1040    0.0470 C.3    79  SER79       0.2089
     53  OG        13.5020   -2.9600    0.1900 O.3    79  SER79      -0.2183
     54  N         13.0250   -4.2250    2.9620 N.3    81  LEU81      -0.1231
     55  CA        11.9030   -5.0850    2.7420 C.3    81  LEU81       0.1693
     56  C         12.3540   -6.4600    2.2570 C.2    81  LEU81       0.2591
     57  O         11.5800   -7.4260    2.2540 O.2    81  LEU81      -0.2718
     58  CB        10.9430   -4.3890    1.7500 C.3    81  LEU81       0.0284
     59  CG         9.6650   -5.1060    1.4250 C.3    81  LEU81       0.0019
     60  CD1        8.9430   -5.4810    2.7070 C.3    81  LEU81       0.0001
     61  CD2        8.7570   -4.2770    0.5270 C.3    81  LEU81       0.0001
     62  N         13.5990   -6.5440    1.8140 N.am   82  MET82      -0.1979
     63  CA        14.1430   -7.7850    1.2850 C.3    82  MET82       0.1605
     64  C         15.1850   -8.3420    2.2140 C.2    82  MET82       0.2287
     65  O         15.9650   -9.1520    1.7950 O.2    82  MET82      -0.2864
     66  CB        14.7690   -7.5480   -0.0970 C.3    82  MET82       0.0413
     67  CG        13.8220   -6.8190   -1.0190 C.3    82  MET82       0.0598
     68  SD        14.5410   -6.2020   -2.5480 S.3    82  MET82      -0.1393
     69  CE        14.6450   -7.7320   -3.4580 C.3    82  MET82       0.0692
     70  N          8.3630    3.6610  -11.2870 N.3   162  SER162     -0.1217
     71  CA         7.9380    2.9050  -10.1280 C.3   162  SER162      0.1889
     72  C          6.8940    1.9080  -10.5680 C.2   162  SER162      0.2288
     73  O          6.9610    0.7390  -10.2210 O.2   162  SER162     -0.2866
     74  CB         7.3510    3.8210   -9.0610 C.3   162  SER162      0.2089
     75  OG         8.3880    4.4470   -8.3270 O.3   162  SER162     -0.2183
     76  N          8.7130   -0.8640  -12.3690 N.3   165  ALA165     -0.1231
     77  CA         9.5810   -1.6000  -11.4460 C.3   165  ALA165      0.1694
     78  C          8.7770   -2.5820  -10.5950 C.2   165  ALA165      0.2592
     79  O          9.2150   -3.7060  -10.3650 O.2   165  ALA165     -0.2718
     80  CB        10.3540   -0.6390  -10.5520 C.3   165  ALA165      0.0304
     81  N          7.5870   -2.1600  -10.1700 N.am  166  SER166     -0.1952
     82  CA         6.7050   -2.9690   -9.3470 C.3   166  SER166      0.1924
     83  C          5.9010   -4.0380  -10.1390 C.2   166  SER166      0.2314
     84  O          4.8830   -4.5280   -9.6480 O.2   166  SER166     -0.2863
     85  CB         5.7660   -2.0470   -8.5280 C.3   166  SER166      0.2116
     86  OG         4.6450   -1.5740   -9.3050 O.3   166  SER166     -0.2180
     87  N          6.9110   -7.5340  -11.3710 N.3   168  PRO168     -0.2116
     88  CA         8.0910   -8.3690  -11.3140 C.3   168  PRO168      0.1372
     89  C          8.1740   -9.4150  -12.4020 C.2   168  PRO168      0.2244
     90  O          9.2330  -10.0290  -12.5670 O.2   168  PRO168     -0.2868
     91  CB         7.9950   -9.0150   -9.9320 C.3   168  PRO168      0.0268
     92  CG         6.5180   -9.0480   -9.6040 C.3   168  PRO168      0.0207
     93  CD         5.9180   -7.8640  -10.3250 C.3   168  PRO168      0.0892
     94  N         10.6470   -4.2590  -15.9780 N.3   173  SER173     -0.1202
     95  CA        10.8230   -3.9190  -14.5800 C.3   173  SER173      0.2020
     96  C         12.2900   -3.7270  -14.2600 C.2   173  SER173      0.2618
     97  O         12.5950   -2.8800  -13.4890 O.2   173  SER173     -0.2717
     98  CB        10.1620   -4.9280  -13.6550 C.3   173  SER173      0.2103
     99  OG        10.6610   -6.2410  -13.8320 O.3   173  SER173     -0.2182
    100  N         13.2090   -4.4480  -14.8960 N.am  174  MET174     -0.1979
    101  CA        14.6330   -4.2870  -14.5800 C.3   174  MET174      0.1605
    102  C         15.2670   -2.9630  -15.0420 C.2   174  MET174      0.2287
    103  O         15.9660   -2.3110  -14.2560 O.2   174  MET174     -0.2864
    104  CB        15.4860   -5.4830  -15.0670 C.3   174  MET174      0.0413
    105  CG        16.8600   -5.5700  -14.3900 C.3   174  MET174      0.0598
    106  SD        16.8090   -5.2230  -12.6030 S.3   174  MET174     -0.1393
    107  CE        18.5300   -5.1040  -12.1110 C.3   174  MET174      0.0692
    108  N         13.9040   -0.3900  -12.7920 N.3   177  LEU177     -0.1245
    109  CA        14.4780   -0.4940  -11.4680 C.3   177  LEU177      0.1561
    110  C         15.9200    0.1150  -11.4850 C.2   177  LEU177      0.2260
    111  O         16.2750    0.9060  -10.5750 O.2   177  LEU177     -0.2867
    112  CB        14.4700   -1.9420  -10.9610 C.3   177  LEU177      0.0270
    113  CG        15.1520   -2.1640   -9.6220 C.3   177  LEU177      0.0019
    114  CD1       14.4210   -1.4160   -8.5230 C.3   177  LEU177      0.0001
    115  CD2       15.1990   -3.6250   -9.2700 C.3   177  LEU177      0.0001
    116  N         15.6970    3.9270  -11.5950 N.3   180  LEU180     -0.1245
    117  CA        15.3220    4.4970  -10.3120 C.3   180  LEU180      0.1561
    118  C         16.4540    4.5350   -9.2970 C.2   180  LEU180      0.2260
    119  O         16.5370    5.4690   -8.5160 O.2   180  LEU180     -0.2867
    120  CB        14.1920    3.7030   -9.6870 C.3   180  LEU180      0.0270
    121  CG        12.7670    4.0240  -10.0520 C.3   180  LEU180      0.0019
    122  CD1       11.8970    2.9020   -9.4750 C.3   180  LEU180      0.0001
    123  CD2       12.3640    5.4260   -9.5510 C.3   180  LEU180      0.0001
    124  N         14.7570    4.3340   -2.8100 N.3   223  VAL223     -0.1231
    125  CA        13.8990    3.8350   -3.8800 C.3   223  VAL223      0.1692
    126  C         12.6190    3.2570   -3.2530 C.2   223  VAL223      0.2591
    127  O         11.5020    3.6160   -3.6300 O.2   223  VAL223     -0.2718
    128  CB        14.5990    2.7570   -4.7170 C.3   223  VAL223      0.0266
    129  CG1       13.6040    2.0420   -5.6370 C.3   223  VAL223      0.0020
    130  CG2       15.7600    3.3560   -5.5180 C.3   223  VAL223      0.0020
    131  N         12.7950    2.3740   -2.2850 N.am  224  LEU224     -0.1980
    132  CA        11.6850    1.8290   -1.5780 C.3   224  LEU224      0.1596
    133  C         10.7820    2.9090   -0.9550 C.2   224  LEU224      0.2287
    134  O          9.5810    2.8480   -1.1270 O.2   224  LEU224     -0.2864
    135  CB        12.1660    0.8100   -0.5340 C.3   224  LEU224      0.0297
    136  CG        11.2750    0.5390    0.6720 C.3   224  LEU224      0.0022
    137  CD1        9.9850   -0.1250    0.2700 C.3   224  LEU224      0.0001
    138  CD2       12.0240   -0.3140    1.7130 C.3   224  LEU224      0.0001
    139  N          8.8890    4.8730   -4.0670 N.3   227  ALA227     -0.1231
    140  CA         7.8970    4.0680   -4.7520 C.3   227  ALA227      0.1694
    141  C          6.7500    3.5680   -3.8490 C.2   227  ALA227      0.2591
    142  O          5.5850    3.7160   -4.2010 O.2   227  ALA227     -0.2718
    143  CB         8.5600    2.9130   -5.4420 C.3   227  ALA227      0.0304
    144  N          7.0770    2.9640   -2.7160 N.am  228  ALA228     -0.1980
    145  CA         6.0560    2.5710   -1.7640 C.3   228  ALA228      0.1597
    146  C          5.2270    3.8070   -1.4480 C.2   228  ALA228      0.2287
    147  O          4.0120    3.7820   -1.5640 O.2   228  ALA228     -0.2864
    148  CB         6.6760    2.0190   -0.4980 C.3   228  ALA228      0.0319
    149  N          1.3690    3.1540   -3.7580 N.3   232  THR232     -0.1218
    150  CA         0.4000    2.5070   -2.8880 C.3   232  THR232      0.1862
    151  C         -0.7800    3.3910   -2.5440 C.2   232  THR232      0.2287
    152  O         -1.8830    3.0600   -2.8680 O.2   232  THR232     -0.2866
    153  CB         1.0430    2.0230   -1.5790 C.3   232  THR232      0.1770
    154  OG1        1.9440    3.0170   -1.0970 O.3   232  THR232     -0.2211
    155  CG2        1.7680    0.7450   -1.7850 C.3   232  THR232      0.0375
    156  N         -2.3650   -4.3330   -1.3570 N.3   275  ALA275     -0.1245
    157  CA        -1.0510   -4.9630   -1.3570 C.3   275  ALA275      0.1562
    158  C         -1.2940   -6.4580   -1.0600 C.2   275  ALA275      0.2260
    159  O         -1.8380   -6.8320   -0.0140 O.2   275  ALA275     -0.2867
    160  CB        -0.1080   -4.2720   -0.3780 C.3   275  ALA275      0.0290
    161  N          2.0770  -11.5230   -1.0260 N.3   278  LEU278     -0.1245
    162  CA         3.4220  -11.3940   -0.5030 C.3   278  LEU278      0.1561
    163  C          4.1980  -12.7140   -0.5920 C.2   278  LEU278      0.2260
    164  O          3.6450  -13.8210   -0.4220 O.2   278  LEU278     -0.2867
    165  CB         3.3750  -10.9800    0.9500 C.3   278  LEU278      0.0270
    166  CG         3.1540   -9.5420    1.4030 C.3   278  LEU278      0.0019
    167  CD1        2.2920   -8.7160    0.4870 C.3   278  LEU278      0.0001
    168  CD2        2.5710   -9.5700    2.8200 C.3   278  LEU278      0.0001
    169  N          3.9850   -2.4780    7.3920 N.3   338  CYS338     -0.1235
    170  CA         4.1780   -1.1410    6.7240 C.3   338  CYS338      0.1677
    171  C          4.7450   -0.0330    7.6110 C.2   338  CYS338      0.2270
    172  O          4.1270    0.3820    8.5450 O.2   338  CYS338     -0.2867
    173  CB         2.8900   -0.5770    6.0940 C.3   338  CYS338      0.0956
    174  SG         3.2310    0.7870    4.9240 S.3   338  CYS338     -0.0801
    175  N          2.0760   -6.7070   -7.3280 N.3   378  PRO378     -0.2102
    176  CA         1.5520   -6.9860   -5.9630 C.3   378  PRO378      0.1504
    177  C          0.8060   -5.7990   -5.3460 C.2   378  PRO378      0.2575
    178  O          0.3650   -5.8910   -4.1950 O.2   378  PRO378     -0.2718
    179  CB         2.8150   -7.2900   -5.1670 C.3   378  PRO378      0.0282
    180  CG         3.8740   -6.4860   -5.8680 C.3   378  PRO378      0.0208
    181  CD         3.5310   -6.5330   -7.3350 C.3   378  PRO378      0.0893
    182  N          0.7040   -4.6870   -6.0840 N.am  379  ILE379     -0.1980
    183  CA        -0.1450   -3.5310   -5.6930 C.3   379  ILE379      0.1595
    184  C         -1.3550   -3.4120   -6.6180 C.2   379  ILE379      0.2287
    185  O         -1.2460   -2.9910   -7.7360 O.2   379  ILE379     -0.2864
    186  CB         0.6350   -2.2100   -5.8090 C.3   379  ILE379      0.0276
    187  CG1        1.9990   -2.3840   -5.1340 C.3   379  ILE379      0.0022
    188  CG2       -0.1880   -1.0540   -5.2440 C.3   379  ILE379      0.0022
    189  CD1        2.7470   -1.0920   -4.9030 C.3   379  ILE379      0.0001
@<TRIPOS>BOND
     1    12     9    1
     2     8     9    1
     3     9    10    1
     4    94    95    1
     5   104   101    1
     6   104   105    1
     7   102   101    1
     8   102   103    2
     9   100   101    1
    10   100    96   am
    11    95    96    1
    12    95    98    1
    13    10    11    2
    14    10    13   am
    15   105   106    1
    16    96    97    2
    17    99    98    1
    18    13    14    1
    19   108   109    1
    20   106   107    1
    21    90    89    2
    22    89    88    1
    23    76    77    1
    24    14    15    1
    25    14    17    1
    26    16    15    2
    27    15    21   am
    28    17    18    1
    29   116   117    1
    30   110   109    1
    31   110   111    2
    32   109   112    1
    33    77    78    1
    34    77    80    1
    35    87    88    1
    36    87    93    1
    37    88    91    1
    38    70    71    1
    39   112   113    1
    40    21    22    1
    41    78    79    2
    42    78    81   am
    43    72    73    2
    44    72    71    1
    45    22    23    1
    46    93    92    1
    47   117   120    1
    48   117   118    1
    49    81    82    1
    50    18    19   ar
    51    18    20   ar
    52    83    84    2
    53    83    82    1
    54    71    74    1
    55   121   120    1
    56   121   123    1
    57   121   122    1
    58    91    92    1
    59   113   115    1
    60   113   114    1
    61    23    25   am
    62    23    24    2
    63    82    85    1
    64    86    85    1
    65   118   119    2
    66    34    35    1
    67    34    33    1
    68    35    36    2
    69    74    75    1
    70    33    27   am
    71    25    26    1
    72    31    30   ar
    73    27    26    1
    74    27    28    2
    75   185   184    2
    76    26    29    1
    77   181   175    1
    78   181   180    1
    79   175   176    1
    80    30    29    1
    81    30    32   ar
    82   184   183    1
    83    41    42    1
    84    41    38    1
    85   182   183    1
    86   182   177   am
    87   176   177    1
    88   176   179    1
    89   180   179    1
    90   186   183    1
    91   186   188    1
    92   186   187    1
    93    37    38    1
    94   129   128    1
    95   130   128    1
    96    42    44   ar
    97    42    43   ar
    98   143   140    1
    99    44    46   ar
   100   177   178    2
   101    38    39    1
   102   187   189    1
   103    43    45   ar
   104    46    47   ar
   105   140   139    1
   106   140   141    1
   107   128   125    1
   108    45    47   ar
   109     4     3    2
   110   142   141    2
   111    40    39    2
   112   125   126    1
   113   125   124    1
   114   141   144   am
   115   149   150    1
   116   127   126    2
   117     5     2    1
   118     5     6    1
   119    69    68    1
   120     3     2    1
   121   126   131   am
   122   150   151    1
   123   150   153    1
   124   152   151    2
   125   144   145    1
   126     2     1    1
   127    68    67    1
   128     6     7    1
   129   131   132    1
   130   155   153    1
   131   145   146    1
   132   145   148    1
   133   153   154    1
   134   132   133    1
   135   132   135    1
   136   147   146    2
   137   157   156    1
   138   157   158    1
   139   157   160    1
   140     1     7    1
   141   134   133    2
   142   158   159    2
   143   161   162    1
   144    67    66    1
   145   163   162    1
   146   163   164    2
   147   135   136    1
   148    48    49    1
   149   162   165    1
   150    66    63    1
   151    52    53    1
   152    52    49    1
   153   137   136    1
   154    49    50    1
   155   167   166    1
   156    61    59    1
   157   136   138    1
   158   165   166    1
   159    63    62    1
   160    63    64    1
   161   166   168    1
   162    59    58    1
   163    59    60    1
   164    51    50    2
   165    58    55    1
   166    65    64    2
   167    62    56   am
   168    57    56    2
   169    56    55    1
   170    55    54    1
   171   174   173    1
   172   173   170    1
   173   170   169    1
   174   170   171    1
   175   171   172    2
