@<TRIPOS>MOLECULE
tmp/5fokA03.pdb
 87 82 0 0 0
SMALL
GASTEIGER

@<TRIPOS>ATOM
      1  N         21.9490   -6.5980  -17.5890 N.3   170  SER170     -0.1217
      2  CA        22.8300   -7.7010  -17.9810 C.3   170  SER170      0.1889
      3  C         23.9250   -7.8970  -16.9440 C.2   170  SER170      0.2288
      4  O         24.2180   -6.9840  -16.1640 O.2   170  SER170     -0.2866
      5  CB        23.4620   -7.4240  -19.3550 C.3   170  SER170      0.2089
      6  OG        24.2600   -6.2400  -19.3300 O.3   170  SER170     -0.2183
      7  N         31.3170   -7.2470  -14.6810 N.3   200  ASP200     -0.1225
      8  CA        30.9370   -6.0560  -15.4450 C.3   200  ASP200      0.1805
      9  C         29.4400   -6.1490  -15.7170 C.2   200  ASP200      0.2598
     10  O         29.0210   -6.9210  -16.5900 O.2   200  ASP200     -0.2718
     11  CB        31.7090   -6.0210  -16.7570 C.3   200  ASP200      0.1424
     12  CG        31.3510   -4.8200  -17.6210 C.2   200  ASP200      0.3668
     13  OD1       30.6400   -3.9060  -17.1480 O.co2 200  ASP200     -0.2456
     14  OD2       31.7990   -4.7910  -18.7880 O.co2 200  ASP200     -0.2456
     15  N         28.6530   -5.4100  -14.9320 N.am  201  ASP201     -0.1960
     16  CA        27.2070   -5.5720  -14.8750 C.3   201  ASP201      0.1840
     17  C         26.5160   -4.2390  -15.0590 C.2   201  ASP201      0.2621
     18  O         27.1000   -3.1660  -14.8320 O.2   201  ASP201     -0.2715
     19  CB        26.7650   -6.1430  -13.5100 C.3   201  ASP201      0.1450
     20  CG        27.5000   -7.4310  -13.1220 C.2   201  ASP201      0.3671
     21  OD1       27.7530   -8.3010  -13.9780 O.co2 201  ASP201     -0.2456
     22  OD2       27.7830   -7.5970  -11.9170 O.co2 201  ASP201     -0.2456
     23  N         25.2440   -4.3040  -15.4670 N.am  202  MET202     -0.1977
     24  CA        24.3740   -3.1530  -15.4110 C.3   202  MET202      0.1605
     25  C         23.7410   -3.1230  -14.0210 C.2   202  MET202      0.2287
     26  O         22.9420   -3.9920  -13.6850 O.2   202  MET202     -0.2864
     27  CB        23.2780   -3.2690  -16.4800 C.3   202  MET202      0.0413
     28  CG        22.2580   -2.1490  -16.4370 C.3   202  MET202      0.0598
     29  SD        22.9810   -0.5230  -16.6450 S.3   202  MET202     -0.1393
     30  CE        23.9770   -0.7020  -18.1380 C.3   202  MET202      0.0692
     31  N         21.2980    2.7650  -19.9040 N.3   234  LYS234     -0.1245
     32  CA        22.2520    1.9260  -20.5960 C.3   234  LYS234      0.1561
     33  C         23.5340    2.6870  -20.9200 C.2   234  LYS234      0.2260
     34  O         24.6190    2.1030  -20.8580 O.2   234  LYS234     -0.2867
     35  CB        21.7060    1.4000  -21.9060 C.3   234  LYS234      0.0271
     36  CG        20.6120    0.3710  -21.7930 C.3   234  LYS234      0.0035
     37  CD        20.3300   -0.2420  -23.1670 C.3   234  LYS234      0.0206
     38  CE        21.4130   -1.2390  -23.5530 C.3   234  LYS234      0.1093
     39  NZ        21.3130   -1.6460  -24.9750 N.3   234  LYS234     -0.1314
     40  N         24.9720    5.2030  -19.3250 N.3   236  ARG236     -0.1231
     41  CA        25.6910    5.8390  -18.1840 C.3   236  ARG236      0.1694
     42  C         26.0690    4.8580  -17.1070 C.2   236  ARG236      0.2592
     43  O         27.1960    4.8900  -16.6090 O.2   236  ARG236     -0.2718
     44  CB        24.8360    6.9480  -17.5400 C.3   236  ARG236      0.0321
     45  CG        25.4370    7.5090  -16.2520 C.3   236  ARG236      0.0489
     46  CD        24.5890    8.6170  -15.6650 C.3   236  ARG236      0.2205
     47  NE        23.4830    8.1030  -14.8560 N.pl3 236  ARG236     -0.0865
     48  CZ        22.5750    8.8720  -14.2830 C.cat 236  ARG236      0.5346
     49  NH1       22.6260   10.1830  -14.4460 N.pl3 236  ARG236      0.1354
     50  NH2       21.6370    8.3290  -13.5490 N.pl3 236  ARG236      0.1354
     51  N         25.1350    3.9940  -16.7470 N.am  237  ASP237     -0.1960
     52  CA        25.2720    3.1480  -15.5670 C.3   237  ASP237      0.1840
     53  C         26.1120    1.9040  -15.8660 C.2   237  ASP237      0.2622
     54  O         26.0910    1.3960  -16.9950 O.2   237  ASP237     -0.2715
     55  CB        23.8890    2.7630  -15.0290 C.3   237  ASP237      0.1450
     56  CG        23.0640    3.9880  -14.5960 C.2   237  ASP237      0.3671
     57  OD1       23.6320    5.0970  -14.5190 O.co2 237  ASP237     -0.2456
     58  OD2       21.8310    3.8490  -14.3800 O.co2 237  ASP237     -0.2456
     59  N         26.8870    1.4760  -14.8700 N.am  238  TYR238     -0.1974
     60  CA        27.7380    0.2870  -14.9460 C.3   238  TYR238      0.1639
     61  C         28.3160   -0.0240  -13.5550 C.2   238  TYR238      0.2290
     62  O         28.3360    0.8250  -12.6790 O.2   238  TYR238     -0.2864
     63  CB        28.8980    0.5400  -15.9150 C.3   238  TYR238      0.0560
     64  CG        29.8760    1.5590  -15.3790 C.ar  238  TYR238     -0.0198
     65  CD1       29.6780    2.9070  -15.5940 C.ar  238  TYR238     -0.0009
     66  CD2       30.9870    1.1690  -14.6170 C.ar  238  TYR238     -0.0009
     67  CE1       30.5490    3.8620  -15.0820 C.ar  238  TYR238      0.0417
     68  CE2       31.8610    2.1100  -14.1050 C.ar  238  TYR238      0.0417
     69  CZ        31.6230    3.4670  -14.3240 C.ar  238  TYR238      0.1957
     70  OH        32.5220    4.4370  -13.8440 O.3   238  TYR238     -0.2866
     71  N         31.6970   -2.3380  -12.2680 N.3   240  LYS240     -0.1245
     72  CA        32.8250   -3.1520  -12.6130 C.3   240  LYS240      0.1561
     73  C         33.6510   -3.3920  -11.3620 C.2   240  LYS240      0.2260
     74  O         34.0540   -2.4440  -10.6680 O.2   240  LYS240     -0.2867
     75  CB        33.6760   -2.4590  -13.6710 C.3   240  LYS240      0.0271
     76  CG        33.0410   -2.4560  -15.0480 C.3   240  LYS240      0.0035
     77  CD        33.8400   -1.6600  -16.0560 C.3   240  LYS240      0.0206
     78  CE        33.1510   -1.6630  -17.4150 C.3   240  LYS240      0.1093
     79  NZ        33.9850   -1.0620  -18.4800 N.3   240  LYS240     -0.1314
     80  N         34.0910    0.1020   -9.2670 N.3   272  ASP272     -0.1239
     81  CA        33.8800    1.2910  -10.0240 C.3   272  ASP272      0.1674
     82  C         32.4330    1.1740  -10.5080 C.2   272  ASP272      0.2266
     83  O         32.1030    0.2570  -11.2830 O.2   272  ASP272     -0.2867
     84  CB        34.8790    1.3090  -11.1770 C.3   272  ASP272      0.1410
     85  CG        34.7890    2.5380  -12.0700 C.2   272  ASP272      0.3668
     86  OD1       34.0180    3.4890  -11.8470 O.co2 272  ASP272     -0.2456
     87  OD2       35.5510    2.5560  -13.0510 O.co2 272  ASP272     -0.2456
@<TRIPOS>BOND
     1    39    38    1
     2    38    37    1
     3    37    36    1
     4    35    36    1
     5    35    32    1
     6    33    34    2
     7    33    32    1
     8    32    31    1
     9     5     6    1
    10     5     2    1
    11    40    41    1
    12    14    12   ar
    13    79    78    1
    14    41    44    1
    15    41    42    1
    16    30    29    1
    17     2     1    1
    18     2     3    1
    19    12    13   ar
    20    12    11    1
    21    44    45    1
    22    78    77    1
    23    42    51   am
    24    42    43    2
    25    54    53    2
    26     3     4    2
    27    11     8    1
    28    51    52    1
    29    29    28    1
    30    10     9    2
    31    27    28    1
    32    27    24    1
    33    45    46    1
    34    77    76    1
    35    63    64    1
    36    63    60    1
    37    53    52    1
    38    53    59   am
    39     9     8    1
    40     9    15   am
    41    46    47    1
    42    65    64   ar
    43    65    67   ar
    44    52    55    1
    45    23    24    1
    46    23    17   am
    47     8     7    1
    48    24    25    1
    49    64    66   ar
    50    67    69   ar
    51    17    16    1
    52    17    18    2
    53    76    75    1
    54    55    56    1
    55    60    59    1
    56    60    61    1
    57    15    16    1
    58    16    19    1
    59    47    48    2
    60    66    68   ar
    61    56    57   ar
    62    56    58   ar
    63    49    48    1
    64    69    68   ar
    65    69    70    1
    66    48    50    1
    67    25    26    2
    68    21    20   ar
    69    75    72    1
    70    61    62    2
    71    19    20    1
    72    20    22   ar
    73    87    85   ar
    74    72    71    1
    75    72    73    1
    76    85    86   ar
    77    85    84    1
    78    73    74    2
    79    83    82    2
    80    84    81    1
    81    82    81    1
    82    81    80    1
