@<TRIPOS>MOLECULE
tmp/5fokA00.pdb
 86 81 0 0 0
SMALL
GASTEIGER

@<TRIPOS>ATOM
      1  N         53.1940  -33.4520   16.9760 N.3   255  ASN255     -0.1225
      2  CA        53.0800  -34.8660   17.3010 C.3   255  ASN255      0.1785
      3  C         51.6730  -35.3030   16.9160 C.2   255  ASN255      0.2597
      4  O         50.9340  -34.5240   16.3260 O.2   255  ASN255     -0.2718
      5  CB        53.3620  -35.1280   18.7860 C.3   255  ASN255      0.1169
      6  CG        52.4410  -34.3540   19.7110 C.2   255  ASN255      0.2627
      7  OD1       51.2110  -34.3730   19.5640 O.2   255  ASN255     -0.2716
      8  ND2       53.0360  -33.6750   20.6890 N.am  255  ASN255     -0.0877
      9  N         51.2800  -36.5300   17.2470 N.am  256  ASP256     -0.1960
     10  CA        49.9820  -37.0300   16.7880 C.3   256  ASP256      0.1840
     11  C         48.7930  -36.2370   17.3670 C.2   256  ASP256      0.2622
     12  O         47.6890  -36.3020   16.8360 O.2   256  ASP256     -0.2715
     13  CB        49.8260  -38.5120   17.1190 C.3   256  ASP256      0.1450
     14  CG        50.8760  -39.3730   16.4530 C.2   256  ASP256      0.3671
     15  OD1       51.6720  -38.8520   15.6350 O.co2 256  ASP256     -0.2456
     16  OD2       50.9140  -40.5740   16.7540 O.co2 256  ASP256     -0.2456
     17  N         49.0330  -35.4650   18.4240 N.am  257  ASN257     -0.1958
     18  CA        47.9550  -34.7900   19.1420 C.3   257  ASN257      0.1819
     19  C         48.0200  -33.2690   19.0950 C.2   257  ASN257      0.2621
     20  O         47.2320  -32.5920   19.7450 O.2   257  ASN257     -0.2715
     21  CB        47.9700  -35.2570   20.6010 C.3   257  ASN257      0.1195
     22  CG        47.7110  -36.7450   20.7250 C.2   257  ASN257      0.2630
     23  OD1       48.5360  -37.4940   21.2620 O.2   257  ASN257     -0.2716
     24  ND2       46.5880  -37.1930   20.1700 N.am  257  ASN257     -0.0877
     25  N         48.9060  -32.7220   18.2800 N.am  258  LEU258     -0.1977
     26  CA        49.1410  -31.2840   18.3070 C.3   258  LEU258      0.1596
     27  C         49.5560  -30.7790   16.9380 C.2   258  LEU258      0.2287
     28  O         50.5470  -31.2510   16.3740 O.2   258  LEU258     -0.2864
     29  CB        50.2410  -31.0100   19.3270 C.3   258  LEU258      0.0297
     30  CG        50.5490  -29.6070   19.8060 C.3   258  LEU258      0.0022
     31  CD1       49.3230  -28.9390   20.3910 C.3   258  LEU258      0.0001
     32  CD2       51.6720  -29.7160   20.8390 C.3   258  LEU258      0.0001
     33  N         46.6850  -23.2210   17.0570 N.3   310  LEU310     -0.1245
     34  CA        47.1600  -24.4730   17.6010 C.3   310  LEU310      0.1561
     35  C         45.9260  -25.3280   17.8370 C.2   310  LEU310      0.2260
     36  O         44.9320  -24.8470   18.3680 O.2   310  LEU310     -0.2867
     37  CB        47.8840  -24.2000   18.9280 C.3   310  LEU310      0.0270
     38  CG        48.3660  -25.3690   19.7820 C.3   310  LEU310      0.0019
     39  CD1       49.4680  -24.9190   20.7300 C.3   310  LEU310      0.0001
     40  CD2       47.2230  -25.9540   20.5980 C.3   310  LEU310      0.0001
     41  N         44.7910  -29.1790   19.5050 N.3   312  ALA312     -0.1231
     42  CA        45.3250  -30.2120   20.3640 C.3   312  ALA312      0.1694
     43  C         44.2360  -31.1460   20.8720 C.2   312  ALA312      0.2592
     44  O         43.1260  -30.7160   21.1530 O.2   312  ALA312     -0.2718
     45  CB        46.0460  -29.5890   21.5540 C.3   312  ALA312      0.0304
     46  N         44.5840  -32.4280   20.9680 N.am  313  ASN313     -0.1960
     47  CA        43.8040  -33.4050   21.6850 C.3   313  ASN313      0.1819
     48  C         44.6060  -33.8000   22.9100 C.2   313  ASN313      0.2621
     49  O         45.7950  -34.1630   22.7910 O.2   313  ASN313     -0.2715
     50  CB        43.5750  -34.6670   20.8480 C.3   313  ASN313      0.1195
     51  CG        42.8390  -34.3850   19.5620 C.2   313  ASN313      0.2630
     52  OD1       41.8670  -33.6470   19.5390 O.2   313  ASN313     -0.2716
     53  ND2       43.2990  -34.9840   18.4820 N.am  313  ASN313     -0.0877
     54  N         43.9900  -33.7420   24.0850 N.am  314  PHE314     -0.1974
     55  CA        44.6730  -34.2170   25.2910 C.3   314  PHE314      0.1639
     56  C         43.6680  -34.5610   26.3650 C.2   314  PHE314      0.2290
     57  O         42.4790  -34.2840   26.2150 O.2   314  PHE314     -0.2864
     58  CB        45.6660  -33.1670   25.8080 C.3   314  PHE314      0.0560
     59  CG        45.0310  -31.8420   26.1370 C.ar  314  PHE314     -0.0200
     60  CD1       44.8060  -30.8950   25.1540 C.ar  314  PHE314     -0.0042
     61  CD2       44.6370  -31.5620   27.4400 C.ar  314  PHE314     -0.0042
     62  CE1       44.2150  -29.6750   25.4580 C.ar  314  PHE314     -0.0003
     63  CE2       44.0400  -30.3530   27.7550 C.ar  314  PHE314     -0.0003
     64  CZ        43.8210  -29.4070   26.7570 C.ar  314  PHE314     -0.0000
     65  N         40.8540  -29.0190   21.7080 N.3   323  LEU323     -0.1245
     66  CA        41.0590  -27.5950   21.9280 C.3   323  LEU323      0.1561
     67  C         41.6670  -26.9040   20.7100 C.2   323  LEU323      0.2260
     68  O         42.5280  -27.4570   20.0180 O.2   323  LEU323     -0.2867
     69  CB        41.9580  -27.4090   23.1530 C.3   323  LEU323      0.0270
     70  CG        42.2980  -25.9640   23.5240 C.3   323  LEU323      0.0019
     71  CD1       42.4260  -25.8550   25.0260 C.3   323  LEU323      0.0001
     72  CD2       43.5690  -25.5030   22.8260 C.3   323  LEU323      0.0001
     73  N         43.2430  -22.9200   19.7120 N.3   325  THR325     -0.1218
     74  CA        43.5250  -21.5710   20.1980 C.3   325  THR325      0.1862
     75  C         44.2970  -20.8590   19.1150 C.2   325  THR325      0.2287
     76  O         45.0790  -21.4710   18.3990 O.2   325  THR325     -0.2866
     77  CB        44.2990  -21.5890   21.5350 C.3   325  THR325      0.1770
     78  OG1       44.4570  -20.2440   22.0280 O.3   325  THR325     -0.2211
     79  CG2       45.6640  -22.2310   21.3700 C.3   325  THR325      0.0375
     80  N         40.1940  -19.0650   22.3470 N.3   395  VAL395     -0.1245
     81  CA        40.3680  -20.4460   22.7350 C.3   395  VAL395      0.1561
     82  C         38.9910  -21.1000   22.7790 C.2   395  VAL395      0.2260
     83  O         38.0500  -20.5280   23.3330 O.2   395  VAL395     -0.2867
     84  CB        41.1250  -20.5910   24.0740 C.3   395  VAL395      0.0252
     85  CG1       40.5260  -19.7150   25.1560 C.3   395  VAL395      0.0019
     86  CG2       41.1320  -22.0530   24.5110 C.3   395  VAL395      0.0019
@<TRIPOS>BOND
     1    15    14   ar
     2     4     3    2
     3    28    27    2
     4    14    16   ar
     5    14    13    1
     6    10    13    1
     7    10     9    1
     8    10    11    1
     9    12    11    2
    10     3     9   am
    11     3     2    1
    12    27    26    1
    13     1     2    1
    14    33    34    1
    15     2     5    1
    16    11    17   am
    17    34    35    1
    18    34    37    1
    19    35    36    2
    20    25    26    1
    21    25    19   am
    22    26    29    1
    23    76    75    2
    24    17    18    1
    25    53    51   am
    26     5     6    1
    27    37    38    1
    28    19    18    1
    29    19    20    2
    30    75    74    1
    31    18    21    1
    32    29    30    1
    33    41    42    1
    34    52    51    2
    35    51    50    1
    36     7     6    2
    37     6     8   am
    38    73    74    1
    39    38    40    1
    40    38    39    1
    41    30    31    1
    42    30    32    1
    43    68    67    2
    44    24    22   am
    45    74    77    1
    46    42    43    1
    47    42    45    1
    48    21    22    1
    49    67    66    1
    50    22    23    2
    51    50    47    1
    52    43    46   am
    53    43    44    2
    54    46    47    1
    55    79    77    1
    56    77    78    1
    57    47    48    1
    58    65    66    1
    59    66    69    1
    60    80    81    1
    61    81    82    1
    62    81    84    1
    63    82    83    2
    64    49    48    2
    65    72    70    1
    66    48    54   am
    67    69    70    1
    68    70    71    1
    69    84    86    1
    70    84    85    1
    71    54    55    1
    72    60    62   ar
    73    60    59   ar
    74    55    58    1
    75    55    56    1
    76    62    64   ar
    77    58    59    1
    78    59    61   ar
    79    57    56    2
    80    64    63   ar
    81    61    63   ar
