@<TRIPOS>MOLECULE
tmp/5fokA02.pdb
 82 78 0 0 0
SMALL
GASTEIGER

@<TRIPOS>ATOM
      1  N         43.9900  -33.7420   24.0850 N.3   314  PHE314     -0.1241
      2  CA        44.6730  -34.2170   25.2910 C.3   314  PHE314      0.1605
      3  C         43.6680  -34.5610   26.3650 C.2   314  PHE314      0.2264
      4  O         42.4790  -34.2840   26.2150 O.2   314  PHE314     -0.2867
      5  CB        45.6660  -33.1670   25.8080 C.3   314  PHE314      0.0534
      6  CG        45.0310  -31.8420   26.1370 C.ar  314  PHE314     -0.0203
      7  CD1       44.8060  -30.8950   25.1540 C.ar  314  PHE314     -0.0042
      8  CD2       44.6370  -31.5620   27.4400 C.ar  314  PHE314     -0.0042
      9  CE1       44.2150  -29.6750   25.4580 C.ar  314  PHE314     -0.0003
     10  CE2       44.0400  -30.3530   27.7550 C.ar  314  PHE314     -0.0003
     11  CZ        43.8210  -29.4070   26.7570 C.ar  314  PHE314     -0.0000
     12  N         42.6470  -34.4880   30.6140 N.3   316  THR316     -0.1203
     13  CA        42.8560  -34.1240   32.0120 C.3   316  THR316      0.1994
     14  C         42.0180  -35.0210   32.8910 C.2   316  THR316      0.2618
     15  O         40.8050  -34.8490   32.9820 O.2   316  THR316     -0.2717
     16  CB        42.4930  -32.6600   32.3000 C.3   316  THR316      0.1784
     17  OG1       41.1200  -32.3950   31.9470 O.3   316  THR316     -0.2211
     18  CG2       43.4080  -31.7360   31.5000 C.3   316  THR316      0.0376
     19  N         42.6670  -35.9780   33.5350 N.am  317  GLY317     -0.1942
     20  CA        41.9570  -37.0660   34.2000 C.3   317  GLY317      0.2014
     21  C         41.0580  -37.7880   33.2050 C.2   317  GLY317      0.2639
     22  O         41.5090  -38.2150   32.1480 O.2   317  GLY317     -0.2714
     23  N         39.7850  -37.9250   33.5420 N.am  318  PHE318     -0.1959
     24  CA        38.8450  -38.6680   32.7010 C.3   318  PHE318      0.1771
     25  C         38.3140  -37.8040   31.5480 C.2   318  PHE318      0.2619
     26  O         37.6240  -38.2990   30.6700 O.2   318  PHE318     -0.2715
     27  CB        37.6640  -39.1820   33.5460 C.3   318  PHE318      0.0574
     28  CG        36.8100  -38.0820   34.1440 C.ar  318  PHE318     -0.0200
     29  CD1       37.1230  -37.5270   35.3850 C.ar  318  PHE318     -0.0042
     30  CD2       35.6940  -37.5920   33.4600 C.ar  318  PHE318     -0.0042
     31  CE1       36.3440  -36.5190   35.9330 C.ar  318  PHE318     -0.0003
     32  CE2       34.9160  -36.5720   34.0020 C.ar  318  PHE318     -0.0003
     33  CZ        35.2430  -36.0390   35.2400 C.ar  318  PHE318     -0.0000
     34  N         38.6150  -36.5120   31.5590 N.am  319  ILE319     -0.1977
     35  CA        38.0470  -35.6070   30.5600 C.3   319  ILE319      0.1596
     36  C         38.9260  -35.5430   29.3200 C.2   319  ILE319      0.2287
     37  O         40.1320  -35.3250   29.4070 O.2   319  ILE319     -0.2864
     38  CB        37.8910  -34.2000   31.1230 C.3   319  ILE319      0.0276
     39  CG1       37.0860  -34.2310   32.4230 C.3   319  ILE319      0.0022
     40  CG2       37.2130  -33.2950   30.1090 C.3   319  ILE319      0.0022
     41  CD1       36.8600  -32.8520   33.0030 C.3   319  ILE319      0.0001
     42  N         39.8720  -33.5020   26.0320 N.3   321  HIS321     -0.1241
     43  CA        39.7590  -32.1620   25.4360 C.3   321  HIS321      0.1621
     44  C         40.0600  -32.1970   23.9420 C.2   321  HIS321      0.2264
     45  O         41.0160  -32.8440   23.4940 O.2   321  HIS321     -0.2867
     46  CB        40.7660  -31.1780   26.0600 C.3   321  HIS321      0.0745
     47  CG        40.5700  -30.9500   27.5260 C.ar  321  HIS321      0.0817
     48  ND1       40.1510  -29.7400   28.0440 N.ar  321  HIS321     -0.2268
     49  CD2       40.6940  -31.7850   28.5750 C.ar  321  HIS321      0.1154
     50  CE1       40.0480  -29.8410   29.3580 C.ar  321  HIS321      0.1986
     51  NE2       40.3460  -31.0780   29.7010 N.ar  321  HIS321     -0.2212
     52  N         40.8540  -29.0190   21.7080 N.3   323  LEU323     -0.1245
     53  CA        41.0590  -27.5950   21.9280 C.3   323  LEU323      0.1561
     54  C         41.6670  -26.9040   20.7100 C.2   323  LEU323      0.2260
     55  O         42.5280  -27.4570   20.0180 O.2   323  LEU323     -0.2867
     56  CB        41.9580  -27.4090   23.1530 C.3   323  LEU323      0.0270
     57  CG        42.2980  -25.9640   23.5240 C.3   323  LEU323      0.0019
     58  CD1       42.4260  -25.8550   25.0260 C.3   323  LEU323      0.0001
     59  CD2       43.5690  -25.5030   22.8260 C.3   323  LEU323      0.0001
     60  N         40.1940  -19.0650   22.3470 N.3   395  VAL395     -0.1245
     61  CA        40.3680  -20.4460   22.7350 C.3   395  VAL395      0.1561
     62  C         38.9910  -21.1000   22.7790 C.2   395  VAL395      0.2260
     63  O         38.0500  -20.5280   23.3330 O.2   395  VAL395     -0.2867
     64  CB        41.1250  -20.5910   24.0740 C.3   395  VAL395      0.0252
     65  CG1       40.5260  -19.7150   25.1560 C.3   395  VAL395      0.0019
     66  CG2       41.1320  -22.0530   24.5110 C.3   395  VAL395      0.0019
     67  N         37.1150  -25.0720   23.3840 N.3   397  ASP397     -0.1239
     68  CA        37.3910  -26.4250   23.8690 C.3   397  ASP397      0.1674
     69  C         36.0980  -27.2050   23.9910 C.2   397  ASP397      0.2266
     70  O         35.1280  -26.7060   24.5200 O.2   397  ASP397     -0.2867
     71  CB        38.0910  -26.3360   25.2180 C.3   397  ASP397      0.1410
     72  CG        38.7530  -27.6460   25.6530 C.2   397  ASP397      0.3668
     73  OD1       38.6500  -28.6620   24.9310 O.co2 397  ASP397     -0.2456
     74  OD2       39.4000  -27.6430   26.7400 O.co2 397  ASP397     -0.2456
     75  N         36.2240  -18.5810   24.6290 N.3   411  LEU411     -0.1245
     76  CA        36.5280  -17.2190   25.0190 C.3   411  LEU411      0.1561
     77  C         37.2120  -16.5510   23.8240 C.2   411  LEU411      0.2260
     78  O         38.1580  -17.1380   23.2500 O.2   411  LEU411     -0.2867
     79  CB        37.4710  -17.2670   26.2210 C.3   411  LEU411      0.0270
     80  CG        38.0430  -15.9130   26.5950 C.3   411  LEU411      0.0019
     81  CD1       36.9670  -15.1090   27.2570 C.3   411  LEU411      0.0001
     82  CD2       39.2630  -16.0460   27.4880 C.3   411  LEU411      0.0001
@<TRIPOS>BOND
     1    55    54    2
     2    54    53    1
     3    52    53    1
     4    53    56    1
     5    60    61    1
     6    61    62    1
     7    61    64    1
     8    62    63    2
     9    59    57    1
    10    56    57    1
    11    78    77    2
    12    67    68    1
    13    45    44    2
    14    57    58    1
    15    77    76    1
    16    68    69    1
    17    68    71    1
    18    44    43    1
    19    69    70    2
    20    64    66    1
    21    64    65    1
    22     1     2    1
    23    75    76    1
    24    73    72   ar
    25    76    79    1
    26     7     9   ar
    27     7     6   ar
    28    71    72    1
    29     2     5    1
    30     2     3    1
    31    43    42    1
    32    43    46    1
    33     9    11   ar
    34    72    74   ar
    35     5     6    1
    36    46    47    1
    37     6     8   ar
    38     4     3    2
    39    79    80    1
    40    80    81    1
    41    80    82    1
    42    11    10   ar
    43     8    10   ar
    44    47    48   ar
    45    47    49   ar
    46    48    50   ar
    47    49    51   ar
    48    36    37    2
    49    36    35    1
    50    50    51   ar
    51    40    38    1
    52    35    38    1
    53    35    34    1
    54    12    13    1
    55    26    25    2
    56    38    39    1
    57    18    16    1
    58    25    34   am
    59    25    24    1
    60    17    16    1
    61    13    16    1
    62    13    14    1
    63    22    21    2
    64    39    41    1
    65    24    23    1
    66    24    27    1
    67    14    15    2
    68    14    19   am
    69    21    23   am
    70    21    20    1
    71    30    32   ar
    72    30    28   ar
    73    19    20    1
    74    27    28    1
    75    32    33   ar
    76    28    29   ar
    77    33    31   ar
    78    29    31   ar
