@<TRIPOS>MOLECULE
tmp/5fokA01.pdb
 111 105 0 0 0
SMALL
GASTEIGER

@<TRIPOS>ATOM
      1  N         47.2090  -30.3700   -7.8220 N.3   152  PHE152     -0.1241
      2  CA        46.9330  -29.0800   -8.4130 C.3   152  PHE152      0.1605
      3  C         45.4690  -29.0750   -8.7940 C.2   152  PHE152      0.2264
      4  O         44.9770  -30.0840   -9.2620 O.2   152  PHE152     -0.2867
      5  CB        47.7950  -28.9140   -9.6630 C.3   152  PHE152      0.0534
      6  CG        47.4330  -27.7410  -10.5610 C.ar  152  PHE152     -0.0203
      7  CD1       47.3590  -26.4550  -10.0780 C.ar  152  PHE152     -0.0042
      8  CD2       47.2900  -27.9310  -11.9350 C.ar  152  PHE152     -0.0042
      9  CE1       47.0590  -25.3850  -10.9170 C.ar  152  PHE152     -0.0003
     10  CE2       47.0090  -26.8700  -12.7820 C.ar  152  PHE152     -0.0003
     11  CZ        46.8900  -25.5890  -12.2720 C.ar  152  PHE152     -0.0000
     12  N         42.5730  -26.3930  -10.8450 N.3   154  LEU154     -0.1245
     13  CA        42.3260  -25.1290  -11.5430 C.3   154  LEU154      0.1561
     14  C         40.8440  -25.0140  -11.8530 C.2   154  LEU154      0.2260
     15  O         40.2530  -25.9220  -12.4300 O.2   154  LEU154     -0.2867
     16  CB        43.0840  -25.0750  -12.8600 C.3   154  LEU154      0.0270
     17  CG        42.8730  -23.8300  -13.7250 C.3   154  LEU154      0.0019
     18  CD1       43.3780  -22.5940  -12.9980 C.3   154  LEU154      0.0001
     19  CD2       43.6040  -23.9770  -15.0500 C.3   154  LEU154      0.0001
     20  N         38.0460  -22.4440  -13.7420 N.3   156  LEU156     -0.1245
     21  CA        37.8550  -21.3410  -14.6560 C.3   156  LEU156      0.1561
     22  C         36.3670  -21.1680  -14.8830 C.2   156  LEU156      0.2260
     23  O         35.6250  -22.1420  -14.8710 O.2   156  LEU156     -0.2867
     24  CB        38.5030  -21.6420  -16.0070 C.3   156  LEU156      0.0270
     25  CG        39.9980  -21.9810  -16.0270 C.3   156  LEU156      0.0019
     26  CD1       40.3900  -22.3450  -17.4550 C.3   156  LEU156      0.0001
     27  CD2       40.8140  -20.8050  -15.5520 C.3   156  LEU156      0.0001
     28  N         39.3160  -17.0540  -12.4840 N.3   176  VAL176     -0.1245
     29  CA        40.3700  -18.0460  -12.5650 C.3   176  VAL176      0.1561
     30  C         40.9330  -18.2850  -11.1560 C.2   176  VAL176      0.2260
     31  O         41.1090  -17.3610  -10.3890 O.2   176  VAL176     -0.2867
     32  CB        41.4800  -17.6260  -13.5450 C.3   176  VAL176      0.0252
     33  CG1       42.0080  -16.2410  -13.2410 C.3   176  VAL176      0.0019
     34  CG2       42.6480  -18.5940  -13.4820 C.3   176  VAL176      0.0019
     35  N         43.6680  -20.9590   -9.4680 N.3   178  PRO178     -0.2116
     36  CA        44.5670  -22.0930   -9.2860 C.3   178  PRO178      0.1372
     37  C         44.9450  -22.3310   -7.8200 C.2   178  PRO178      0.2244
     38  O         45.1360  -21.3680   -7.0560 O.2   178  PRO178     -0.2868
     39  CB        45.8050  -21.6720  -10.0690 C.3   178  PRO178      0.0268
     40  CG        45.8210  -20.1850   -9.9750 C.3   178  PRO178      0.0207
     41  CD        44.3970  -19.7220   -9.8160 C.3   178  PRO178      0.0892
     42  N         47.4130  -25.2050   -5.2880 N.3   180  VAL180     -0.1245
     43  CA        48.2930  -26.3560   -5.1590 C.3   180  VAL180      0.1561
     44  C         48.4210  -26.7070   -3.6880 C.2   180  VAL180      0.2260
     45  O         48.4630  -25.8320   -2.8170 O.2   180  VAL180     -0.2867
     46  CB        49.6880  -26.0430   -5.7270 C.3   180  VAL180      0.0252
     47  CG1       50.6800  -27.1670   -5.4390 C.3   180  VAL180      0.0019
     48  CG2       49.5830  -25.8180   -7.2220 C.3   180  VAL180      0.0019
     49  N         48.8100  -23.2510   -1.4860 N.3   192  LEU192     -0.1231
     50  CA        48.9550  -21.9420   -2.0970 C.3   192  LEU192      0.1693
     51  C         47.7720  -21.7870   -3.0230 C.2   192  LEU192      0.2593
     52  O         47.5370  -22.6410   -3.8520 O.2   192  LEU192     -0.2718
     53  CB        50.2200  -21.8720   -2.9310 C.3   192  LEU192      0.0284
     54  CG        51.5280  -21.7560   -2.1570 C.3   192  LEU192      0.0019
     55  CD1       51.6630  -22.9580   -1.2420 C.3   192  LEU192      0.0001
     56  CD2       52.7170  -21.6780   -3.1100 C.3   192  LEU192      0.0001
     57  N         47.0360  -20.6960   -2.8890 N.am  193  SER193     -0.1938
     58  CA        45.8610  -20.4720   -3.6800 C.3   193  SER193      0.2055
     59  C         45.8510  -19.0690   -4.2590 C.2   193  SER193      0.2643
     60  O         46.2850  -18.1030   -3.6100 O.2   193  SER193     -0.2714
     61  CB        44.6180  -20.6840   -2.8260 C.3   193  SER193      0.2130
     62  OG        44.5610  -22.0020   -2.3050 O.3   193  SER193     -0.2179
     63  N         45.3160  -18.9400   -5.4620 N.am  194  TYR194     -0.1973
     64  CA        45.0940  -17.6370   -6.0320 C.3   194  TYR194      0.1639
     65  C         43.6710  -17.5840   -6.5480 C.2   194  TYR194      0.2290
     66  O         43.1340  -18.5850   -7.0290 O.2   194  TYR194     -0.2864
     67  CB        46.0730  -17.3500   -7.1780 C.3   194  TYR194      0.0560
     68  CG        45.9970  -15.9210   -7.6520 C.ar  194  TYR194     -0.0198
     69  CD1       46.6430  -14.9240   -6.9420 C.ar  194  TYR194     -0.0009
     70  CD2       45.2260  -15.5470   -8.7470 C.ar  194  TYR194     -0.0009
     71  CE1       46.5780  -13.6120   -7.3270 C.ar  194  TYR194      0.0417
     72  CE2       45.1280  -14.1990   -9.1230 C.ar  194  TYR194      0.0417
     73  CZ        45.8070  -13.2480   -8.3940 C.ar  194  TYR194      0.1957
     74  OH        45.7840  -11.8960   -8.7300 O.3   194  TYR194     -0.2866
     75  N         45.4180  -13.9140   -2.7520 N.3   246  GLY246     -0.1210
     76  CA        46.4780  -14.9230   -2.6810 C.3   246  GLY246      0.1956
     77  C         46.6110  -15.4190   -1.2560 C.2   246  GLY246      0.2613
     78  O         46.6770  -14.6100   -0.3200 O.2   246  GLY246     -0.2717
     79  N         46.6230  -16.7370   -1.0810 N.am  247  THR247     -0.1938
     80  CA        46.6470  -17.3390    0.2450 C.3   247  THR247      0.2028
     81  C         47.7360  -18.4100    0.3840 C.2   247  THR247      0.2642
     82  O         47.9580  -19.2280   -0.5320 O.2   247  THR247     -0.2714
     83  CB        45.2840  -17.9680    0.5530 C.3   247  THR247      0.1808
     84  OG1       44.2590  -17.0060    0.2880 O.3   247  THR247     -0.2208
     85  CG2       45.1940  -18.4320    1.9980 C.3   247  THR247      0.0379
     86  N         48.4540  -18.3580    1.4960 N.am  248  PHE248     -0.1973
     87  CA        49.4220  -19.3500    1.8350 C.3   248  PHE248      0.1639
     88  C         49.1000  -19.8890    3.2160 C.2   248  PHE248      0.2290
     89  O         48.9950  -19.1240    4.1860 O.2   248  PHE248     -0.2864
     90  CB        50.8250  -18.7440    1.8260 C.3   248  PHE248      0.0560
     91  CG        51.8870  -19.6810    2.3210 C.ar  248  PHE248     -0.0200
     92  CD1       52.1400  -20.8600    1.6540 C.ar  248  PHE248     -0.0042
     93  CD2       52.6330  -19.3880    3.4460 C.ar  248  PHE248     -0.0042
     94  CE1       53.1090  -21.7350    2.0860 C.ar  248  PHE248     -0.0003
     95  CE2       53.5900  -20.2770    3.9090 C.ar  248  PHE248     -0.0003
     96  CZ        53.8400  -21.4470    3.2130 C.ar  248  PHE248     -0.0000
     97  N         48.1580  -16.8670    5.7730 N.3   264  THR264     -0.1218
     98  CA        48.2820  -15.4710    5.4080 C.3   264  THR264      0.1862
     99  C         47.6050  -15.2620    4.0850 C.2   264  THR264      0.2287
    100  O         47.7810  -16.0720    3.1570 O.2   264  THR264     -0.2866
    101  CB        49.7590  -15.0650    5.2240 C.3   264  THR264      0.1770
    102  OG1       50.5180  -15.4550    6.3560 O.3   264  THR264     -0.2211
    103  CG2       49.8730  -13.5530    5.0280 C.3   264  THR264      0.0375
    104  N         46.5870  -12.0880    1.1800 N.3   266  LEU266     -0.1245
    105  CA        46.6660  -10.7350    0.6770 C.3   266  LEU266      0.1561
    106  C         45.5550  -10.5610   -0.3480 C.2   266  LEU266      0.2260
    107  O         45.3150  -11.4660   -1.1620 O.2   266  LEU266     -0.2867
    108  CB        48.0110  -10.4930   -0.0200 C.3   266  LEU266      0.0270
    109  CG        49.2850  -10.8370    0.7210 C.3   266  LEU266      0.0019
    110  CD1       50.5150  -10.4930   -0.1310 C.3   266  LEU266      0.0001
    111  CD2       49.3220  -10.1240    2.0550 C.3   266  LEU266      0.0001
@<TRIPOS>BOND
     1    26    25    1
     2    25    24    1
     3    25    27    1
     4    24    21    1
     5    19    17    1
     6    22    23    2
     7    22    21    1
     8    21    20    1
     9    17    18    1
    10    17    16    1
    11    32    34    1
    12    32    33    1
    13    32    29    1
    14    16    13    1
    15    10    11   ar
    16    10     8   ar
    17    29    28    1
    18    29    30    1
    19    15    14    2
    20    11     9   ar
    21     8     6   ar
    22    14    13    1
    23    13    12    1
    24    30    31    2
    25     9     7   ar
    26     6     7   ar
    27     6     5    1
    28    39    40    1
    29    39    36    1
    30    40    41    1
    31    41    35    1
    32     5     2    1
    33    35    36    1
    34    36    37    1
    35     4     3    2
    36    72    70   ar
    37    72    73   ar
    38     3     2    1
    39    70    68   ar
    40    74    73    1
    41     2     1    1
    42    73    71   ar
    43    37    38    2
    44    68    67    1
    45    68    69   ar
    46    71    69   ar
    47    48    46    1
    48    67    64    1
    49    66    65    2
    50    65    64    1
    51    64    63    1
    52    46    47    1
    53    46    43    1
    54    63    59   am
    55    42    43    1
    56    43    44    1
    57    59    58    1
    58    59    60    2
    59    52    51    2
    60    44    45    2
    61    58    57    1
    62    58    61    1
    63    56    54    1
    64    51    57   am
    65    51    50    1
    66    53    54    1
    67    53    50    1
    68    61    62    1
    69    75    76    1
    70    76    77    1
    71    54    55    1
    72    50    49    1
    73    77    79   am
    74    77    78    2
    75   107   106    2
    76    79    80    1
    77    82    81    2
    78   106   105    1
    79   110   109    1
    80   108   105    1
    81   108   109    1
    82    80    81    1
    83    80    83    1
    84    84    83    1
    85    81    86   am
    86    83    85    1
    87   105   104    1
    88   109   111    1
    89    86    87    1
    90    92    94   ar
    91    92    91   ar
    92    90    87    1
    93    90    91    1
    94    87    88    1
    95    94    96   ar
    96    91    93   ar
    97   100    99    2
    98    96    95   ar
    99    88    89    2
   100    93    95   ar
   101    99    98    1
   102   103   101    1
   103   101    98    1
   104   101   102    1
   105    98    97    1
