@<TRIPOS>MOLECULE
tmp/5fomA00.pdb
 166 157 0 0 0
SMALL
GASTEIGER

@<TRIPOS>ATOM
      1  N         11.4300   -8.3690  -31.6480 N.3     3  GLN3       -0.1245
      2  CA        11.4720   -9.0080  -30.3410 C.3     3  GLN3        0.1566
      3  C         11.8130  -10.4880  -30.5270 C.2     3  GLN3        0.2260
      4  O         11.3640  -11.1230  -31.4750 O.2     3  GLN3       -0.2867
      5  CB        10.1170   -8.8880  -29.6420 C.3     3  GLN3        0.0367
      6  CG         9.3270   -7.6340  -29.9920 C.3     3  GLN3        0.0905
      7  CD         8.2630   -7.3440  -28.9650 C.2     3  GLN3        0.2608
      8  OE1        8.5660   -7.0970  -27.7980 O.2     3  GLN3       -0.2717
      9  NE2        7.0120   -7.3900  -29.3830 N.am    3  GLN3       -0.0878
     10  N         11.7930  -14.4210  -29.0750 N.3     5  TYR5       -0.1241
     11  CA        11.0070  -15.3710  -28.3160 C.3     5  TYR5        0.1605
     12  C         11.6390  -16.7570  -28.3890 C.2     5  TYR5        0.2264
     13  O         12.5540  -17.0250  -29.2070 O.2     5  TYR5       -0.2867
     14  CB         9.5890  -15.4420  -28.8890 C.3     5  TYR5        0.0534
     15  CG         8.8370  -14.1280  -28.8020 C.ar    5  TYR5       -0.0201
     16  CD1        8.2180  -13.7380  -27.6140 C.ar    5  TYR5       -0.0009
     17  CD2        8.7390  -13.2670  -29.9040 C.ar    5  TYR5       -0.0009
     18  CE1        7.5300  -12.5310  -27.5150 C.ar    5  TYR5        0.0417
     19  CE2        8.0490  -12.0540  -29.8110 C.ar    5  TYR5        0.0417
     20  CZ         7.4490  -11.6950  -28.6080 C.ar    5  TYR5        0.1957
     21  OH         6.7640  -10.5100  -28.4710 O.3     5  TYR5       -0.2866
     22  N          4.6510  -19.2760  -28.7670 N.3    33  ALA33      -0.1231
     23  CA         5.7120  -18.3100  -28.4670 C.3    33  ALA33       0.1694
     24  C          5.6570  -17.9680  -26.9760 C.2    33  ALA33       0.2593
     25  O          4.5680  -17.7810  -26.4190 O.2    33  ALA33      -0.2718
     26  CB         5.5570  -17.0510  -29.3190 C.3    33  ALA33       0.0304
     27  N          6.8170  -17.9480  -26.3250 N.am   34  THR34      -0.1939
     28  CA         6.9060  -17.5730  -24.9130 C.3    34  THR34       0.2028
     29  C          8.1020  -16.6750  -24.7050 C.2    34  THR34       0.2642
     30  O          9.1240  -16.8200  -25.3830 O.2    34  THR34      -0.2714
     31  CB         7.0300  -18.7760  -23.9710 C.3    34  THR34       0.1808
     32  OG1        6.9580  -18.3230  -22.6060 O.3    34  THR34      -0.2208
     33  CG2        8.3660  -19.5330  -24.1720 C.3    34  THR34       0.0379
     34  N          7.9640  -15.7580  -23.7610 N.am   35  LEU35      -0.1963
     35  CA         9.0980  -14.9850  -23.2650 C.3    35  LEU35       0.1728
     36  C          9.8050  -15.6980  -22.1160 C.2    35  LEU35       0.2616
     37  O         10.8430  -15.2080  -21.6680 O.2    35  LEU35      -0.2715
     38  CB         8.6190  -13.6240  -22.7380 C.3    35  LEU35       0.0311
     39  CG         8.2510  -12.5980  -23.7830 C.3    35  LEU35       0.0022
     40  CD1        7.4760  -11.4570  -23.1320 C.3    35  LEU35       0.0001
     41  CD2        9.4940  -12.0760  -24.4780 C.3    35  LEU35       0.0001
     42  N          9.2320  -16.8060  -21.6100 N.am   36  ARG36      -0.1977
     43  CA         9.6750  -17.4210  -20.3490 C.3    36  ARG36       0.1597
     44  C          9.9000  -18.9340  -20.4620 C.2    36  ARG36       0.2287
     45  O          9.0930  -19.7480  -19.9740 O.2    36  ARG36      -0.2864
     46  CB         8.6890  -17.0650  -19.2500 C.3    36  ARG36       0.0334
     47  CG         8.5730  -15.5420  -19.0790 C.3    36  ARG36       0.0492
     48  CD         7.9790  -15.1660  -17.7510 C.3    36  ARG36       0.2205
     49  NE         8.8250  -15.6050  -16.6540 N.pl3  36  ARG36      -0.0865
     50  CZ         8.4250  -15.7750  -15.3880 C.cat  36  ARG36       0.5346
     51  NH1        7.1650  -15.5580  -15.0070 N.pl3  36  ARG36       0.1354
     52  NH2        9.3140  -16.1970  -14.4960 N.pl3  36  ARG36       0.1354
     53  N         -8.6080  -19.6560  -24.7070 N.3   144  MET144     -0.1196
     54  CA        -8.2890  -18.3750  -24.0790 C.3   144  MET144      0.1786
     55  C         -8.7260  -17.2690  -25.0670 C.2   144  MET144      0.2306
     56  O         -8.2940  -17.2530  -26.2160 O.2   144  MET144     -0.2863
     57  CB        -6.7870  -18.2720  -23.7480 C.2   144  MET144      0.0070
     58  CG        -6.3240  -16.9100  -23.2380 C.2   144  MET144      0.0282
     59  SD        -4.5430  -16.6740  -22.9930 S.3   144  MET144     -0.1125
     60  CE        -4.4470  -17.0490  -21.2570 C.3   144  MET144      0.0742
     61  N         -8.4850  -13.8460  -24.6390 N.3   146  SER146     -0.1202
     62  CA        -7.5840  -12.7000  -24.7360 C.3   146  SER146      0.2020
     63  C         -6.4760  -12.8410  -25.8120 C.2   146  SER146      0.2619
     64  O         -5.7370  -11.8780  -26.0410 O.2   146  SER146     -0.2717
     65  CB        -6.9660  -12.4190  -23.3600 C.3   146  SER146      0.2103
     66  OG        -6.6490  -13.6420  -22.7110 O.3   146  SER146     -0.2182
     67  N         -6.3350  -14.0140  -26.4430 N.am  147  ILE147     -0.1965
     68  CA        -5.2670  -14.2510  -27.4530 C.3   147  ILE147      0.1727
     69  C         -5.4110  -13.3380  -28.6750 C.2   147  ILE147      0.2616
     70  O         -6.4640  -13.3380  -29.3010 O.2   147  ILE147     -0.2715
     71  CB        -5.2680  -15.7270  -27.9230 C.3   147  ILE147      0.0290
     72  CG1       -4.6270  -16.5960  -26.8450 C.3   147  ILE147      0.0022
     73  CG2       -4.4960  -15.9080  -29.2330 C.3   147  ILE147      0.0023
     74  CD1       -4.8770  -18.0810  -26.9910 C.3   147  ILE147      0.0001
     75  N         -4.3610  -12.5700  -28.9910 N.am  148  SER148     -0.1950
     76  CA        -4.2420  -11.8190  -30.2550 C.3   148  SER148      0.1924
     77  C         -3.6260  -12.6920  -31.3720 C.2   148  SER148      0.2314
     78  O         -2.5090  -13.2130  -31.2170 O.2   148  SER148     -0.2863
     79  CB        -3.3630  -10.5900  -30.0460 C.3   148  SER148      0.2116
     80  OG        -3.0630   -9.9470  -31.2720 O.3   148  SER148     -0.2180
     81  N         -0.0030  -11.5850  -32.7870 N.3   151  LYS151     -0.1231
     82  CA         1.2240  -11.7750  -32.0040 C.3   151  LYS151      0.1693
     83  C          1.6040  -13.2490  -31.9400 C.2   151  LYS151      0.2593
     84  O          0.7490  -14.1030  -31.8860 O.2   151  LYS151     -0.2718
     85  CB         1.0000  -11.3080  -30.5670 C.3   151  LYS151      0.0285
     86  CG         1.0060   -9.8030  -30.3650 C.3   151  LYS151      0.0035
     87  CD         1.3320   -9.4470  -28.9160 C.3   151  LYS151      0.0206
     88  CE         0.2850   -9.9590  -27.9190 C.3   151  LYS151      0.1093
     89  NZ         0.9050  -10.5830  -26.7180 N.3   151  LYS151     -0.1314
     90  N          2.8920  -13.5300  -31.8660 N.am  152  GLY152     -0.1942
     91  CA         3.3820  -14.9080  -31.7350 C.3   152  GLY152      0.2014
     92  C          2.7790  -15.8030  -32.7820 C.2   152  GLY152      0.2640
     93  O          2.6690  -15.4080  -33.9280 O.2   152  GLY152     -0.2714
     94  N          2.3550  -16.9920  -32.3730 N.am  153  THR153     -0.1936
     95  CA         1.7020  -17.9390  -33.2540 C.3   153  THR153      0.2028
     96  C          0.1900  -17.9840  -33.0860 C.2   153  THR153      0.2643
     97  O         -0.4660  -18.7930  -33.7470 O.2   153  THR153     -0.2714
     98  CB         2.1990  -19.3530  -32.9410 C.3   153  THR153      0.1808
     99  OG1        1.8580  -19.6860  -31.5830 O.3   153  THR153     -0.2208
    100  CG2        3.7340  -19.4390  -33.1600 C.3   153  THR153      0.0379
    101  N         -0.3460  -17.1710  -32.1680 N.am  154  GLY154     -0.1939
    102  CA        -1.7230  -17.3420  -31.7180 C.3   154  GLY154      0.2014
    103  C         -1.9560  -18.5310  -30.8110 C.2   154  GLY154      0.2639
    104  O         -3.1060  -18.8450  -30.4830 O.2   154  GLY154     -0.2714
    105  N         -0.8890  -19.2130  -30.3930 N.am  155  ILE155     -0.1963
    106  CA        -1.0150  -20.3300  -29.4590 C.3   155  ILE155      0.1727
    107  C         -0.0390  -20.0790  -28.3160 C.2   155  ILE155      0.2616
    108  O          1.0850  -19.6100  -28.5270 O.2   155  ILE155     -0.2715
    109  CB        -0.7950  -21.6820  -30.1380 C.3   155  ILE155      0.0290
    110  CG1       -1.5500  -21.7450  -31.4810 C.3   155  ILE155      0.0022
    111  CG2       -1.2410  -22.7920  -29.2260 C.3   155  ILE155      0.0023
    112  CD1       -1.4330  -23.0490  -32.2490 C.3   155  ILE155      0.0001
    113  N         -0.5070  -20.3430  -27.1020 N.am  156  VAL156     -0.1963
    114  CA         0.1430  -19.8660  -25.8980 C.3   156  VAL156      0.1727
    115  C          0.1860  -21.0200  -24.9180 C.2   156  VAL156      0.2616
    116  O         -0.7980  -21.7230  -24.7440 O.2   156  VAL156     -0.2715
    117  CB        -0.6140  -18.6560  -25.2780 C.3   156  VAL156      0.0290
    118  CG1        0.0780  -18.1650  -24.0200 C.3   156  VAL156      0.0023
    119  CG2       -0.7420  -17.5050  -26.2820 C.3   156  VAL156      0.0023
    120  N          1.3270  -21.2420  -24.2820 N.am  157  THR157     -0.1951
    121  CA         1.3590  -22.2580  -23.2320 C.3   157  THR157      0.1897
    122  C          0.9200  -21.6600  -21.9030 C.2   157  THR157      0.2313
    123  O          0.9670  -20.4200  -21.7080 O.2   157  THR157     -0.2863
    124  CB         2.6900  -23.0390  -23.1590 C.3   157  THR157      0.1794
    125  OG1        2.4640  -24.2850  -22.4290 O.3   157  THR157     -0.2208
    126  CG2        3.7980  -22.1830  -22.5670 C.3   157  THR157      0.0378
    127  N          1.9080  -16.7740  -14.3510 N.3   163  SER163     -0.1217
    128  CA         1.3530  -15.8890  -15.3770 C.3   163  SER163      0.1889
    129  C         -0.0480  -15.4390  -14.9550 C.2   163  SER163      0.2288
    130  O         -0.9520  -16.2740  -14.8530 O.2   163  SER163     -0.2866
    131  CB         1.2250  -16.5920  -16.7300 C.3   163  SER163      0.2089
    132  OG         0.4090  -15.8440  -17.6220 O.3   163  SER163     -0.2183
    133  N         -2.3510  -13.8280  -16.6940 N.3   165  ASP165     -0.1225
    134  CA        -3.2680  -14.2550  -17.7680 C.3   165  ASP165      0.1805
    135  C         -3.6580  -15.7000  -17.6530 C.2   165  ASP165      0.2597
    136  O         -4.8390  -16.0420  -17.7820 O.2   165  ASP165     -0.2718
    137  CB        -2.6340  -14.0930  -19.1520 C.3   165  ASP165      0.1424
    138  CG        -2.5270  -12.6650  -19.5900 C.2   165  ASP165      0.3668
    139  OD1       -3.2860  -11.8110  -19.0990 O.co2 165  ASP165     -0.2456
    140  OD2       -1.6730  -12.3970  -20.4580 O.co2 165  ASP165     -0.2456
    141  N         -2.6600  -16.5550  -17.4440 N.am  166  ASP166     -0.1974
    142  CA        -2.9040  -17.9990  -17.4170 C.3   166  ASP166      0.1709
    143  C         -3.7420  -18.3770  -16.1940 C.2   166  ASP166      0.2293
    144  O         -4.6910  -19.1740  -16.3000 O.2   166  ASP166     -0.2864
    145  CB        -1.5900  -18.7910  -17.4330 C.3   166  ASP166      0.1436
    146  CG        -0.7860  -18.5950  -18.7100 C.2   166  ASP166      0.3671
    147  OD1       -1.3400  -18.1570  -19.7440 O.co2 166  ASP166     -0.2456
    148  OD2        0.4160  -18.9160  -18.6940 O.co2 166  ASP166     -0.2456
    149  N          1.3190   -8.1720  -15.1390 N.3   229  LYS229     -0.1245
    150  CA         2.3070   -8.8150  -16.0100 C.3   229  LYS229      0.1561
    151  C          3.6520   -8.1120  -16.0330 C.2   229  LYS229      0.2260
    152  O          4.6880   -8.7810  -16.0590 O.2   229  LYS229     -0.2867
    153  CB         1.7880   -8.9410  -17.4520 C.3   229  LYS229      0.0271
    154  CG         0.7130  -10.0030  -17.6440 C.3   229  LYS229      0.0035
    155  CD         0.7970  -10.6670  -19.0080 C.3   229  LYS229      0.0206
    156  CE         0.4840   -9.7060  -20.1420 C.3   229  LYS229      0.1093
    157  NZ        -0.9190   -9.2280  -20.0720 N.3   229  LYS229     -0.1314
    158  N         10.0000  -11.8890  -34.1770 N.3   274  GLU274     -0.1245
    159  CA         9.0140  -11.1280  -34.9280 C.3   274  GLU274      0.1567
    160  C          8.9210   -9.6680  -34.4740 C.2   274  GLU274      0.2260
    161  O          8.1660   -8.9320  -35.0920 O.2   274  GLU274     -0.2867
    162  CB         7.6590  -11.7870  -34.8160 C.3   274  GLU274      0.0388
    163  CG         7.1340  -11.8510  -33.3980 C.3   274  GLU274      0.1160
    164  CD         5.7080  -12.3110  -33.3480 C.2   274  GLU274      0.3649
    165  OE1        5.2650  -13.0710  -34.2470 O.co2 274  GLU274     -0.2457
    166  OE2        5.0120  -11.9130  -32.3910 O.co2 274  GLU274     -0.2457
@<TRIPOS>BOND
     1   161   160    2
     2   159   162    1
     3   159   160    1
     4   159   158    1
     5   162   163    1
     6   165   164   ar
     7    93    92    2
     8    97    96    2
     9   163   164    1
    10   164   166   ar
    11    95    96    1
    12    95    98    1
    13    95    94    1
    14   100    98    1
    15    96   101   am
    16    98    99    1
    17    81    82    1
    18    92    94   am
    19    92    91    1
    20   112   110    1
    21   101   102    1
    22    82    83    1
    23    82    85    1
    24    83    84    2
    25    83    90   am
    26    90    91    1
    27   102   103    1
    28     1     2    1
    29   110   109    1
    30     4     3    2
    31    77    78    2
    32    77    76    1
    33    80    79    1
    34   103   104    2
    35   103   105   am
    36    85    86    1
    37     3     2    1
    38   105   106    1
    39    86    87    1
    40     2     5    1
    41    76    79    1
    42    76    75    1
    43   109   106    1
    44   109   111    1
    45     6     5    1
    46     6     7    1
    47    17    19   ar
    48    17    15   ar
    49    19    20   ar
    50   106   107    1
    51     9     7   am
    52    26    23    1
    53    70    69    2
    54    73    71    1
    55    13    12    2
    56    10    11    1
    57    75    69   am
    58     7     8    2
    59    87    88    1
    60    14    15    1
    61    14    11    1
    62    15    16   ar
    63    22    23    1
    64    69    68    1
    65    20    21    1
    66    20    18   ar
    67   108   107    2
    68    23    24    1
    69    12    11    1
    70   107   113   am
    71    71    68    1
    72    71    72    1
    73    88    89    1
    74    16    18   ar
    75    68    67    1
    76   113   114    1
    77    74    72    1
    78    24    25    2
    79    24    27   am
    80    67    63   am
    81    27    28    1
    82   119   117    1
    83    56    55    2
    84    64    63    2
    85   114   117    1
    86   114   115    1
    87    63    62    1
    88    30    29    2
    89   117   118    1
    90    55    54    1
    91   115   116    2
    92   115   120   am
    93    28    29    1
    94    28    31    1
    95    62    61    1
    96    62    65    1
    97    53    54    1
    98    29    34   am
    99    41    39    1
   100   120   121    1
   101    33    31    1
   102    54    57    1
   103    31    32    1
   104    39    40    1
   105    39    38    1
   106    34    35    1
   107    57    58    2
   108    65    66    1
   109    35    38    1
   110    35    36    1
   111    58    59    1
   112   121   124    1
   113   121   122    1
   114   124   126    1
   115   124   125    1
   116    59    60    1
   117    36    37    2
   118    36    42   am
   119   122   123    2
   120    42    43    1
   121    44    43    1
   122    44    45    2
   123   140   138   ar
   124    43    46    1
   125   156   157    1
   126   156   155    1
   127   147   146   ar
   128   138   137    1
   129   138   139   ar
   130    46    47    1
   131   137   134    1
   132    47    48    1
   133   155   154    1
   134   146   148   ar
   135   146   145    1
   136   136   135    2
   137   134   135    1
   138   134   133    1
   139    48    49    1
   140   135   141   am
   141   154   153    1
   142   132   131    1
   143   153   150    1
   144   141   142    1
   145   145   142    1
   146   142   143    1
   147   131   128    1
   148    49    50    2
   149   144   143    2
   150   152   151    2
   151   151   150    1
   152   150   149    1
   153    50    51    1
   154    50    52    1
   155   128   129    1
   156   128   127    1
   157   129   130    2
