@<TRIPOS>MOLECULE
tmp/5fooA00.pdb
 153 151 0 0 0
SMALL
GASTEIGER

@<TRIPOS>ATOM
      1  N         27.2230    3.7070    8.9840 N.3    18  GLN18      -0.1245
      2  CA        28.0190    2.5260    9.1750 C.3    18  GLN18       0.1566
      3  C         29.4880    2.7780    8.8590 C.2    18  GLN18       0.2260
      4  O         30.3250    1.9860    9.2660 O.2    18  GLN18      -0.2867
      5  CB        27.4890    1.4070    8.3360 C.3    18  GLN18       0.0367
      6  CG        26.0750    1.0350    8.7130 C.3    18  GLN18       0.0905
      7  CD        25.5060   -0.0380    7.8380 C.2    18  GLN18       0.2608
      8  OE1       24.8040    0.2490    6.8460 O.2    18  GLN18      -0.2717
      9  NE2       25.7410   -1.3060    8.2250 N.am   18  GLN18      -0.0878
     10  N         19.2260    5.7380    5.6420 N.3   119  HIS119     -0.1226
     11  CA        19.5950    4.3480    5.9080 C.3   119  HIS119      0.1752
     12  C         19.5210    4.1320    7.4390 C.2   119  HIS119      0.2596
     13  O         20.5410    4.2090    8.1600 O.2   119  HIS119     -0.2718
     14  CB        21.0260    4.0700    5.3350 C.3   119  HIS119      0.0759
     15  CG        21.3470    2.6290    5.2010 C.ar  119  HIS119      0.0818
     16  ND1       22.0020    2.1060    4.1090 N.ar  119  HIS119     -0.2268
     17  CD2       21.0680    1.5780    6.0110 C.ar  119  HIS119      0.1154
     18  CE1       22.1290    0.8010    4.2490 C.ar  119  HIS119      0.1986
     19  NE2       21.5760    0.4530    5.4040 N.ar  119  HIS119     -0.2212
     20  N         18.2810    3.9270    7.9030 N.am  120  PHE120     -0.1976
     21  CA        17.9320    3.6400    9.2890 C.3   120  PHE120      0.1639
     22  C         18.3650    4.7370   10.2560 C.2   120  PHE120      0.2290
     23  O         18.6700    4.4430   11.4420 O.2   120  PHE120     -0.2864
     24  CB        18.6030    2.3110    9.7520 C.3   120  PHE120      0.0560
     25  CG        18.4590    1.1340    8.8020 C.ar  120  PHE120     -0.0200
     26  CD1       17.4890    1.0500    7.8150 C.ar  120  PHE120     -0.0042
     27  CD2       19.3240    0.0590    8.9520 C.ar  120  PHE120     -0.0042
     28  CE1       17.3960   -0.0820    6.9660 C.ar  120  PHE120     -0.0003
     29  CE2       19.2480   -1.0670    8.1340 C.ar  120  PHE120     -0.0003
     30  CZ        18.2680   -1.1440    7.1440 C.ar  120  PHE120     -0.0000
     31  N         16.9780    3.2710    1.9130 N.3   164  ASN164     -0.1225
     32  CA        17.3480    1.8850    1.9150 C.3   164  ASN164      0.1785
     33  C         16.3380    1.0850    2.7300 C.2   164  ASN164      0.2597
     34  O         16.1540    1.3470    3.9260 O.2   164  ASN164     -0.2718
     35  CB        18.7210    1.7210    2.5450 C.3   164  ASN164      0.1169
     36  CG        19.1290    0.2690    2.6390 C.2   164  ASN164      0.2627
     37  OD1       19.6400   -0.3110    1.6770 O.2   164  ASN164     -0.2716
     38  ND2       18.8940   -0.3290    3.7930 N.am  164  ASN164     -0.0877
     39  N         15.7070    0.1330    2.0890 N.am  165  GLU165     -0.1979
     40  CA        14.8300   -0.8620    2.7240 C.3   165  GLU165      0.1602
     41  C         13.8900   -0.3010    3.7800 C.2   165  GLU165      0.2287
     42  O         14.0250   -0.5770    5.0020 O.2   165  GLU165     -0.2864
     43  CB        15.6330   -2.0240    3.2940 C.3   165  GLU165      0.0415
     44  CG        16.4840   -2.7720    2.3110 C.3   165  GLU165      0.1163
     45  CD        17.5520   -3.6810    3.0230 C.2   165  GLU165      0.3649
     46  OE1       18.4640   -3.2510    3.8700 O.co2 165  GLU165     -0.2457
     47  OE2       17.4920   -4.8590    2.6810 O.co2 165  GLU165     -0.2457
     48  N         20.5710  -10.6250    0.0180 N.3   299  TYR299     -0.1241
     49  CA        21.6910  -11.2550    0.7600 C.3   299  TYR299      0.1605
     50  C         21.2960  -12.5100    1.5790 C.2   299  TYR299      0.2264
     51  O         22.1740  -13.2210    2.0290 O.2   299  TYR299     -0.2867
     52  CB        22.3820  -10.2210    1.6600 C.3   299  TYR299      0.0534
     53  CG        21.4010   -9.4010    2.4220 C.ar  299  TYR299     -0.0201
     54  CD1       20.8240   -8.2730    1.8410 C.ar  299  TYR299     -0.0009
     55  CD2       20.9810   -9.7680    3.7150 C.ar  299  TYR299     -0.0009
     56  CE1       19.8660   -7.5230    2.5230 C.ar  299  TYR299      0.0417
     57  CE2       20.0280   -9.0040    4.3840 C.ar  299  TYR299      0.0417
     58  CZ        19.4760   -7.9010    3.7780 C.ar  299  TYR299      0.1957
     59  OH        18.5530   -7.1070    4.4000 O.3   299  TYR299     -0.2866
     60  N         26.4200  -16.8350   10.6020 N.3   337  LYS337     -0.1245
     61  CA        25.3270  -15.9270   10.5260 C.3   337  LYS337      0.1561
     62  C         23.9450  -16.5770   10.7630 C.2   337  LYS337      0.2260
     63  O         22.9650  -15.8750   11.0010 O.2   337  LYS337     -0.2867
     64  CB        25.4610  -15.3050    9.1100 C.3   337  LYS337      0.0271
     65  CG        24.7150  -14.0340    8.8730 C.3   337  LYS337      0.0035
     66  CD        25.1830  -12.8070    9.6460 C.3   337  LYS337      0.0206
     67  CE        23.9770  -11.8980    9.5720 C.3   337  LYS337      0.1093
     68  NZ        23.8860  -10.8070   10.5640 N.3   337  LYS337     -0.1314
     69  N         22.3160  -17.9650    8.2820 N.3   339  TRP339     -0.1241
     70  CA        21.5560  -17.6620    7.0820 C.3   339  TRP339      0.1605
     71  C         21.7300  -18.6930    5.9960 C.2   339  TRP339      0.2264
     72  O         22.8590  -19.1040    5.6710 O.2   339  TRP339     -0.2867
     73  CB        21.9810  -16.3060    6.5140 C.3   339  TRP339      0.0550
     74  CG        21.4490  -15.1180    7.2710 C.ar  339  TRP339      0.0003
     75  CD1       20.6150  -15.1410    8.3360 C.ar  339  TRP339      0.0946
     76  CD2       21.7320  -13.7290    7.0190 C.ar  339  TRP339      0.0152
     77  NE1       20.3540  -13.8660    8.7540 N.ar  339  TRP339     -0.2442
     78  CE2       21.0100  -12.9810    7.9510 C.ar  339  TRP339      0.0810
     79  CE3       22.5250  -13.0490    6.0850 C.ar  339  TRP339      0.0012
     80  CZ2       21.0690  -11.5740    8.0020 C.ar  339  TRP339      0.0191
     81  CZ3       22.5720  -11.7020    6.1250 C.ar  339  TRP339      0.0001
     82  CH2       21.8390  -10.9620    7.0780 C.ar  339  TRP339      0.0015
     83  N         22.8640   -4.4410   -3.0890 N.3   366  GLU366     -0.1196
     84  CA        23.5330   -4.8790   -1.8650 C.3   366  GLU366      0.1783
     85  C         23.5820   -6.4090   -1.8980 C.2   366  GLU366      0.2306
     86  O         22.5820   -7.0570   -1.7820 O.2   366  GLU366     -0.2863
     87  CB        22.7280   -4.4050   -0.6310 C.2   366  GLU366      0.0071
     88  CG        23.2320   -4.8690    0.7320 C.2   366  GLU366      0.0834
     89  CD        22.2370   -4.7570    1.8830 C.2   366  GLU366      0.3877
     90  OE1       21.0220   -4.7360    1.6850 O.co2 366  GLU366     -0.2406
     91  OE2       22.7640   -4.7100    3.1220 O.co2 366  GLU366     -0.2406
     92  N         27.9810   -5.5280   -0.9200 N.3   416  TRP416     -0.1241
     93  CA        28.0230   -5.1310    0.4750 C.3   416  TRP416      0.1605
     94  C         29.1890   -5.8110    1.2300 C.2   416  TRP416      0.2264
     95  O         29.1500   -7.0520    1.3270 O.2   416  TRP416     -0.2867
     96  CB        26.7160   -5.4010    1.1950 C.3   416  TRP416      0.0550
     97  CG        26.7700   -4.7220    2.5280 C.ar  416  TRP416      0.0003
     98  CD1       27.2890   -5.2190    3.7220 C.ar  416  TRP416      0.0946
     99  CD2       26.3540   -3.4380    2.7770 C.ar  416  TRP416      0.0152
    100  NE1       27.2340   -4.2530    4.6920 N.ar  416  TRP416     -0.2442
    101  CE2       26.6280   -3.1590    4.1540 C.ar  416  TRP416      0.0810
    102  CE3       25.7240   -2.4710    1.9960 C.ar  416  TRP416      0.0012
    103  CZ2       26.3280   -1.9490    4.7230 C.ar  416  TRP416      0.0191
    104  CZ3       25.4110   -1.2650    2.5640 C.ar  416  TRP416      0.0001
    105  CH2       25.6870   -1.0050    3.9110 C.ar  416  TRP416      0.0015
    106  N         27.9470   -2.8820   11.5190 N.3   423  SER423     -0.1202
    107  CA        26.5810   -3.3520   11.2190 C.3   423  SER423      0.2020
    108  C         25.6140   -3.3040   12.4430 C.2   423  SER423      0.2618
    109  O         25.1260   -4.3330   12.9070 O.2   423  SER423     -0.2717
    110  CB        26.4430   -4.7660   10.5280 C.3   423  SER423      0.2103
    111  OG        27.4920   -5.3830    9.7230 O.3   423  SER423     -0.2182
    112  N         25.3270   -2.1250   12.9340 N.am  424  TRP424     -0.1975
    113  CA        24.1920   -1.9250   13.7820 C.3   424  TRP424      0.1640
    114  C         24.4800   -2.7300   15.1170 C.2   424  TRP424      0.2290
    115  O         25.6410   -2.7370   15.6180 O.2   424  TRP424     -0.2864
    116  CB        22.9140   -2.3700   13.0190 C.3   424  TRP424      0.0576
    117  CG        22.8540   -1.8170   11.5960 C.ar  424  TRP424      0.0006
    118  CD1       22.8460   -2.5310   10.4410 C.ar  424  TRP424      0.0946
    119  CD2       22.7750   -0.4200   11.2040 C.ar  424  TRP424      0.0152
    120  NE1       22.7270   -1.6880    9.3600 N.ar  424  TRP424     -0.2442
    121  CE2       22.6990   -0.3910    9.7930 C.ar  424  TRP424      0.0810
    122  CE3       22.7860    0.7830   11.9010 C.ar  424  TRP424      0.0012
    123  CZ2       22.6740    0.8030    9.0710 C.ar  424  TRP424      0.0191
    124  CZ3       22.7290    2.0050   11.1780 C.ar  424  TRP424      0.0001
    125  CH2       22.6800    1.9940    9.7750 C.ar  424  TRP424      0.0015
    126  N         25.1250   -5.7830   15.5490 N.3   426  ASN426     -0.1240
    127  CA        26.2910   -6.6510   15.4170 C.3   426  ASN426      0.1653
    128  C         27.6250   -6.0000   15.2260 C.2   426  ASN426      0.2266
    129  O         28.6770   -6.7070   15.1450 O.2   426  ASN426     -0.2867
    130  CB        26.0400   -7.6500   14.3050 C.3   426  ASN426      0.1155
    131  CG        24.7930   -8.4240   14.5510 C.2   426  ASN426      0.2627
    132  OD1       23.8020   -8.2600   13.8850 O.2   426  ASN426     -0.2716
    133  ND2       24.8160   -9.2010   15.5760 N.am  426  ASN426     -0.0877
    134  N         30.5880   -9.6200   12.3590 N.3   430  ASN430     -0.1240
    135  CA        30.7070  -10.2440   11.0620 C.3   430  ASN430      0.1653
    136  C         31.1860   -9.2070   10.0340 C.2   430  ASN430      0.2266
    137  O         30.6350   -8.1150    9.9730 O.2   430  ASN430     -0.2867
    138  CB        29.3790  -10.8120   10.6060 C.3   430  ASN430      0.1155
    139  CG        28.7360  -11.7320   11.6390 C.2   430  ASN430      0.2627
    140  OD1       27.6690  -11.4110   12.2070 O.2   430  ASN430     -0.2716
    141  ND2       29.3320  -12.8640   11.8470 N.am  430  ASN430     -0.0877
    142  N         31.9930   -8.0770    6.2120 N.3   432  TYR432     -0.1241
    143  CA        31.5180   -8.1870    4.8170 C.3   432  TYR432      0.1605
    144  C         32.4810   -7.6000    3.7390 C.2   432  TYR432      0.2264
    145  O         32.2180   -7.7050    2.5740 O.2   432  TYR432     -0.2867
    146  CB        30.1730   -7.4370    4.6740 C.3   432  TYR432      0.0534
    147  CG        28.9420   -8.1330    5.2420 C.ar  432  TYR432     -0.0201
    148  CD1       28.5930   -8.0370    6.5920 C.ar  432  TYR432     -0.0009
    149  CD2       28.1010   -8.8630    4.4120 C.ar  432  TYR432     -0.0009
    150  CE1       27.4450   -8.6620    7.1010 C.ar  432  TYR432      0.0417
    151  CE2       26.9500   -9.4840    4.9020 C.ar  432  TYR432      0.0417
    152  CZ        26.6210   -9.3920    6.2570 C.ar  432  TYR432      0.1957
    153  OH        25.4690  -10.0460    6.6930 O.3   432  TYR432     -0.2866
@<TRIPOS>BOND
     1    83    84    1
     2    85    84    1
     3    85    86    2
     4    84    87    1
     5    92    93    1
     6    87    88    2
     7    48    49    1
     8    93    96    1
     9    93    94    1
    10    88    89    1
    11    49    50    1
    12    49    52    1
    13    96    97    1
    14    94    95    2
    15    50    51    2
    16    52    53    1
    17    37    36    2
    18    90    89   ar
    19    54    53   ar
    20    54    56   ar
    21    89    91   ar
    22    31    32    1
    23    32    35    1
    24    32    33    1
    25   102   104   ar
    26   102    99   ar
    27    39    40    1
    28    39    33   am
    29    44    45    1
    30    44    43    1
    31    53    55   ar
    32    56    58   ar
    33    97    99   ar
    34    97    98   ar
    35    35    36    1
    36   104   105   ar
    37   145   144    2
    38    36    38   am
    39    47    45   ar
    40    40    43    1
    41    40    41    1
    42    33    34    2
    43    99   101   ar
    44    45    46   ar
    45    55    57   ar
    46    98   100   ar
    47   144   143    1
    48    58    57   ar
    49    58    59    1
    50    41    42    2
    51   105   103   ar
    52    16    18   ar
    53    16    15   ar
    54   101   100   ar
    55   101   103   ar
    56    18    19   ar
    57   149   151   ar
    58   149   147   ar
    59   146   143    1
    60   146   147    1
    61   143   142    1
    62   151   152   ar
    63    15    14    1
    64    15    17   ar
    65   147   148   ar
    66    14    11    1
    67    19    17   ar
    68    10    11    1
    69    72    71    2
    70    11    12    1
    71    71    70    1
    72    79    81   ar
    73    79    76   ar
    74    81    82   ar
    75   152   153    1
    76   152   150   ar
    77    73    70    1
    78    73    74    1
    79   148   150   ar
    80     8     7    2
    81    28    30   ar
    82    28    26   ar
    83    76    74   ar
    84    76    78   ar
    85    82    80   ar
    86    70    69    1
    87    30    29   ar
    88    74    75   ar
    89    12    20   am
    90    12    13    2
    91    26    25   ar
    92     7     9   am
    93     7     6    1
    94    20    21    1
    95    78    80   ar
    96    78    77   ar
    97    29    27   ar
    98     5     6    1
    99     5     2    1
   100    75    77   ar
   101    25    27   ar
   102    25    24    1
   103     3     2    1
   104     3     4    2
   105    65    64    1
   106    65    66    1
   107     1     2    1
   108   123   125   ar
   109   123   121   ar
   110    64    61    1
   111    21    24    1
   112    21    22    1
   113   120   121   ar
   114   120   118   ar
   115    67    66    1
   116    67    68    1
   117   111   110    1
   118   125   124   ar
   119   121   119   ar
   120   137   136    2
   121   136   135    1
   122    22    23    2
   123   118   117   ar
   124    61    60    1
   125    61    62    1
   126   110   107    1
   127   138   135    1
   128   138   139    1
   129    62    63    2
   130   135   134    1
   131   124   122   ar
   132   119   117   ar
   133   119   122   ar
   134   107   106    1
   135   107   108    1
   136   117   116    1
   137   139   141   am
   138   139   140    2
   139   108   109    2
   140   108   112   am
   141   112   113    1
   142   116   113    1
   143   113   114    1
   144   132   131    2
   145   130   131    1
   146   130   127    1
   147   131   133   am
   148   114   115    2
   149   129   128    2
   150   128   127    1
   151   127   126    1
