@<TRIPOS>MOLECULE
tmp/5foqB01.pdb
 222 219 0 0 0
SMALL
GASTEIGER

@<TRIPOS>ATOM
      1  N         11.4430   -9.6590  -46.5800 N.3    69  TYR69      -0.1241
      2  CA        11.2020  -10.7240  -45.6110 C.3    69  TYR69       0.1605
      3  C          9.7480  -10.7030  -45.1330 C.2    69  TYR69       0.2264
      4  O          9.1420   -9.6380  -44.9870 O.2    69  TYR69      -0.2867
      5  CB        12.1680  -10.5740  -44.4240 C.3    69  TYR69       0.0534
      6  CG        12.0140  -11.6310  -43.3490 C.ar   69  TYR69      -0.0201
      7  CD1       12.6350  -12.8700  -43.4670 C.ar   69  TYR69      -0.0009
      8  CD2       11.2460  -11.3850  -42.2110 C.ar   69  TYR69      -0.0009
      9  CE1       12.4910  -13.8400  -42.4860 C.ar   69  TYR69       0.0417
     10  CE2       11.1010  -12.3430  -41.2160 C.ar   69  TYR69       0.0417
     11  CZ        11.7250  -13.5670  -41.3550 C.ar   69  TYR69       0.1957
     12  OH        11.5780  -14.5240  -40.3670 O.3    69  TYR69      -0.2866
     13  N          7.0780  -12.0090  -42.1420 N.3    71  ASP71      -0.1225
     14  CA         6.9960  -12.4510  -40.7400 C.3    71  ASP71       0.1805
     15  C          6.2930  -13.7930  -40.5500 C.2    71  ASP71       0.2598
     16  O          5.2450  -14.0350  -41.1430 O.2    71  ASP71      -0.2718
     17  CB         6.2630  -11.3990  -39.9110 C.3    71  ASP71       0.1424
     18  CG         6.3500  -11.6670  -38.4200 C.2    71  ASP71       0.3668
     19  OD1        5.5260  -12.4430  -37.8770 O.co2  71  ASP71      -0.2456
     20  OD2        7.2560  -11.0880  -37.7950 O.co2  71  ASP71      -0.2456
     21  N          6.8540  -14.6540  -39.7020 N.am   72  THR72      -0.1939
     22  CA         6.2740  -15.9760  -39.4710 C.3    72  THR72       0.2028
     23  C          6.1840  -16.3470  -37.9910 C.2    72  THR72       0.2642
     24  O          6.0070  -17.5150  -37.6460 O.2    72  THR72      -0.2714
     25  CB         7.0580  -17.0740  -40.2250 C.3    72  THR72       0.1808
     26  OG1        8.4620  -16.9190  -39.9780 O.3    72  THR72      -0.2208
     27  CG2        6.7950  -16.9810  -41.7310 C.3    72  THR72       0.0379
     28  N          6.2890  -15.3470  -37.1250 N.am   73  LEU73      -0.1977
     29  CA         6.3150  -15.5830  -35.6870 C.3    73  LEU73       0.1596
     30  C          5.0340  -16.2460  -35.1940 C.2    73  LEU73       0.2287
     31  O          5.0750  -17.2460  -34.4680 O.2    73  LEU73      -0.2864
     32  CB         6.5590  -14.2780  -34.9310 C.3    73  LEU73       0.0297
     33  CG         6.6410  -14.4330  -33.4080 C.3    73  LEU73       0.0022
     34  CD1        7.7560  -15.3970  -33.0100 C.3    73  LEU73       0.0001
     35  CD2        6.8360  -13.0800  -32.7530 C.3    73  LEU73       0.0001
     36  N         -0.1160  -10.0330  -36.3730 N.3    80  THR80      -0.1218
     37  CA         1.1250   -9.9880  -37.1350 C.3    80  THR80       0.1862
     38  C          0.8490   -9.9090  -38.6370 C.2    80  THR80       0.2287
     39  O          1.5210   -9.1730  -39.3600 O.2    80  THR80      -0.2866
     40  CB         2.0240  -11.2040  -36.8510 C.3    80  THR80       0.1770
     41  OG1        1.2350  -12.3990  -36.8640 O.3    80  THR80      -0.2211
     42  CG2        2.6960  -11.0670  -35.5090 C.3    80  THR80       0.0375
     43  N          0.5080   -6.7440  -41.0460 N.3    83  TRP83      -0.1241
     44  CA         1.6930   -6.0240  -41.5160 C.3    83  TRP83       0.1605
     45  C          2.3540   -6.7190  -42.7110 C.2    83  TRP83       0.2264
     46  O          3.2430   -6.1730  -43.3410 O.2    83  TRP83      -0.2867
     47  CB         2.6990   -5.8510  -40.3720 C.3    83  TRP83       0.0550
     48  CG         2.0600   -5.1910  -39.1810 C.ar   83  TRP83       0.0003
     49  CD1        1.7760   -5.7600  -37.9710 C.ar   83  TRP83       0.0946
     50  CD2        1.5720   -3.8470  -39.1160 C.ar   83  TRP83       0.0152
     51  NE1        1.1600   -4.8440  -37.1540 N.ar   83  TRP83      -0.2442
     52  CE2        1.0260   -3.6610  -37.8330 C.ar   83  TRP83       0.0810
     53  CE3        1.5600   -2.7780  -40.0150 C.ar   83  TRP83       0.0012
     54  CZ2        0.4770   -2.4460  -37.4280 C.ar   83  TRP83       0.0191
     55  CZ3        1.0070   -1.5820  -39.6210 C.ar   83  TRP83       0.0001
     56  CH2        0.4730   -1.4210  -38.3390 C.ar   83  TRP83       0.0015
     57  N          6.3700    2.4510  -42.6070 N.3   117  GLY117     -0.1210
     58  CA         7.4760    1.8710  -41.8640 C.3   117  GLY117      0.1956
     59  C          7.5820    0.3720  -42.1010 C.2   117  GLY117      0.2612
     60  O          7.1060   -0.1350  -43.1310 O.2   117  GLY117     -0.2717
     61  N          8.1830   -0.3380  -41.1490 N.am  118  GLY118     -0.1956
     62  CA         8.6220   -1.7120  -41.3680 C.3   118  GLY118      0.1869
     63  C         10.1320   -1.9420  -41.2710 C.2   118  GLY118      0.2309
     64  O         10.6710   -2.8110  -41.9570 O.2   118  GLY118     -0.2863
     65  N         13.0210   -2.9460  -43.7780 N.3   121  TYR121     -0.1227
     66  CA        13.1510   -4.2980  -44.3240 C.3   121  TYR121      0.1736
     67  C         11.8360   -4.8240  -44.9010 C.2   121  TYR121      0.2596
     68  O         11.8120   -5.8740  -45.5360 O.2   121  TYR121     -0.2718
     69  CB        13.7150   -5.2890  -43.2930 C.3   121  TYR121      0.0548
     70  CG        12.7240   -5.7500  -42.2460 C.ar  121  TYR121     -0.0200
     71  CD1       11.9140   -6.8620  -42.4590 C.ar  121  TYR121     -0.0009
     72  CD2       12.6150   -5.0800  -41.0240 C.ar  121  TYR121     -0.0009
     73  CE1       11.0090   -7.2800  -41.4910 C.ar  121  TYR121      0.0417
     74  CE2       11.7070   -5.4870  -40.0470 C.ar  121  TYR121      0.0417
     75  CZ        10.9080   -6.5830  -40.2930 C.ar  121  TYR121      0.1957
     76  OH        10.0140   -7.0040  -39.3380 O.3   121  TYR121     -0.2866
     77  N         10.7520   -4.0900  -44.6860 N.am  122  SER122     -0.1938
     78  CA         9.4390   -4.5790  -45.0650 C.3   122  SER122      0.2055
     79  C          8.4450   -3.4400  -45.1920 C.2   122  SER122      0.2643
     80  O          8.8010   -2.2830  -44.9960 O.2   122  SER122     -0.2714
     81  CB         8.9310   -5.5520  -44.0090 C.3   122  SER122      0.2130
     82  OG         8.8660   -4.8970  -42.7440 O.3   122  SER122     -0.2179
     83  N          7.2010   -3.7720  -45.5290 N.am  123  GLY123     -0.1954
     84  CA         6.1410   -2.7860  -45.6210 C.3   123  GLY123      0.1869
     85  C          5.6100   -2.6300  -47.0320 C.2   123  GLY123      0.2309
     86  O          6.2610   -3.0510  -47.9920 O.2   123  GLY123     -0.2863
     87  N         -1.2880   -1.8810  -47.6310 N.3   127  LEU127     -0.1245
     88  CA        -1.8860   -2.4250  -46.4120 C.3   127  LEU127      0.1561
     89  C         -3.2010   -1.7120  -46.1140 C.2   127  LEU127      0.2260
     90  O         -3.3330   -0.5180  -46.3820 O.2   127  LEU127     -0.2867
     91  CB        -0.9270   -2.3050  -45.2270 C.3   127  LEU127      0.0270
     92  CG         0.4400   -2.9820  -45.3770 C.3   127  LEU127      0.0019
     93  CD1        1.2540   -2.8440  -44.0810 C.3   127  LEU127      0.0001
     94  CD2        0.2960   -4.4440  -45.7930 C.3   127  LEU127      0.0001
     95  N         -3.3910    1.7290  -44.3540 N.3   130  TYR130     -0.1241
     96  CA        -2.8970    2.9060  -45.0800 C.3   130  TYR130      0.1605
     97  C         -3.9070    3.4040  -46.1050 C.2   130  TYR130      0.2264
     98  O         -3.6140    4.2870  -46.9050 O.2   130  TYR130     -0.2867
     99  CB        -1.5510    2.6240  -45.7590 C.3   130  TYR130      0.0534
    100  CG        -0.4780    2.0840  -44.8250 C.ar  130  TYR130     -0.0201
    101  CD1       -0.4660    2.4170  -43.4660 C.ar  130  TYR130     -0.0009
    102  CD2        0.5090    1.2310  -45.2990 C.ar  130  TYR130     -0.0009
    103  CE1        0.5180    1.9140  -42.6160 C.ar  130  TYR130      0.0417
    104  CE2        1.4820    0.7240  -44.4690 C.ar  130  TYR130      0.0417
    105  CZ         1.4940    1.0740  -43.1260 C.ar  130  TYR130      0.1957
    106  OH         2.4690    0.5600  -42.3110 O.3   130  TYR130     -0.2866
    107  N          5.3860    6.5320  -40.2800 N.3   199  GLU199     -0.1231
    108  CA         5.4920    5.9310  -38.9500 C.3   199  GLU199      0.1699
    109  C          6.6650    4.9460  -38.8820 C.2   199  GLU199      0.2592
    110  O          7.0030    4.3020  -39.8830 O.2   199  GLU199     -0.2718
    111  CB         4.1700    5.2710  -38.5670 C.3   199  GLU199      0.0402
    112  CG         4.1180    4.6940  -37.1740 C.3   199  GLU199      0.1161
    113  CD         4.6130    3.2760  -37.1400 C.2   199  GLU199      0.3649
    114  OE1        4.9390    2.7520  -38.2270 O.co2 199  GLU199     -0.2457
    115  OE2        4.6900    2.6900  -36.0330 O.co2 199  GLU199     -0.2457
    116  N          7.2970    4.8620  -37.7090 N.am  200  SER200     -0.1952
    117  CA         8.5060    4.0640  -37.5140 C.3   200  SER200      0.1924
    118  C          9.5720    4.3790  -38.5880 C.2   200  SER200      0.2314
    119  O          9.9890    5.5350  -38.7240 O.2   200  SER200     -0.2863
    120  CB         8.1570    2.5780  -37.4910 C.3   200  SER200      0.2116
    121  OG         9.1220    1.8370  -36.7630 O.3   200  SER200     -0.2180
    122  N         18.7370  -11.6420  -41.8190 N.3   276  TRP276     -0.1241
    123  CA        18.8490  -11.5320  -40.3710 C.3   276  TRP276      0.1605
    124  C         20.1700  -12.0770  -39.8400 C.2   276  TRP276      0.2264
    125  O         20.4730  -11.9510  -38.6550 O.2   276  TRP276     -0.2867
    126  CB        17.6530  -12.2060  -39.6900 C.3   276  TRP276      0.0550
    127  CG        16.3680  -11.4810  -39.9650 C.ar  276  TRP276      0.0003
    128  CD1       15.3750  -11.8570  -40.8220 C.ar  276  TRP276      0.0946
    129  CD2       15.9580  -10.2300  -39.3980 C.ar  276  TRP276      0.0152
    130  NE1       14.3680  -10.9230  -40.8100 N.ar  276  TRP276     -0.2442
    131  CE2       14.7030   -9.9160  -39.9430 C.ar  276  TRP276      0.0810
    132  CE3       16.5280   -9.3520  -38.4650 C.ar  276  TRP276      0.0012
    133  CZ2       14.0130   -8.7610  -39.6010 C.ar  276  TRP276      0.0191
    134  CZ3       15.8410   -8.2030  -38.1280 C.ar  276  TRP276      0.0001
    135  CH2       14.5950   -7.9200  -38.6920 C.ar  276  TRP276      0.0015
    136  N         16.9800   -6.9140  -30.6240 N.3   284  ILE284     -0.1231
    137  CA        15.6580   -6.6280  -31.1510 C.3   284  ILE284      0.1692
    138  C         15.6680   -5.1470  -31.5220 C.2   284  ILE284      0.2592
    139  O         16.5510   -4.4070  -31.0820 O.2   284  ILE284     -0.2718
    140  CB        14.5400   -6.9300  -30.1380 C.3   284  ILE284      0.0266
    141  CG1       14.8050   -6.2190  -28.8100 C.3   284  ILE284      0.0019
    142  CG2       14.3840   -8.4480  -29.9190 C.3   284  ILE284      0.0020
    143  CD1       13.6970   -6.3950  -27.8170 C.3   284  ILE284      0.0001
    144  N         14.7020   -4.7250  -32.3400 N.am  285  PHE285     -0.1976
    145  CA        14.6500   -3.3560  -32.8320 C.3   285  PHE285      0.1639
    146  C         15.9830   -2.9910  -33.4810 C.2   285  PHE285      0.2290
    147  O         16.4990   -1.8830  -33.3210 O.2   285  PHE285     -0.2864
    148  CB        14.3060   -2.3930  -31.6960 C.3   285  PHE285      0.0560
    149  CG        13.4090   -1.2450  -32.1090 C.ar  285  PHE285     -0.0200
    150  CD1       13.6440   -0.5560  -33.2780 C.ar  285  PHE285     -0.0042
    151  CD2       12.3040   -0.8840  -31.3450 C.ar  285  PHE285     -0.0042
    152  CE1       12.8380    0.4990  -33.6500 C.ar  285  PHE285     -0.0003
    153  CE2       11.4850    0.1700  -31.7300 C.ar  285  PHE285     -0.0003
    154  CZ        11.7660    0.8660  -32.8850 C.ar  285  PHE285     -0.0000
    155  N         17.9200   -3.5790  -37.4110 N.3   287  PHE287     -0.1241
    156  CA        17.6210   -4.0440  -38.7740 C.3   287  PHE287      0.1605
    157  C         18.8530   -4.0390  -39.6750 C.2   287  PHE287      0.2264
    158  O         19.6440   -3.0990  -39.6450 O.2   287  PHE287     -0.2867
    159  CB        16.4790   -3.2210  -39.3750 C.3   287  PHE287      0.0534
    160  CG        15.3510   -2.9700  -38.4020 C.ar  287  PHE287     -0.0203
    161  CD1       14.5430   -4.0140  -37.9670 C.ar  287  PHE287     -0.0042
    162  CD2       15.1170   -1.6990  -37.8970 C.ar  287  PHE287     -0.0042
    163  CE1       13.5260   -3.7910  -37.0530 C.ar  287  PHE287     -0.0003
    164  CE2       14.0960   -1.4740  -36.9890 C.ar  287  PHE287     -0.0003
    165  CZ        13.2970   -2.5200  -36.5770 C.ar  287  PHE287     -0.0000
    166  N          5.7750   -4.4530  -28.2700 N.3   327  TYR327     -0.1227
    167  CA         5.6290   -5.3040  -29.4520 C.3   327  TYR327      0.1736
    168  C          6.8910   -6.1170  -29.7380 C.2   327  TYR327      0.2595
    169  O          6.8050   -7.2790  -30.1090 O.2   327  TYR327     -0.2718
    170  CB         5.2750   -4.4290  -30.6660 C.3   327  TYR327      0.0548
    171  CG         4.7700   -5.1560  -31.8940 C.ar  327  TYR327     -0.0200
    172  CD1        5.6070   -5.9780  -32.6420 C.ar  327  TYR327     -0.0009
    173  CD2        3.4630   -4.9910  -32.3310 C.ar  327  TYR327     -0.0009
    174  CE1        5.1450   -6.6350  -33.7810 C.ar  327  TYR327      0.0417
    175  CE2        2.9940   -5.6420  -33.4760 C.ar  327  TYR327      0.0417
    176  CZ         3.8390   -6.4600  -34.1930 C.ar  327  TYR327      0.1957
    177  OH         3.3760   -7.1130  -35.3170 O.3   327  TYR327     -0.2866
    178  N          8.0570   -5.5040  -29.5560 N.am  328  PHE328     -0.1976
    179  CA         9.3340   -6.0790  -29.9960 C.3   328  PHE328      0.1639
    180  C          9.8870   -7.1680  -29.0780 C.2   328  PHE328      0.2290
    181  O         10.7650   -7.9480  -29.4750 O.2   328  PHE328     -0.2864
    182  CB        10.3800   -4.9710  -30.1390 C.3   328  PHE328      0.0560
    183  CG        10.0440   -3.9510  -31.1890 C.ar  328  PHE328     -0.0200
    184  CD1       10.4290   -4.1540  -32.5110 C.ar  328  PHE328     -0.0042
    185  CD2        9.3390   -2.7960  -30.8580 C.ar  328  PHE328     -0.0042
    186  CE1       10.1290   -3.2200  -33.4850 C.ar  328  PHE328     -0.0003
    187  CE2        9.0280   -1.8580  -31.8180 C.ar  328  PHE328     -0.0003
    188  CZ         9.4220   -2.0730  -33.1490 C.ar  328  PHE328     -0.0000
    189  N          9.8410  -10.8370  -30.0590 N.3   331  TYR331     -0.1241
    190  CA        10.6480  -11.1550  -31.2370 C.3   331  TYR331      0.1605
    191  C         12.0990  -11.4780  -30.9070 C.2   331  TYR331      0.2264
    192  O         12.9570  -11.4400  -31.7840 O.2   331  TYR331     -0.2867
    193  CB        10.6140   -9.9960  -32.2350 C.3   331  TYR331      0.0534
    194  CG         9.3710   -9.9770  -33.0930 C.ar  331  TYR331     -0.0201
    195  CD1        9.3230  -10.6840  -34.2930 C.ar  331  TYR331     -0.0009
    196  CD2        8.2480   -9.2490  -32.7170 C.ar  331  TYR331     -0.0009
    197  CE1        8.1930  -10.6750  -35.0900 C.ar  331  TYR331      0.0417
    198  CE2        7.1060   -9.2310  -33.5130 C.ar  331  TYR331      0.0417
    199  CZ         7.0860   -9.9500  -34.6980 C.ar  331  TYR331      0.1957
    200  OH         5.9630   -9.9370  -35.4880 O.3   331  TYR331     -0.2866
    201  N          3.5550   -0.2220  -30.6020 N.3   437  HIS437     -0.1226
    202  CA         4.1510    0.4260  -31.7750 C.3   437  HIS437      0.1752
    203  C          3.3060    0.2020  -33.0510 C.2   437  HIS437      0.2596
    204  O          3.1050   -0.9360  -33.4980 O.2   437  HIS437     -0.2718
    205  CB         5.5900   -0.1050  -31.9380 C.3   437  HIS437      0.0759
    206  CG         6.3810    0.5520  -33.0330 C.ar  437  HIS437      0.0818
    207  ND1        6.8870    1.8300  -32.9230 N.ar  437  HIS437     -0.2268
    208  CD2        6.7800    0.0930  -34.2460 C.ar  437  HIS437      0.1154
    209  CE1        7.5590    2.1300  -34.0190 C.ar  437  HIS437      0.1986
    210  NE2        7.5070    1.0940  -34.8370 N.ar  437  HIS437     -0.2212
    211  N          2.7770    1.2880  -33.6100 N.am  438  GLY438     -0.1957
    212  CA         2.0900    1.2060  -34.8850 C.3   438  GLY438      0.1869
    213  C          0.5780    1.2140  -34.8450 C.2   438  GLY438      0.2309
    214  O         -0.0660    1.2490  -35.8940 O.2   438  GLY438     -0.2863
    215  N         -1.9050    4.3430  -36.2050 N.3   441  ILE441     -0.1245
    216  CA        -2.0500    4.5610  -37.6450 C.3   441  ILE441      0.1561
    217  C         -3.4920    4.4540  -38.1290 C.2   441  ILE441      0.2260
    218  O         -4.0100    5.3800  -38.7460 O.2   441  ILE441     -0.2867
    219  CB        -1.1660    3.6000  -38.4570 C.3   441  ILE441      0.0252
    220  CG1        0.3040    3.7640  -38.0610 C.3   441  ILE441      0.0019
    221  CG2       -1.3430    3.8420  -39.9640 C.3   441  ILE441      0.0019
    222  CD1        1.2160    2.7330  -38.7080 C.3   441  ILE441      0.0001
@<TRIPOS>BOND
     1    86    85    2
     2    87    88    1
     3    85    84    1
     4    98    97    2
     5     1     2    1
     6    88    89    1
     7    88    91    1
     8    90    89    2
     9    97    96    1
    10    94    92    1
    11    99    96    1
    12    99   100    1
    13    84    83    1
    14     2     3    1
    15     2     5    1
    16    68    67    2
    17    83    79   am
    18    92    91    1
    19    92    93    1
    20   102   100   ar
    21   102   104   ar
    22    79    78    1
    23    79    80    2
    24     3     4    2
    25    96    95    1
    26    78    77    1
    27    78    81    1
    28    67    77   am
    29    67    66    1
    30   100   101   ar
    31   104   105   ar
    32     5     6    1
    33    66    65    1
    34    66    69    1
    35    81    82    1
    36     7     6   ar
    37     7     9   ar
    38   101   103   ar
    39     6     8   ar
    40    46    45    2
    41    69    70    1
    42    60    59    2
    43   105   103   ar
    44   105   106    1
    45    45    44    1
    46    57    58    1
    47     9    11   ar
    48    71    70   ar
    49    71    73   ar
    50    70    72   ar
    51     8    10   ar
    52    13    14    1
    53    59    58    1
    54    59    61   am
    55    64    63    2
    56   122   123    1
    57    27    25    1
    58    44    43    1
    59    44    47    1
    60    73    75   ar
    61    62    63    1
    62    62    61    1
    63    11    10   ar
    64    11    12    1
    65    16    15    2
    66    72    74   ar
    67   128   130   ar
    68   128   127   ar
    69   130   131   ar
    70    14    15    1
    71    14    17    1
    72    15    21   am
    73    47    48    1
    74   123   124    1
    75   123   126    1
    76    75    74   ar
    77    75    76    1
    78   107   108    1
    79    25    26    1
    80    25    22    1
    81    53    55   ar
    82    53    50   ar
    83   127   126    1
    84   127   129   ar
    85   221   219    1
    86   131   133   ar
    87   131   129   ar
    88    17    18    1
    89   110   109    2
    90   124   125    2
    91    21    22    1
    92   157   158    2
    93   157   156    1
    94    55    56   ar
    95   133   135   ar
    96    22    23    1
    97   129   132   ar
    98   159   156    1
    99   159   160    1
   100    39    38    2
   101    48    50   ar
   102    48    49   ar
   103    50    52   ar
   104   108   109    1
   105   108   111    1
   106   109   116   am
   107   156   155    1
   108   218   217    2
   109   119   118    2
   110   222   220    1
   111   135   134   ar
   112    38    37    1
   113   118   117    1
   114   111   112    1
   115   132   134   ar
   116   219   220    1
   117   219   216    1
   118    18    19   ar
   119    18    20   ar
   120   160   161   ar
   121   160   162   ar
   122    56    54   ar
   123   114   113   ar
   124   217   216    1
   125    23    24    2
   126    23    28   am
   127    49    51   ar
   128   161   163   ar
   129   162   164   ar
   130    52    54   ar
   131    52    51   ar
   132   116   117    1
   133   216   215    1
   134   117   120    1
   135   120   121    1
   136   112   113    1
   137   113   115   ar
   138    37    40    1
   139    37    36    1
   140    28    29    1
   141   163   165   ar
   142   164   165   ar
   143    41    40    1
   144    40    42    1
   145   214   213    2
   146    29    30    1
   147    29    32    1
   148   200   199    1
   149   177   176    1
   150    30    31    2
   151   197   199   ar
   152   197   195   ar
   153    32    33    1
   154   212   213    1
   155   212   211    1
   156   210   208   ar
   157   210   209   ar
   158   199   198   ar
   159   195   194   ar
   160   208   206   ar
   161   176   174   ar
   162   176   175   ar
   163   209   207   ar
   164   174   172   ar
   165   152   150   ar
   166   152   154   ar
   167   211   203   am
   168   198   196   ar
   169   204   203    2
   170   186   188   ar
   171   186   184   ar
   172   146   147    2
   173   146   145    1
   174   175   173   ar
   175    33    34    1
   176    33    35    1
   177   150   149   ar
   178   188   187   ar
   179   194   196   ar
   180   194   193    1
   181   203   202    1
   182   206   207   ar
   183   206   205    1
   184   154   153   ar
   185   145   144    1
   186   145   148    1
   187   172   171   ar
   188   184   183   ar
   189   144   138   am
   190   173   171   ar
   191   193   190    1
   192   149   148    1
   193   149   151   ar
   194   205   202    1
   195   171   170    1
   196   187   185   ar
   197   192   191    2
   198   202   201    1
   199   153   151   ar
   200   138   137    1
   201   138   139    2
   202   190   191    1
   203   190   189    1
   204   183   185   ar
   205   183   182    1
   206   137   136    1
   207   137   140    1
   208   170   167    1
   209   182   179    1
   210   140   142    1
   211   140   141    1
   212   169   168    2
   213   179   178    1
   214   179   180    1
   215   168   178   am
   216   168   167    1
   217   181   180    2
   218   167   166    1
   219   141   143    1
