@<TRIPOS>MOLECULE
tmp/5fouA00.pdb
 133 129 0 0 0
SMALL
GASTEIGER

@<TRIPOS>ATOM
      1  N         17.8800   -2.4190   40.3460 N.3    62  MET62      -0.1230
      2  CA        19.0380   -1.7740   39.7410 C.3    62  MET62       0.1702
      3  C         18.5470   -0.7620   38.6970 C.2    62  MET62       0.2592
      4  O         17.5810   -1.0280   37.9760 O.2    62  MET62      -0.2718
      5  CB        19.9870   -2.8090   39.1360 C.3    62  MET62       0.0401
      6  CG        20.4560   -3.8480   40.1620 C.3    62  MET62       0.0596
      7  SD        21.8000   -4.9310   39.6500 S.3    62  MET62      -0.1393
      8  CE        23.1980   -3.8100   39.7060 C.3    62  MET62       0.0692
      9  N         19.2000    0.3940   38.6260 N.am   63  TRP63      -0.1962
     10  CA        18.7180    1.5250   37.8220 C.3    63  TRP63       0.1771
     11  C         19.8840    2.1220   37.0480 C.2    63  TRP63       0.2619
     12  O         20.8420    2.5890   37.6620 O.2    63  TRP63      -0.2715
     13  CB        18.0660    2.5820   38.7390 C.3    63  TRP63       0.0590
     14  CG        17.3220    3.7200   38.0520 C.ar   63  TRP63       0.0006
     15  CD1       17.7820    4.5230   37.0290 C.ar   63  TRP63       0.0946
     16  CD2       15.9890    4.1830   38.3480 C.ar   63  TRP63       0.0152
     17  NE1       16.8180    5.4390   36.6800 N.ar   63  TRP63      -0.2442
     18  CE2       15.7170    5.2620   37.4790 C.ar   63  TRP63       0.0810
     19  CE3       15.0110    3.8050   39.2800 C.ar   63  TRP63       0.0012
     20  CZ2       14.4950    5.9410   37.4840 C.ar   63  TRP63       0.0191
     21  CZ3       13.7970    4.4920   39.2890 C.ar   63  TRP63       0.0001
     22  CH2       13.5520    5.5470   38.4030 C.ar   63  TRP63       0.0015
     23  N         19.8050    2.0820   35.7150 N.am   64  ILE64      -0.1977
     24  CA        20.7840    2.7230   34.8360 C.3    64  ILE64       0.1596
     25  C         20.1670    3.9980   34.2630 C.2    64  ILE64       0.2287
     26  O         19.1900    3.9360   33.5200 O.2    64  ILE64      -0.2864
     27  CB        21.2250    1.7830   33.6900 C.3    64  ILE64       0.0276
     28  CG1       21.9460    0.5490   34.2580 C.3    64  ILE64       0.0022
     29  CG2       22.1450    2.5240   32.7060 C.3    64  ILE64       0.0022
     30  CD1       22.2180   -0.5320   33.2340 C.3    64  ILE64       0.0001
     31  N         16.7050   10.4250   37.5960 N.3    70  PHE70      -0.1241
     32  CA        16.3720    9.7180   38.8370 C.3    70  PHE70       0.1605
     33  C         16.3280   10.7070   39.9950 C.2    70  PHE70       0.2264
     34  O         17.2800   11.4660   40.1960 O.2    70  PHE70      -0.2867
     35  CB        17.3830    8.5980   39.1210 C.3    70  PHE70       0.0534
     36  CG        17.1770    7.8960   40.4440 C.ar   70  PHE70      -0.0203
     37  CD1       16.1030    7.0340   40.6300 C.ar   70  PHE70      -0.0042
     38  CD2       18.0760    8.0690   41.4830 C.ar   70  PHE70      -0.0042
     39  CE1       15.9210    6.3720   41.8380 C.ar   70  PHE70      -0.0003
     40  CE2       17.8910    7.4170   42.6970 C.ar   70  PHE70      -0.0003
     41  CZ        16.8110    6.5700   42.8710 C.ar   70  PHE70      -0.0000
     42  N         15.8500   10.7650   44.0620 N.3    72  PRO72      -0.2116
     43  CA        15.6380   10.1220   45.3640 C.3    72  PRO72       0.1372
     44  C         14.4550   10.7170   46.1300 C.2    72  PRO72       0.2244
     45  O         13.7750    9.9870   46.8690 O.2    72  PRO72      -0.2868
     46  CB        16.9570   10.3820   46.1020 C.3    72  PRO72       0.0268
     47  CG        17.9720   10.4990   45.0010 C.3    72  PRO72       0.0207
     48  CD        17.2540   11.1740   43.8640 C.3    72  PRO72       0.0892
     49  N         15.2140    3.2910   49.5290 N.3    90  LEU90      -0.1231
     50  CA        16.3640    3.8290   48.7860 C.3    90  LEU90       0.1693
     51  C         17.5940    2.9130   48.8470 C.2    90  LEU90       0.2591
     52  O         18.3120    2.7620   47.8590 O.2    90  LEU90      -0.2718
     53  CB        16.7330    5.2220   49.3180 C.3    90  LEU90       0.0284
     54  CG        15.7950    6.3590   48.9010 C.3    90  LEU90       0.0019
     55  CD1       15.9920    7.5810   49.7860 C.3    90  LEU90       0.0001
     56  CD2       15.9870    6.7300   47.4310 C.3    90  LEU90       0.0001
     57  N         17.8410    2.3060   50.0030 N.am   91  LYS91      -0.1980
     58  CA        18.9790    1.3970   50.1750 C.3    91  LYS91       0.1596
     59  C         18.9470    0.2050   49.2060 C.2    91  LYS91       0.2287
     60  O         20.0010   -0.3030   48.7920 O.2    91  LYS91      -0.2864
     61  CB        19.0150    0.8960   51.6290 C.3    91  LYS91       0.0298
     62  CG        20.0500   -0.1680   51.9190 C.3    91  LYS91       0.0038
     63  CD        19.8950   -0.7000   53.3420 C.3    91  LYS91       0.0206
     64  CE        20.9350   -1.7670   53.6510 C.3    91  LYS91       0.1093
     65  NZ        20.7790   -2.3060   55.0320 N.3    91  LYS91      -0.1314
     66  N         17.7530    0.2390   46.1490 N.3    93  ILE93      -0.1231
     67  CA        17.9190    0.6680   44.7720 C.3    93  ILE93       0.1692
     68  C         19.3920    0.9430   44.4780 C.2    93  ILE93       0.2592
     69  O         19.9900    1.8790   45.0410 O.2    93  ILE93      -0.2718
     70  CB        17.1010    1.9380   44.4610 C.3    93  ILE93       0.0266
     71  CG1       15.6120    1.6890   44.7190 C.3    93  ILE93       0.0019
     72  CG2       17.3570    2.4080   43.0080 C.3    93  ILE93       0.0020
     73  CD1       14.7490    2.9420   44.7060 C.3    93  ILE93       0.0001
     74  N         19.9860    0.1090   43.6260 N.am   94  ALA94      -0.1966
     75  CA        21.3790    0.2870   43.2140 C.3    94  ALA94       0.1728
     76  C         21.4200    1.1020   41.9370 C.2    94  ALA94       0.2616
     77  O         20.8440    0.7030   40.9320 O.2    94  ALA94      -0.2715
     78  CB        22.0570   -1.0560   43.0120 C.3    94  ALA94       0.0334
     79  N         22.1320    2.2220   41.9790 N.am   95  TYR95      -0.1960
     80  CA        22.0470    3.2630   40.9560 C.3    95  TYR95       0.1771
     81  C         23.3720    3.5480   40.2540 C.2    95  TYR95       0.2619
     82  O         24.4010    3.7090   40.9120 O.2    95  TYR95      -0.2715
     83  CB        21.5200    4.5440   41.6160 C.3    95  TYR95       0.0574
     84  CG        21.4330    5.7590   40.7250 C.ar   95  TYR95      -0.0198
     85  CD1       20.4050    5.8820   39.8000 C.ar   95  TYR95      -0.0009
     86  CD2       22.3450    6.8100   40.8370 C.ar   95  TYR95      -0.0009
     87  CE1       20.2980    7.0080   38.9840 C.ar   95  TYR95       0.0417
     88  CE2       22.2520    7.9360   40.0210 C.ar   95  TYR95       0.0417
     89  CZ        21.2230    8.0280   39.1010 C.ar   95  TYR95       0.1957
     90  OH        21.1130    9.1490   38.2990 O.3    95  TYR95      -0.2866
     91  N         23.3340    3.6270   38.9230 N.am   96  ALA96      -0.1977
     92  CA        24.5020    4.0380   38.1290 C.3    96  ALA96       0.1597
     93  C         24.1020    4.9520   36.9790 C.2    96  ALA96       0.2287
     94  O         23.0650    4.7360   36.3380 O.2    96  ALA96      -0.2864
     95  CB        25.2440    2.8160   37.5790 C.3    96  ALA96       0.0319
     96  N         27.5910   -1.4800   31.4120 N.3   107  LEU107     -0.1245
     97  CA        26.9120   -1.5050   32.7110 C.3   107  LEU107      0.1561
     98  C         25.9520   -2.6920   32.8680 C.2   107  LEU107      0.2260
     99  O         25.6800   -3.1280   33.9910 O.2   107  LEU107     -0.2867
    100  CB        26.1790   -0.1770   32.9450 C.3   107  LEU107      0.0270
    101  CG        27.0650    0.9510   33.4980 C.3   107  LEU107      0.0019
    102  CD1       26.3830    2.2960   33.2890 C.3   107  LEU107      0.0001
    103  CD2       27.3790    0.7230   34.9860 C.3   107  LEU107      0.0001
    104  N         28.2210   -5.2700   34.1550 N.3   110  GLN110     -0.1231
    105  CA        28.4820   -4.9320   35.5500 C.3   110  GLN110      0.1698
    106  C         27.3240   -5.3140   36.4780 C.2   110  GLN110      0.2592
    107  O         27.5540   -5.8170   37.5830 O.2   110  GLN110     -0.2718
    108  CB        28.7860   -3.4390   35.6840 C.3   110  GLN110      0.0381
    109  CG        30.0870   -2.9970   35.0290 C.3   110  GLN110      0.0905
    110  CD        30.2570   -1.4870   35.0430 C.2   110  GLN110      0.2608
    111  OE1       30.3420   -0.8610   36.1090 O.2   110  GLN110     -0.2717
    112  NE2       30.2910   -0.8900   33.8630 N.am  110  GLN110     -0.0878
    113  N         26.0870   -5.0800   36.0360 N.am  111  ALA111     -0.1980
    114  CA        24.9090   -5.3730   36.8500 C.3   111  ALA111      0.1597
    115  C         24.8320   -6.8530   37.2250 C.2   111  ALA111      0.2287
    116  O         24.3260   -7.1980   38.2980 O.2   111  ALA111     -0.2864
    117  CB        23.6360   -4.9300   36.1040 C.3   111  ALA111      0.0319
    118  N         26.1070   -7.8650   40.8820 N.3   114  MET114     -0.1245
    119  CA        25.2160   -7.6880   42.0250 C.3   114  MET114      0.1570
    120  C         24.0210   -8.6410   41.9410 C.2   114  MET114      0.2261
    121  O         23.5280   -9.1080   42.9650 O.2   114  MET114     -0.2867
    122  CB        24.7290   -6.2410   42.1340 C.3   114  MET114      0.0387
    123  CG        23.7750   -6.0040   43.2980 C.3   114  MET114      0.0595
    124  SD        23.1910   -4.3040   43.4490 S.3   114  MET114     -0.1393
    125  CE        24.6680   -3.4920   44.0610 C.3   114  MET114      0.0692
    126  N         15.1440   -4.2860   36.8230 N.3   128  LEU128     -0.1245
    127  CA        16.2610   -3.5430   36.2370 C.3   128  LEU128      0.1561
    128  C         15.6710   -2.4820   35.3180 C.2   128  LEU128      0.2260
    129  O         14.9550   -2.8120   34.3690 O.2   128  LEU128     -0.2867
    130  CB        17.2010   -4.4750   35.4720 C.3   128  LEU128      0.0270
    131  CG        18.3030   -3.8600   34.6040 C.3   128  LEU128      0.0019
    132  CD1       19.1820   -2.9250   35.4030 C.3   128  LEU128      0.0001
    133  CD2       19.1360   -4.9840   33.9780 C.3   128  LEU128      0.0001
@<TRIPOS>BOND
     1    96    97    1
     2    29    27    1
     3    97    98    1
     4    97   100    1
     5    98    99    2
     6   100   101    1
     7    30    28    1
     8   102   101    1
     9   101   103    1
    10    26    25    2
    11    27    28    1
    12    27    24    1
    13   112   110   am
    14   133   131    1
    15   104   105    1
    16    25    24    1
    17   129   128    2
    18   131   132    1
    19   131   130    1
    20    24    23    1
    21   109   110    1
    22   109   108    1
    23   110   111    2
    24   128   127    1
    25   130   127    1
    26   105   108    1
    27   105   106    1
    28    23    11   am
    29   113   106   am
    30   113   114    1
    31   117   114    1
    32   127   126    1
    33    94    93    2
    34   106   107    2
    35    17    15   ar
    36    17    18   ar
    37   114   115    1
    38    93    92    1
    39    15    14   ar
    40    11    12    2
    41    11    10    1
    42   115   116    2
    43    18    20   ar
    44    18    16   ar
    45    20    22   ar
    46    95    92    1
    47    31    32    1
    48    10     9    1
    49    10    13    1
    50     4     3    2
    51    14    16   ar
    52    14    13    1
    53    92    91    1
    54    90    89    1
    55    16    19   ar
    56    22    21   ar
    57     9     3   am
    58     3     2    1
    59    32    35    1
    60    32    33    1
    61    91    81   am
    62    87    89   ar
    63    87    85   ar
    64    89    88   ar
    65    35    36    1
    66     5     2    1
    67     5     6    1
    68    19    21   ar
    69     7     8    1
    70     7     6    1
    71     2     1    1
    72    85    84   ar
    73    33    34    2
    74    88    86   ar
    75    81    82    2
    76    81    80    1
    77    36    37   ar
    78    36    38   ar
    79    37    39   ar
    80    84    86   ar
    81    84    83    1
    82   118   119    1
    83    77    76    2
    84    80    83    1
    85    80    79    1
    86    38    40   ar
    87    39    41   ar
    88    76    79   am
    89    76    75    1
    90   120   119    1
    91   120   121    2
    92   119   122    1
    93   122   123    1
    94    40    41   ar
    95    72    70    1
    96    78    75    1
    97    75    74    1
    98   123   124    1
    99   124   125    1
   100    74    68   am
   101    48    42    1
   102    48    47    1
   103    42    43    1
   104    70    71    1
   105    70    67    1
   106    68    67    1
   107    68    69    2
   108    73    71    1
   109    67    66    1
   110    47    46    1
   111    43    46    1
   112    43    44    1
   113    44    45    2
   114    56    54    1
   115    52    51    2
   116    50    51    1
   117    50    53    1
   118    50    49    1
   119    60    59    2
   120    51    57   am
   121    54    53    1
   122    54    55    1
   123    59    58    1
   124    57    58    1
   125    58    61    1
   126    61    62    1
   127    62    63    1
   128    63    64    1
   129    64    65    1
