@<TRIPOS>MOLECULE
tmp/5fowB00.pdb
 154 150 0 0 0
SMALL
GASTEIGER

@<TRIPOS>ATOM
      1  N         14.7300   30.3480  -33.5820 N.3    62  MET62      -0.1230
      2  CA        13.5710   29.7120  -32.9620 C.3    62  MET62       0.1702
      3  C         14.0620   28.6620  -31.9720 C.2    62  MET62       0.2592
      4  O         14.9030   27.8230  -32.3150 O.2    62  MET62      -0.2718
      5  CB        12.6420   29.0960  -34.0250 C.3    62  MET62       0.0401
      6  CG        12.0670   30.1330  -35.0050 C.3    62  MET62       0.0596
      7  SD        10.7920   29.4870  -36.1280 S.3    62  MET62      -0.1393
      8  CE         9.3400   29.5370  -35.0650 C.3    62  MET62       0.0692
      9  N         13.5460   28.7080  -30.7430 N.am   63  TRP63      -0.1962
     10  CA        14.0940   27.9310  -29.6280 C.3    63  TRP63       0.1771
     11  C         12.9710   27.1520  -28.9610 C.2    63  TRP63       0.2619
     12  O         12.0360   27.7620  -28.4320 O.2    63  TRP63      -0.2715
     13  CB        14.7500   28.8670  -28.6050 C.3    63  TRP63       0.0590
     14  CG        15.5020   28.2160  -27.4620 C.ar   63  TRP63       0.0006
     15  CD1       15.0580   27.2250  -26.6250 C.ar   63  TRP63       0.0946
     16  CD2       16.8190   28.5650  -27.0070 C.ar   63  TRP63       0.0152
     17  NE1       16.0300   26.9260  -25.6880 N.ar   63  TRP63      -0.2442
     18  CE2       17.1150   27.7400  -25.9020 C.ar   63  TRP63       0.0810
     19  CE3       17.7730   29.4940  -27.4320 C.ar   63  TRP63       0.0012
     20  CZ2       18.3390   27.8030  -25.2320 C.ar   63  TRP63       0.0191
     21  CZ3       18.9790   29.5620  -26.7610 C.ar   63  TRP63       0.0001
     22  CH2       19.2510   28.7230  -25.6760 C.ar   63  TRP63       0.0015
     23  N         13.0690   25.8160  -28.9670 N.am   64  ILE64      -0.1977
     24  CA        12.1550   24.9480  -28.2220 C.3    64  ILE64       0.1596
     25  C         12.8520   24.4600  -26.9590 C.2    64  ILE64       0.2287
     26  O         13.8970   23.8020  -27.0340 O.2    64  ILE64      -0.2864
     27  CB        11.6960   23.7490  -29.0640 C.3    64  ILE64       0.0276
     28  CG1       11.0110   24.2210  -30.3430 C.3    64  ILE64       0.0022
     29  CG2       10.7710   22.8310  -28.2290 C.3    64  ILE64       0.0022
     30  CD1       10.7100   23.0720  -31.2980 C.3    64  ILE64       0.0001
     31  N         16.1510   28.0670  -20.8440 N.3    70  PHE70      -0.1241
     32  CA        16.4230   29.3000  -21.5830 C.3    70  PHE70       0.1605
     33  C         16.4660   30.4920  -20.6340 C.2    70  PHE70       0.2264
     34  O         15.5640   30.6900  -19.8080 O.2    70  PHE70      -0.2867
     35  CB        15.3580   29.5120  -22.6650 C.3    70  PHE70       0.0534
     36  CG        15.4920   30.8020  -23.4390 C.ar   70  PHE70      -0.0203
     37  CD1       16.5560   31.0120  -24.3020 C.ar   70  PHE70      -0.0042
     38  CD2       14.5290   31.7930  -23.3250 C.ar   70  PHE70      -0.0042
     39  CE1       16.6720   32.1900  -25.0190 C.ar   70  PHE70      -0.0003
     40  CE2       14.6410   32.9800  -24.0380 C.ar   70  PHE70      -0.0003
     41  CZ        15.7150   33.1770  -24.8930 C.ar   70  PHE70      -0.0000
     42  N         16.8110   34.5680  -20.7210 N.3    72  PRO72      -0.2116
     43  CA        16.9200   35.8030  -21.5190 C.3    72  PRO72       0.1372
     44  C         18.0650   36.7060  -21.0930 C.2    72  PRO72       0.2244
     45  O         18.6790   37.3620  -21.9440 O.2    72  PRO72      -0.2868
     46  CB        15.5550   36.4830  -21.3080 C.3    72  PRO72       0.0268
     47  CG        14.6230   35.3560  -20.9960 C.3    72  PRO72       0.0207
     48  CD        15.4420   34.3600  -20.2110 C.3    72  PRO72       0.0892
     49  N         17.2360   39.6820  -28.4810 N.3    90  LEU90      -0.1231
     50  CA        16.1120   38.9420  -27.9060 C.3    90  LEU90       0.1693
     51  C         14.8810   38.9970  -28.8050 C.2    90  LEU90       0.2591
     52  O         14.1760   37.9900  -28.9600 O.2    90  LEU90      -0.2718
     53  CB        15.7710   39.4780  -26.5140 C.3    90  LEU90       0.0284
     54  CG        16.4960   38.8990  -25.2950 C.3    90  LEU90       0.0019
     55  CD1       15.9940   39.5710  -24.0100 C.3    90  LEU90       0.0001
     56  CD2       16.3300   37.3830  -25.2030 C.3    90  LEU90       0.0001
     57  N         14.5980   40.1630  -29.3990 N.am   91  LYS91      -0.1980
     58  CA        13.4370   40.3050  -30.2760 C.3    91  LYS91       0.1596
     59  C         13.4860   39.3490  -31.4570 C.2    91  LYS91       0.2287
     60  O         12.4360   39.0280  -32.0290 O.2    91  LYS91      -0.2864
     61  CB        13.3310   41.7390  -30.8050 C.3    91  LYS91       0.0298
     62  CG        12.7940   42.7350  -29.7990 C.3    91  LYS91       0.0038
     63  CD        12.7430   44.1440  -30.3770 C.3    91  LYS91       0.0206
     64  CE        12.1170   45.1270  -29.3910 C.3    91  LYS91       0.1093
     65  NZ        12.9070   45.2620  -28.1360 N.3    91  LYS91      -0.1314
     66  N         14.5170   36.2000  -31.3550 N.3    93  ILE93      -0.1231
     67  CA        14.3930   34.8130  -30.9070 C.3    93  ILE93       0.1692
     68  C         12.9280   34.5410  -30.5880 C.2    93  ILE93       0.2592
     69  O         12.3650   35.1530  -29.6730 O.2    93  ILE93      -0.2718
     70  CB        15.2660   34.5120  -29.6750 C.3    93  ILE93       0.0266
     71  CG1       16.7380   34.7990  -29.9580 C.3    93  ILE93       0.0019
     72  CG2       15.0760   33.0470  -29.2370 C.3    93  ILE93       0.0020
     73  CD1       17.6020   34.7270  -28.7220 C.3    93  ILE93       0.0001
     74  N         12.3250   33.6160  -31.3360 N.am   94  ALA94      -0.1966
     75  CA        11.0330   33.0380  -30.9900 C.3    94  ALA94       0.1728
     76  C         11.2260   31.8970  -29.9980 C.2    94  ALA94       0.2616
     77  O         12.1250   31.0700  -30.1590 O.2    94  ALA94      -0.2715
     78  CB        10.3360   32.5100  -32.2480 C.3    94  ALA94       0.0334
     79  N         10.3690   31.8370  -28.9820 N.am   95  TYR95      -0.1960
     80  CA        10.5730   30.9200  -27.8630 C.3    95  TYR95       0.1771
     81  C          9.3090   30.1120  -27.6050 C.2    95  TYR95       0.2619
     82  O          8.2170   30.6820  -27.5410 O.2    95  TYR95      -0.2715
     83  CB        10.9550   31.7060  -26.5980 C.3    95  TYR95       0.0574
     84  CG        11.1700   30.8520  -25.3690 C.ar   95  TYR95      -0.0198
     85  CD1       12.1820   29.8880  -25.3310 C.ar   95  TYR95      -0.0009
     86  CD2       10.3880   31.0330  -24.2300 C.ar   95  TYR95      -0.0009
     87  CE1       12.3910   29.1180  -24.1970 C.ar   95  TYR95       0.0417
     88  CE2       10.5810   30.2640  -23.1000 C.ar   95  TYR95       0.0417
     89  CZ        11.5820   29.3120  -23.0810 C.ar   95  TYR95       0.1957
     90  OH        11.7710   28.5490  -21.9440 O.3    95  TYR95      -0.2866
     91  N          9.4610   28.7950  -27.4210 N.am   96  ALA96      -0.1963
     92  CA         8.3380   27.9330  -27.0640 C.3    96  ALA96       0.1728
     93  C          8.7730   26.9240  -26.0150 C.2    96  ALA96       0.2616
     94  O          9.8780   26.3830  -26.0900 O.2    96  ALA96      -0.2715
     95  CB         7.7760   27.1810  -28.2800 C.3    96  ALA96       0.0334
     96  N          7.9090   26.6960  -25.0260 N.am   97  ARG97      -0.1977
     97  CA         8.1220   25.6710  -24.0130 C.3    97  ARG97       0.1597
     98  C          7.3000   24.4440  -24.3840 C.2    97  ARG97       0.2287
     99  O          6.0710   24.5150  -24.4580 O.2    97  ARG97      -0.2864
    100  CB         7.7330   26.1730  -22.6230 C.3    97  ARG97       0.0334
    101  CG         7.9490   25.1550  -21.5080 C.3    97  ARG97       0.0492
    102  CD         9.3440   24.5460  -21.5920 C.3    97  ARG97       0.2205
    103  NE         9.7690   23.9120  -20.3490 N.pl3  97  ARG97      -0.0865
    104  CZ         9.3940   22.6970  -19.9630 C.cat  97  ARG97       0.5346
    105  NH1        8.5750   21.9830  -20.7210 N.pl3  97  ARG97       0.1354
    106  NH2        9.8320   22.2000  -18.8130 N.pl3  97  ARG97       0.1354
    107  N          3.5290   17.6170  -27.8400 N.3   103  HIS103     -0.1241
    108  CA         3.5410   19.0660  -28.0220 C.3   103  HIS103      0.1621
    109  C          4.8210   19.5110  -28.7230 C.2   103  HIS103      0.2264
    110  O          4.7890   20.3540  -29.6320 O.2   103  HIS103     -0.2867
    111  CB         3.3920   19.7360  -26.6570 C.3   103  HIS103      0.0745
    112  CG         3.2540   21.2220  -26.7220 C.ar  103  HIS103      0.0817
    113  ND1        3.8640   22.0650  -25.8170 N.ar  103  HIS103     -0.2268
    114  CD2        2.5870   22.0180  -27.5870 C.ar  103  HIS103      0.1154
    115  CE1        3.5740   23.3160  -26.1190 C.ar  103  HIS103      0.1986
    116  NE2        2.8000   23.3150  -27.1890 N.ar  103  HIS103     -0.2212
    117  N          5.0400   21.7360  -32.2040 N.3   107  LEU107     -0.1245
    118  CA         5.7040   23.0450  -32.2450 C.3   107  LEU107      0.1561
    119  C          6.6850   23.1460  -33.4070 C.2   107  LEU107      0.2260
    120  O          6.8260   24.2110  -34.0200 O.2   107  LEU107     -0.2867
    121  CB         6.4260   23.3040  -30.9250 C.3   107  LEU107      0.0270
    122  CG         5.5490   23.6280  -29.7270 C.3   107  LEU107      0.0019
    123  CD1        6.3760   23.6260  -28.4680 C.3   107  LEU107      0.0001
    124  CD2        4.8770   24.9920  -29.9290 C.3   107  LEU107      0.0001
    125  N          4.6430   23.6000  -36.4340 N.3   110  GLN110     -0.1231
    126  CA         4.0820   24.9460  -36.4110 C.3   110  GLN110      0.1698
    127  C          5.1510   25.9840  -36.7340 C.2   110  GLN110      0.2592
    128  O          4.8370   27.0580  -37.2530 O.2   110  GLN110     -0.2718
    129  CB         3.4500   25.2120  -35.0400 C.3   110  GLN110      0.0381
    130  CG         2.5780   26.4640  -34.9540 C.3   110  GLN110      0.0905
    131  CD         2.0820   26.7230  -33.5360 C.2   110  GLN110      0.2608
    132  OE1        2.0320   25.8100  -32.7090 O.2   110  GLN110     -0.2717
    133  NE2        1.7200   27.9710  -33.2500 N.am  110  GLN110     -0.0878
    134  N          6.4220   25.6630  -36.4670 N.am  111  ALA111     -0.1980
    135  CA         7.5040   26.6120  -36.7270 C.3   111  ALA111      0.1597
    136  C          7.6080   26.9610  -38.2120 C.2   111  ALA111      0.2287
    137  O          8.0550   28.0590  -38.5630 O.2   111  ALA111     -0.2864
    138  CB         8.8300   26.0320  -36.2180 C.3   111  ALA111      0.0319
    139  N          6.2300   30.6140  -39.3410 N.3   114  MET114     -0.1245
    140  CA         7.1220   31.7650  -39.1630 C.3   114  MET114      0.1570
    141  C          8.3320   31.6840  -40.0870 C.2   114  MET114      0.2261
    142  O          8.8100   32.7070  -40.5970 O.2   114  MET114     -0.2867
    143  CB         7.5740   31.8640  -37.7020 C.3   114  MET114      0.0387
    144  CG         8.8160   32.7180  -37.4900 C.3   114  MET114      0.0595
    145  SD         9.1730   33.1440  -35.7650 S.3   114  MET114     -0.1393
    146  CE         7.7250   34.1150  -35.3620 C.3   114  MET114      0.0692
    147  N         17.4730   26.7880  -35.5420 N.3   128  LEU128     -0.1245
    148  CA        16.3920   26.1850  -34.7790 C.3   128  LEU128      0.1561
    149  C         17.0230   25.3170  -33.7050 C.2   128  LEU128      0.2260
    150  O         17.7330   24.3590  -34.0250 O.2   128  LEU128     -0.2867
    151  CB        15.4670   25.3560  -35.6850 C.3   128  LEU128      0.0270
    152  CG        14.3590   24.4830  -35.0830 C.3   128  LEU128      0.0019
    153  CD1       13.4720   25.2610  -34.1350 C.3   128  LEU128      0.0001
    154  CD2       13.5160   23.8460  -36.1880 C.3   128  LEU128      0.0001
@<TRIPOS>BOND
     1   142   141    2
     2   141   140    1
     3   139   140    1
     4   140   143    1
     5   137   136    2
     6   136   135    1
     7   143   144    1
     8   144   145    1
     9   128   127    2
    10   127   134   am
    11   127   126    1
    12   135   134    1
    13   135   138    1
    14   125   126    1
    15   126   129    1
    16   154   152    1
    17     7     8    1
    18     7     6    1
    19   145   146    1
    20   151   152    1
    21   151   148    1
    22   147   148    1
    23   152   153    1
    24   129   130    1
    25     6     5    1
    26   130   131    1
    27   148   149    1
    28     5     2    1
    29   150   149    2
    30   120   119    2
    31     1     2    1
    32   131   133   am
    33   131   132    2
    34   119   118    1
    35     2     3    1
    36     4     3    2
    37    78    75    1
    38   118   117    1
    39   118   121    1
    40    60    59    2
    41     3     9   am
    42    59    58    1
    43    66    67    1
    44    74    75    1
    45    74    68   am
    46    30    28    1
    47    75    76    1
    48   121   122    1
    49    67    68    1
    50    67    70    1
    51    61    58    1
    52    61    62    1
    53     9    10    1
    54    68    69    2
    55    63    62    1
    56    63    64    1
    57    28    27    1
    58    58    57    1
    59    77    76    2
    60    76    79   am
    61    71    70    1
    62    71    73    1
    63   124   122    1
    64   122   123    1
    65    70    72    1
    66   110   109    2
    67    10    11    1
    68    10    13    1
    69    57    51   am
    70    64    65    1
    71    27    29    1
    72    27    24    1
    73    79    80    1
    74    23    11   am
    75    23    24    1
    76    11    12    2
    77    52    51    2
    78    51    50    1
    79   109   108    1
    80    13    14    1
    81    49    50    1
    82    95    92    1
    83    24    25    1
    84   108   107    1
    85   108   111    1
    86    50    53    1
    87    80    81    1
    88    80    83    1
    89    81    82    2
    90    81    91   am
    91   114   116   ar
    92   114   112   ar
    93    14    16   ar
    94    14    15   ar
    95    19    16   ar
    96    19    21   ar
    97    91    92    1
    98   116   115   ar
    99    92    93    1
   100    26    25    2
   101    16    18   ar
   102    21    22   ar
   103   112   111    1
   104   112   113   ar
   105    15    17   ar
   106    83    84    1
   107    53    54    1
   108   115   113   ar
   109    94    93    2
   110    93    96   am
   111    18    17   ar
   112    18    20   ar
   113    22    20   ar
   114    84    85   ar
   115    84    86   ar
   116    85    87   ar
   117    54    56    1
   118    54    55    1
   119    96    97    1
   120    39    41   ar
   121    39    37   ar
   122    41    40   ar
   123    99    98    2
   124    98    97    1
   125    37    36   ar
   126    86    88   ar
   127    87    89   ar
   128    40    38   ar
   129    97   100    1
   130    36    38   ar
   131    36    35    1
   132    88    89   ar
   133    89    90    1
   134    35    32    1
   135   100   101    1
   136    45    44    2
   137   102   101    1
   138   102   103    1
   139    32    31    1
   140    32    33    1
   141    43    46    1
   142    43    44    1
   143    43    42    1
   144    46    47    1
   145    47    48    1
   146    42    48    1
   147   105   104    1
   148    33    34    2
   149   103   104    2
   150   104   106    1
