@<TRIPOS>MOLECULE
tmp/5fp0A00.pdb
 197 192 0 0 0
SMALL
GASTEIGER

@<TRIPOS>ATOM
      1  N         20.2040  -15.7290  -15.9020 N.3   266  PHE266     -0.1228
      2  CA        21.2820  -14.7610  -15.7860 C.3   266  PHE266      0.1721
      3  C         21.4270  -14.2820  -14.3370 C.2   266  PHE266      0.2437
      4  O         20.4230  -13.8580  -13.7530 O.2   266  PHE266     -0.2733
      5  CB        21.0090  -13.5230  -16.6800 C.3   266  PHE266      0.0547
      6  CG        22.0060  -12.3890  -16.4880 C.ar  266  PHE266     -0.0202
      7  CD1       23.2040  -12.3610  -17.2050 C.ar  266  PHE266     -0.0042
      8  CD2       21.7720  -11.3800  -15.5490 C.ar  266  PHE266     -0.0042
      9  CE1       24.1350  -11.3270  -17.0150 C.ar  266  PHE266     -0.0003
     10  CE2       22.7150  -10.3580  -15.3410 C.ar  266  PHE266     -0.0003
     11  CZ        23.8860  -10.3350  -16.0840 C.ar  266  PHE266     -0.0000
     12  N         22.6650  -14.1970  -13.7810 N.am  267  PRO267     -0.2729
     13  CA        23.9700  -14.6510  -14.3050 C.3   267  PRO267      0.1401
     14  C         24.2880  -15.9550  -13.5480 C.2   267  PRO267      0.2269
     15  O         24.8780  -15.9380  -12.4650 O.2   267  PRO267     -0.2865
     16  CB        24.8830  -13.4960  -13.8920 C.3   267  PRO267      0.0296
     17  CG        24.1970  -12.9070  -12.6000 C.3   267  PRO267      0.0237
     18  CD        22.8560  -13.5970  -12.4540 C.3   267  PRO267      0.0939
     19  N         14.3090  -17.9350  -15.6130 N.3   334  ASP334     -0.1225
     20  CA        14.7880  -16.6260  -16.0650 C.3   334  ASP334      0.1805
     21  C         15.0370  -16.6190  -17.5930 C.2   334  ASP334      0.2597
     22  O         14.0930  -16.9270  -18.3320 O.2   334  ASP334     -0.2718
     23  CB        15.9950  -16.1740  -15.1970 C.3   334  ASP334      0.1424
     24  CG        16.4660  -14.7640  -15.4520 C.2   334  ASP334      0.3668
     25  OD1       15.7840  -13.8300  -15.0160 O.co2 334  ASP334     -0.2456
     26  OD2       17.5150  -14.6020  -16.0820 O.co2 334  ASP334     -0.2456
     27  N         16.2760  -16.3280  -18.0750 N.am  335  TRP335     -0.1976
     28  CA        16.5610  -16.3490  -19.5190 C.3   335  TRP335      0.1640
     29  C         16.4120  -17.7400  -20.1300 C.2   335  TRP335      0.2290
     30  O         16.0650  -17.8530  -21.3030 O.2   335  TRP335     -0.2864
     31  CB        17.9020  -15.7000  -19.8630 C.3   335  TRP335      0.0576
     32  CG        17.7970  -14.2070  -19.9920 C.ar  335  TRP335      0.0006
     33  CD1       18.0000  -13.2850  -19.0090 C.ar  335  TRP335      0.0946
     34  CD2       17.3720  -13.4710  -21.1540 C.ar  335  TRP335      0.0152
     35  NE1       17.7090  -12.0200  -19.4800 N.ar  335  TRP335     -0.2442
     36  CE2       17.3650  -12.1020  -20.8060 C.ar  335  TRP335      0.0810
     37  CE3       16.9840  -13.8390  -22.4560 C.ar  335  TRP335      0.0012
     38  CZ2       17.0140  -11.0980  -21.7150 C.ar  335  TRP335      0.0191
     39  CZ3       16.6480  -12.8410  -23.3610 C.ar  335  TRP335      0.0001
     40  CH2       16.6420  -11.4910  -22.9830 C.ar  335  TRP335      0.0015
     41  N         12.8320  -18.2320  -21.0500 N.3   338  MET338     -0.1245
     42  CA        12.6130  -17.5620  -22.3200 C.3   338  MET338      0.1570
     43  C         12.9870  -18.5100  -23.4790 C.2   338  MET338      0.2261
     44  O         12.2010  -18.6670  -24.4110 O.2   338  MET338     -0.2867
     45  CB        13.4260  -16.2450  -22.3730 C.3   338  MET338      0.0387
     46  CG        13.1300  -15.3570  -23.5720 C.3   338  MET338      0.0595
     47  SD        11.4650  -14.6550  -23.5410 S.3   338  MET338     -0.1393
     48  CE        11.6830  -13.2750  -22.3820 C.3   338  MET338      0.0692
     49  N          9.5680  -16.8630  -15.6170 N.3   359  THR359     -0.1218
     50  CA         9.5290  -16.2260  -16.9400 C.3   359  THR359      0.1862
     51  C          8.2450  -16.5400  -17.6690 C.2   359  THR359      0.2287
     52  O          7.9970  -17.6940  -18.0270 O.2   359  THR359     -0.2866
     53  CB        10.7560  -16.6200  -17.7880 C.3   359  THR359      0.1770
     54  OG1       11.9040  -16.6210  -16.9640 O.3   359  THR359     -0.2211
     55  CG2       10.9800  -15.7070  -19.0130 C.3   359  THR359      0.0375
     56  N         12.3600   -0.3980  -15.8790 N.3   377  PHE377     -0.1241
     57  CA        13.2100   -1.5860  -15.8260 C.3   377  PHE377      0.1605
     58  C         14.4440   -1.2790  -16.6820 C.2   377  PHE377      0.2264
     59  O         14.8320   -2.0640  -17.5600 O.2   377  PHE377     -0.2867
     60  CB        12.4430   -2.8560  -16.2590 C.3   377  PHE377      0.0534
     61  CG        11.5890   -3.4930  -15.1810 C.ar  377  PHE377     -0.0203
     62  CD1       12.1640   -3.9980  -14.0180 C.ar  377  PHE377     -0.0042
     63  CD2       10.2180   -3.6360  -15.3520 C.ar  377  PHE377     -0.0042
     64  CE1       11.3760   -4.6020  -13.0280 C.ar  377  PHE377     -0.0003
     65  CE2        9.4310   -4.2510  -14.3680 C.ar  377  PHE377     -0.0003
     66  CZ        10.0160   -4.7310  -13.2120 C.ar  377  PHE377     -0.0000
     67  N         17.5780   -1.4090  -16.2230 N.3   379  TYR379     -0.1227
     68  CA        18.7750   -2.2610  -16.1710 C.3   379  TYR379      0.1736
     69  C         19.0140   -2.8200  -17.6130 C.2   379  TYR379      0.2595
     70  O         20.1610   -3.0230  -18.0040 O.2   379  TYR379     -0.2718
     71  CB        18.6470   -3.3900  -15.1120 C.3   379  TYR379      0.0548
     72  CG        17.5780   -4.4100  -15.4340 C.ar  379  TYR379     -0.0200
     73  CD1       17.8460   -5.4890  -16.2750 C.ar  379  TYR379     -0.0009
     74  CD2       16.2800   -4.2600  -14.9580 C.ar  379  TYR379     -0.0009
     75  CE1       16.8420   -6.3670  -16.6670 C.ar  379  TYR379      0.0417
     76  CE2       15.2710   -5.1510  -15.3190 C.ar  379  TYR379      0.0417
     77  CZ        15.5630   -6.2160  -16.1580 C.ar  379  TYR379      0.1957
     78  OH        14.5830   -7.1090  -16.5000 O.3   379  TYR379     -0.2866
     79  N         17.9200   -2.9900  -18.4090 N.am  380  GLN380     -0.1979
     80  CA        17.9370   -3.4240  -19.8120 C.3   380  GLN380      0.1601
     81  C         18.7750   -2.4660  -20.6530 C.2   380  GLN380      0.2287
     82  O         19.6510   -2.9390  -21.3800 O.2   380  GLN380     -0.2864
     83  CB        16.5270   -3.4760  -20.3980 C.3   380  GLN380      0.0394
     84  CG        15.6340   -4.5740  -19.8410 C.3   380  GLN380      0.0908
     85  CD        14.2100   -4.3780  -20.3110 C.2   380  GLN380      0.2608
     86  OE1       13.4220   -3.6320  -19.7090 O.2   380  GLN380     -0.2717
     87  NE2       13.8580   -5.0150  -21.4200 N.am  380  GLN380     -0.0878
     88  N         22.3780   -2.6100  -19.6300 N.3   383  PHE383     -0.1241
     89  CA        23.0010   -3.8410  -20.1350 C.3   383  PHE383      0.1605
     90  C         23.2940   -3.7980  -21.6170 C.2   383  PHE383      0.2264
     91  O         24.0170   -4.6670  -22.1100 O.2   383  PHE383     -0.2867
     92  CB        22.1570   -5.0810  -19.7710 C.3   383  PHE383      0.0534
     93  CG        22.1310   -5.5110  -18.3140 C.ar  383  PHE383     -0.0203
     94  CD1       22.9660   -4.9100  -17.3720 C.ar  383  PHE383     -0.0042
     95  CD2       21.2700   -6.5130  -17.8840 C.ar  383  PHE383     -0.0042
     96  CE1       22.9420   -5.3100  -16.0310 C.ar  383  PHE383     -0.0003
     97  CE2       21.2420   -6.9140  -16.5380 C.ar  383  PHE383     -0.0003
     98  CZ        22.0830   -6.3140  -15.6220 C.ar  383  PHE383     -0.0000
     99  N         23.6040   -9.9770   -5.7400 N.3   404  LEU404     -0.1245
    100  CA        22.5400  -10.5130   -6.5960 C.3   404  LEU404      0.1561
    101  C         21.7680  -11.6380   -5.8980 C.2   404  LEU404      0.2260
    102  O         20.5460  -11.5980   -5.8480 O.2   404  LEU404     -0.2867
    103  CB        23.1700  -11.0550   -7.9020 C.3   404  LEU404      0.0270
    104  CG        23.1040  -10.2680   -9.2090 C.3   404  LEU404      0.0019
    105  CD1       22.7750   -8.7960   -9.0280 C.3   404  LEU404      0.0001
    106  CD2       24.3390  -10.4820  -10.0220 C.3   404  LEU404      0.0001
    107  N         18.5770   -5.7100   -4.6360 N.3   413  LEU413     -0.1245
    108  CA        19.0520   -4.6450   -5.5090 C.3   413  LEU413      0.1561
    109  C         17.9060   -3.9500   -6.2520 C.2   413  LEU413      0.2260
    110  O         16.9720   -4.6260   -6.6910 O.2   413  LEU413     -0.2867
    111  CB        19.9690   -5.3180   -6.5390 C.3   413  LEU413      0.0270
    112  CG        21.2990   -4.6740   -6.8040 C.3   413  LEU413      0.0019
    113  CD1       22.2970   -5.0250   -5.7130 C.3   413  LEU413      0.0001
    114  CD2       21.8280   -5.1380   -8.1200 C.3   413  LEU413      0.0001
    115  N         16.1570   -2.2800   -9.4650 N.3   415  MET415     -0.1245
    116  CA        16.1990   -2.5070  -10.9200 C.3   415  MET415      0.1570
    117  C         15.7200   -1.2660  -11.7070 C.2   415  MET415      0.2261
    118  O         15.6110   -1.2980  -12.9410 O.2   415  MET415     -0.2867
    119  CB        15.3610   -3.7610  -11.2860 C.3   415  MET415      0.0387
    120  CG        15.8480   -5.0630  -10.6320 C.3   415  MET415      0.0595
    121  SD        17.4070   -5.6640  -11.3170 S.3   415  MET415     -0.1393
    122  CE        18.4870   -5.3420   -9.9750 C.3   415  MET415      0.0692
    123  N         24.4360   -0.8440  -11.2120 N.3   424  LEU424     -0.1245
    124  CA        23.5620   -1.7040  -10.4060 C.3   424  LEU424      0.1561
    125  C         23.9250   -1.6710   -8.9450 C.2   424  LEU424      0.2260
    126  O         23.0610   -1.9120   -8.0970 O.2   424  LEU424     -0.2867
    127  CB        23.7060   -3.1830  -10.8440 C.3   424  LEU424      0.0270
    128  CG        22.9080   -3.7030  -12.0150 C.3   424  LEU424      0.0019
    129  CD1       23.4500   -5.0510  -12.4380 C.3   424  LEU424      0.0001
    130  CD2       21.4350   -3.8180  -11.6790 C.3   424  LEU424      0.0001
    131  N         20.9440  -10.1070  -23.4840 N.3   462  TYR462     -0.1241
    132  CA        20.1260   -8.8840  -23.4210 C.3   462  TYR462      0.1605
    133  C         20.3050   -7.9700  -24.6590 C.2   462  TYR462      0.2264
    134  O         19.6170   -6.9500  -24.7700 O.2   462  TYR462     -0.2867
    135  CB        20.5800   -8.0550  -22.2100 C.3   462  TYR462      0.0534
    136  CG        20.2640   -8.6560  -20.8670 C.ar  462  TYR462     -0.0201
    137  CD1       19.0460   -8.4040  -20.2380 C.ar  462  TYR462     -0.0009
    138  CD2       21.2110   -9.4100  -20.1820 C.ar  462  TYR462     -0.0009
    139  CE1       18.7670   -8.9190  -18.9760 C.ar  462  TYR462      0.0417
    140  CE2       20.9500   -9.9160  -18.9150 C.ar  462  TYR462      0.0417
    141  CZ        19.7230   -9.6720  -18.3180 C.ar  462  TYR462      0.1957
    142  OH        19.4580  -10.1690  -17.0730 O.3   462  TYR462     -0.2866
    143  N         17.5620   -7.8540  -28.5480 N.3   465  MET465     -0.1245
    144  CA        16.1430   -7.4690  -28.3790 C.3   465  MET465      0.1570
    145  C         15.3480   -7.4270  -29.6720 C.2   465  MET465      0.2261
    146  O         14.3030   -8.0600  -29.7520 O.2   465  MET465     -0.2867
    147  CB        15.9580   -6.1540  -27.5820 C.3   465  MET465      0.0387
    148  CG        16.4490   -6.1980  -26.1300 C.3   465  MET465      0.0595
    149  SD        15.8570   -7.6410  -25.2040 S.3   465  MET465     -0.1393
    150  CE        16.4620   -7.2420  -23.5160 C.3   465  MET465      0.0692
    151  N         10.9560   -8.5570  -10.6600 N.3   494  VAL494     -0.1231
    152  CA        11.3290   -8.3540  -12.0690 C.3   494  VAL494      0.1692
    153  C         10.4230   -9.2450  -12.9360 C.2   494  VAL494      0.2591
    154  O          9.7030   -8.7170  -13.7890 O.2   494  VAL494     -0.2718
    155  CB        12.8350   -8.3410  -12.4590 C.3   494  VAL494      0.0266
    156  CG1       13.6280   -9.4370  -11.7640 C.3   494  VAL494      0.0020
    157  CG2       13.0120   -8.4220  -13.9730 C.3   494  VAL494      0.0020
    158  N         10.3820  -10.5730  -12.6460 N.am  495  LEU495     -0.1980
    159  CA         9.4940  -11.5140  -13.3470 C.3   495  LEU495      0.1596
    160  C          8.2580  -11.7510  -12.4730 C.2   495  LEU495      0.2287
    161  O          8.1170  -12.7850  -11.8270 O.2   495  LEU495     -0.2864
    162  CB        10.2270  -12.8150  -13.7580 C.3   495  LEU495      0.0297
    163  CG        11.4980  -12.6390  -14.6530 C.3   495  LEU495      0.0022
    164  CD1       12.2290  -13.9650  -14.8760 C.3   495  LEU495      0.0001
    165  CD2       11.1780  -11.9820  -15.9880 C.3   495  LEU495      0.0001
    166  N          2.5000  -10.6350  -14.7730 N.3   499  MET499     -0.1245
    167  CA         2.9800  -10.6330  -16.1560 C.3   499  MET499      0.1570
    168  C          2.5570  -11.9000  -16.9300 C.2   499  MET499      0.2261
    169  O          2.5150  -11.8760  -18.1610 O.2   499  MET499     -0.2867
    170  CB         4.5130  -10.5380  -16.1760 C.3   499  MET499      0.0387
    171  CG         5.0760   -9.1480  -15.9760 C.3   499  MET499      0.0595
    172  SD         6.9050   -9.1980  -16.0240 S.3   499  MET499     -0.1393
    173  CE         7.1850   -9.5950  -17.8380 C.3   499  MET499      0.0692
    174  N         13.3340  -13.9820   -6.8040 N.3   520  HIS520     -0.1226
    175  CA        13.8010  -14.2960   -8.1460 C.3   520  HIS520      0.1752
    176  C         14.6050  -15.5890   -8.2850 C.2   520  HIS520      0.2596
    177  O         14.5310  -16.2390   -9.3230 O.2   520  HIS520     -0.2718
    178  CB        14.6330  -13.1320   -8.7090 C.3   520  HIS520      0.0759
    179  CG        15.0210  -13.3570  -10.1400 C.ar  520  HIS520      0.0818
    180  ND1       16.3130  -13.6640  -10.4920 N.ar  520  HIS520     -0.2268
    181  CD2       14.2420  -13.4200  -11.2440 C.ar  520  HIS520      0.1154
    182  CE1       16.3020  -13.8180  -11.8010 C.ar  520  HIS520      0.1986
    183  NE2       15.0740  -13.6950  -12.2940 N.ar  520  HIS520     -0.2212
    184  N         15.4230  -15.9220   -7.2810 N.am  521  TRP521     -0.1976
    185  CA        16.3380  -17.0730   -7.3100 C.3   521  TRP521      0.1640
    186  C         15.6260  -18.2980   -6.7710 C.2   521  TRP521      0.2290
    187  O         16.0530  -18.9220   -5.8000 O.2   521  TRP521     -0.2864
    188  CB        17.6520  -16.7300   -6.5770 C.3   521  TRP521      0.0576
    189  CG        18.1250  -15.3320   -6.8690 C.ar  521  TRP521      0.0006
    190  CD1       17.8950  -14.2190   -6.1120 C.ar  521  TRP521      0.0946
    191  CD2       18.7580  -14.8690   -8.0780 C.ar  521  TRP521      0.0152
    192  NE1       18.4100  -13.1040   -6.7390 N.ar  521  TRP521     -0.2442
    193  CE2       18.9490  -13.4740   -7.9430 C.ar  521  TRP521      0.0810
    194  CE3       19.2140  -15.5040   -9.2470 C.ar  521  TRP521      0.0012
    195  CZ2       19.5770  -12.7100   -8.9240 C.ar  521  TRP521      0.0191
    196  CZ3       19.8410  -14.7460  -10.2170 C.ar  521  TRP521      0.0001
    197  CH2       20.0160  -13.3670  -10.0560 C.ar  521  TRP521      0.0015
@<TRIPOS>BOND
     1   146   145    2
     2   145   144    1
     3   143   144    1
     4   144   147    1
     5   147   148    1
     6   148   149    1
     7   149   150    1
     8   134   133    2
     9   133   132    1
    10    44    43    2
    11    46    47    1
    12    46    45    1
    13    47    48    1
    14   131   132    1
    15    43    42    1
    16   132   135    1
    17    39    40   ar
    18    39    37   ar
    19    40    38   ar
    20    37    34   ar
    21    45    42    1
    22    42    41    1
    23   135   136    1
    24    91    90    2
    25    38    36   ar
    26    90    89    1
    27    87    85   am
    28    82    81    2
    29    30    29    2
    30    34    36   ar
    31    34    32   ar
    32   136   137   ar
    33   136   138   ar
    34    36    35   ar
    35    81    80    1
    36    83    84    1
    37    83    80    1
    38    85    84    1
    39    85    86    2
    40   137   139   ar
    41   138   140   ar
    42    89    92    1
    43    89    88    1
    44    29    28    1
    45    32    31    1
    46    32    33   ar
    47    31    28    1
    48    80    79    1
    49    92    93    1
    50    28    27    1
    51    35    33   ar
    52    55    53    1
    53   139   141   ar
    54   140   141   ar
    55    79    69   am
    56    22    21    2
    57   141   142    1
    58    93    95   ar
    59    93    94   ar
    60   169   168    2
    61    27    21   am
    62    52    51    2
    63    70    69    2
    64    95    97   ar
    65   173   172    1
    66    53    54    1
    67    53    50    1
    68    51    50    1
    69    69    68    1
    70    21    20    1
    71    59    58    2
    72    94    96   ar
    73     7     9   ar
    74     7     6   ar
    75     9    11   ar
    76    50    49    1
    77   168   167    1
    78    58    57    1
    79     5     6    1
    80     5     2    1
    81    75    73   ar
    82    75    77   ar
    83    97    98   ar
    84    78    77    1
    85     6     8   ar
    86    73    72   ar
    87    60    57    1
    88    60    61    1
    89    67    68    1
    90   170   167    1
    91   170   171    1
    92    68    71    1
    93    77    76   ar
    94   167   166    1
    95    11    10   ar
    96    26    24   ar
    97    20    19    1
    98    20    23    1
    99    96    98   ar
   100   172   171    1
   101   165   163    1
   102     1     2    1
   103    56    57    1
   104     2     3    1
   105     8    10   ar
   106    24    23    1
   107    24    25   ar
   108    72    71    1
   109    72    74   ar
   110    63    61   ar
   111    63    65   ar
   112    76    74   ar
   113    61    62   ar
   114   164   163    1
   115   163   162    1
   116    65    66   ar
   117     3    12   am
   118     3     4    2
   119    13    16    1
   120    13    12    1
   121    13    14    1
   122    62    64   ar
   123   157   155    1
   124    16    17    1
   125   154   153    2
   126    12    18    1
   127   162   159    1
   128    14    15    2
   129   159   158    1
   130   159   160    1
   131    66    64   ar
   132   118   117    2
   133   153   158   am
   134   153   152    1
   135    17    18    1
   136   160   161    2
   137   155   152    1
   138   155   156    1
   139   129   128    1
   140   183   182   ar
   141   183   181   ar
   142   152   151    1
   143   128   130    1
   144   128   127    1
   145   182   180   ar
   146   117   116    1
   147   121   120    1
   148   121   122    1
   149   119   116    1
   150   119   120    1
   151   181   179   ar
   152   123   124    1
   153   116   115    1
   154   127   124    1
   155   180   179   ar
   156   124   125    1
   157   196   197   ar
   158   196   194   ar
   159   179   178    1
   160   197   195   ar
   161   106   104    1
   162   177   176    2
   163   194   191   ar
   164   104   105    1
   165   104   103    1
   166   125   126    2
   167   195   193   ar
   168   178   175    1
   169   176   175    1
   170   176   184   am
   171   175   174    1
   172   114   112    1
   173   191   193   ar
   174   191   189   ar
   175   193   192   ar
   176   103   100    1
   177   185   184    1
   178   185   186    1
   179   185   188    1
   180   189   188    1
   181   189   190   ar
   182   112   111    1
   183   112   113    1
   184   186   187    2
   185   192   190   ar
   186   110   109    2
   187   100   101    1
   188   100    99    1
   189   111   108    1
   190   109   108    1
   191   101   102    2
   192   108   107    1
