@<TRIPOS>MOLECULE
tmp/5fp1A07.pdb
 105 103 0 0 0
SMALL
GASTEIGER

@<TRIPOS>ATOM
      1  N         42.2060   60.1710   43.5660 N.3   204  TYR204     -0.1241
      2  CA        42.3890   59.7400   44.9250 C.3   204  TYR204      0.1605
      3  C         43.6740   60.3540   45.4100 C.2   204  TYR204      0.2264
      4  O         44.6320   60.5130   44.6400 O.2   204  TYR204     -0.2867
      5  CB        42.4750   58.2120   44.9730 C.3   204  TYR204      0.0534
      6  CG        42.8430   57.6190   46.3070 C.ar  204  TYR204     -0.0201
      7  CD1       41.9810   57.7340   47.4120 C.ar  204  TYR204     -0.0009
      8  CD2       44.0280   56.9000   46.4800 C.ar  204  TYR204     -0.0009
      9  CE1       42.3100   57.1710   48.6340 C.ar  204  TYR204      0.0417
     10  CE2       44.3550   56.3420   47.7080 C.ar  204  TYR204      0.0417
     11  CZ        43.5030   56.4910   48.7820 C.ar  204  TYR204      0.1957
     12  OH        43.8110   55.9140   50.0040 O.3   204  TYR204     -0.2866
     13  N         42.7920   60.7470   53.3770 N.3   253  HIS253     -0.1226
     14  CA        42.3400   60.1450   52.1260 C.3   253  HIS253      0.1752
     15  C         41.3400   61.0840   51.5200 C.2   253  HIS253      0.2596
     16  O         40.4490   61.5830   52.2300 O.2   253  HIS253     -0.2718
     17  CB        41.6100   58.8260   52.3930 C.3   253  HIS253      0.0759
     18  CG        42.4200   57.7870   53.0860 C.ar  253  HIS253      0.0818
     19  ND1       42.9560   56.7020   52.4210 N.ar  253  HIS253     -0.2268
     20  CD2       42.7480   57.6270   54.3940 C.ar  253  HIS253      0.1154
     21  CE1       43.5970   55.9340   53.2850 C.ar  253  HIS253      0.1986
     22  NE2       43.4960   56.4780   54.4860 N.ar  253  HIS253     -0.2212
     23  N         41.4490   61.3300   50.2110 N.am  254  ILE254     -0.1966
     24  CA        40.4140   62.0820   49.5030 C.3   254  ILE254      0.1727
     25  C         40.0810   61.3510   48.1770 C.2   254  ILE254      0.2616
     26  O         40.9870   61.0410   47.4030 O.2   254  ILE254     -0.2715
     27  CB        40.8710   63.5240   49.1290 C.3   254  ILE254      0.0290
     28  CG1       41.3890   64.2890   50.3520 C.3   254  ILE254      0.0022
     29  CG2       39.7160   64.2990   48.4600 C.3   254  ILE254      0.0023
     30  CD1       41.9880   65.6510   50.0340 C.3   254  ILE254      0.0001
     31  N         38.7980   61.1240   47.9390 N.am  255  GLY255     -0.1955
     32  CA        38.3100   60.5140   46.6960 C.3   255  GLY255      0.1869
     33  C         37.3590   61.4910   46.0190 C.2   255  GLY255      0.2309
     34  O         36.4480   62.0220   46.6580 O.2   255  GLY255     -0.2863
     35  N         34.8310   62.8440   48.7770 N.3   275  TYR275     -0.1227
     36  CA        34.7150   62.0760   49.9880 C.3   275  TYR275      0.1736
     37  C         36.0740   62.2170   50.6850 C.2   275  TYR275      0.2595
     38  O         37.1070   61.9550   50.0780 O.2   275  TYR275     -0.2718
     39  CB        34.4560   60.5980   49.6410 C.3   275  TYR275      0.0548
     40  CG        33.1920   60.3340   48.8040 C.ar  275  TYR275     -0.0200
     41  CD1       33.1920   60.4910   47.4070 C.ar  275  TYR275     -0.0009
     42  CD2       32.0060   59.9150   49.4120 C.ar  275  TYR275     -0.0009
     43  CE1       32.0530   60.2590   46.6590 C.ar  275  TYR275      0.0417
     44  CE2       30.8600   59.6820   48.6680 C.ar  275  TYR275      0.0417
     45  CZ        30.8990   59.8520   47.2970 C.ar  275  TYR275      0.1957
     46  OH        29.7680   59.6170   46.5690 O.3   275  TYR275     -0.2866
     47  N         36.0940   62.6560   51.9360 N.am  276  ALA276     -0.1966
     48  CA        37.3740   62.8460   52.6230 C.3   276  ALA276      0.1728
     49  C         37.3730   62.1530   53.9650 C.2   276  ALA276      0.2616
     50  O         36.3880   62.1860   54.6910 O.2   276  ALA276     -0.2715
     51  CB        37.6980   64.3220   52.8010 C.3   276  ALA276      0.0334
     52  N         38.4950   61.5360   54.2980 N.am  277  LYS277     -0.1977
     53  CA        38.6660   60.9330   55.6110 C.3   277  LYS277      0.1596
     54  C         39.9520   61.5230   56.1760 C.2   277  LYS277      0.2287
     55  O         40.9710   61.5810   55.4820 O.2   277  LYS277     -0.2864
     56  CB        38.7680   59.4090   55.5030 C.3   277  LYS277      0.0298
     57  CG        39.1660   58.7480   56.8180 C.3   277  LYS277      0.0038
     58  CD        38.2070   57.6580   57.2180 C.3   277  LYS277      0.0206
     59  CE        38.5350   57.0780   58.5760 C.3   277  LYS277      0.1093
     60  NZ        37.2770   56.9800   59.3550 N.3   277  LYS277     -0.1314
     61  N         35.0690   62.3490   58.7710 N.3   311  GLU311     -0.1231
     62  CA        34.6480   62.0020   57.4110 C.3   311  GLU311      0.1699
     63  C         33.7630   63.0930   56.8550 C.2   311  GLU311      0.2593
     64  O         32.8600   63.5880   57.5490 O.2   311  GLU311     -0.2718
     65  CB        33.8750   60.6570   57.4020 C.3   311  GLU311      0.0402
     66  CG        34.7580   59.5360   57.9010 C.3   311  GLU311      0.1161
     67  CD        34.1380   58.1350   57.7660 C.2   311  GLU311      0.3649
     68  OE1       32.9780   57.9980   57.3150 O.co2 311  GLU311     -0.2457
     69  OE2       34.8380   57.1730   58.1330 O.co2 311  GLU311     -0.2457
     70  N         34.0160   63.4630   55.6110 N.am  312  THR312     -0.1939
     71  CA        33.2490   64.5460   54.9870 C.3   312  THR312      0.2028
     72  C         32.8040   64.1350   53.5880 C.2   312  THR312      0.2642
     73  O         33.5690   63.5390   52.8420 O.2   312  THR312     -0.2714
     74  CB        34.1050   65.8340   54.8470 C.3   312  THR312      0.1808
     75  OG1       34.7090   66.1610   56.1130 O.3   312  THR312     -0.2208
     76  CG2       33.2480   66.9780   54.3630 C.3   312  THR312      0.0379
     77  N         31.5690   64.4570   53.2430 N.am  313  PHE313     -0.1973
     78  CA        31.0910   64.3380   51.8660 C.3   313  PHE313      0.1639
     79  C         30.6550   65.7060   51.3900 C.2   313  PHE313      0.2290
     80  O         29.9120   66.4040   52.0920 O.2   313  PHE313     -0.2864
     81  CB        29.8770   63.4020   51.7670 C.3   313  PHE313      0.0560
     82  CG        29.2240   63.4160   50.3910 C.ar  313  PHE313     -0.0200
     83  CD1       29.8680   62.8700   49.3000 C.ar  313  PHE313     -0.0042
     84  CD2       27.9990   64.0170   50.2030 C.ar  313  PHE313     -0.0042
     85  CE1       29.2920   62.9050   48.0330 C.ar  313  PHE313     -0.0003
     86  CE2       27.4200   64.0610   48.9450 C.ar  313  PHE313     -0.0003
     87  CZ        28.0810   63.5260   47.8600 C.ar  313  PHE313     -0.0000
     88  N         28.3780   67.3840   54.3290 N.3   340  LYS340     -0.1245
     89  CA        28.1300   66.8960   55.6590 C.3   340  LYS340      0.1561
     90  C         29.4030   66.2840   56.2090 C.2   340  LYS340      0.2260
     91  O         30.0600   65.4760   55.5490 O.2   340  LYS340     -0.2867
     92  CB        26.9920   65.8780   55.6840 C.3   340  LYS340      0.0271
     93  CG        26.6200   65.4820   57.0990 C.3   340  LYS340      0.0035
     94  CD        25.5250   64.4170   57.1200 C.3   340  LYS340      0.0206
     95  CE        25.0260   64.1950   58.5300 C.3   340  LYS340      0.1093
     96  NZ        23.7570   63.4110   58.4990 N.3   340  LYS340     -0.1314
     97  N         31.2700   64.5880   59.7700 N.3   342  LYS342     -0.1245
     98  CA        31.1310   63.9940   61.0920 C.3   342  LYS342      0.1561
     99  C         32.5070   63.6920   61.6600 C.2   342  LYS342      0.2260
    100  O         33.3630   63.0910   60.9960 O.2   342  LYS342     -0.2867
    101  CB        30.3130   62.6950   61.0550 C.3   342  LYS342      0.0271
    102  CG        28.8880   62.8900   60.5480 C.3   342  LYS342      0.0035
    103  CD        27.9640   61.6990   60.8360 C.3   342  LYS342      0.0206
    104  CE        27.5380   61.6160   62.3090 C.3   342  LYS342      0.1093
    105  NZ        26.3540   62.4720   62.6700 N.3   342  LYS342     -0.1314
@<TRIPOS>BOND
     1     1     2    1
     2     4     3    2
     3     2     5    1
     4     2     3    1
     5     5     6    1
     6    33    34    2
     7    33    32    1
     8     6     8   ar
     9     6     7   ar
    10     8    10   ar
    11    46    45    1
    12    43    45   ar
    13    43    41   ar
    14    32    31    1
    15    45    44   ar
    16    26    25    2
    17    41    40   ar
    18     7     9   ar
    19    10    11   ar
    20    87    85   ar
    21    87    86   ar
    22    31    25   am
    23    85    83   ar
    24    25    24    1
    25    29    27    1
    26     9    11   ar
    27    44    42   ar
    28    35    36    1
    29    11    12    1
    30    40    42   ar
    31    40    39    1
    32    86    84   ar
    33    27    24    1
    34    27    28    1
    35    83    82   ar
    36    24    23    1
    37    39    36    1
    38    36    37    1
    39    30    28    1
    40    38    37    2
    41    84    82   ar
    42    23    15   am
    43    82    81    1
    44    37    47   am
    45    79    78    1
    46    79    80    2
    47    15    14    1
    48    15    16    2
    49    81    78    1
    50    78    77    1
    51    47    48    1
    52    14    17    1
    53    14    13    1
    54    17    18    1
    55    19    18   ar
    56    19    21   ar
    57    48    51    1
    58    48    49    1
    59    73    72    2
    60    18    20   ar
    61    77    72   am
    62    21    22   ar
    63    72    71    1
    64    49    52   am
    65    49    50    2
    66    52    53    1
    67    88    89    1
    68    76    74    1
    69    20    22   ar
    70    74    71    1
    71    74    75    1
    72    71    70    1
    73    55    54    2
    74    56    53    1
    75    56    57    1
    76    91    90    2
    77    70    63   am
    78    53    54    1
    79    89    92    1
    80    89    90    1
    81    92    93    1
    82    57    58    1
    83    63    62    1
    84    63    64    2
    85    93    94    1
    86    94    95    1
    87    58    59    1
    88    68    67   ar
    89    65    62    1
    90    65    66    1
    91    62    61    1
    92    67    66    1
    93    67    69   ar
    94    96    95    1
    95    59    60    1
    96    97    98    1
    97   102   103    1
    98   102   101    1
    99   103   104    1
   100   100    99    2
   101   101    98    1
   102    98    99    1
   103   104   105    1
