@<TRIPOS>MOLECULE
tmp/5fp1A01.pdb
 76 73 0 0 0
SMALL
GASTEIGER

@<TRIPOS>ATOM
      1  N         42.3920   61.7690   59.7620 N.3   279  LYS279     -0.1245
      2  CA        42.7290   61.3750   61.1260 C.3   279  LYS279      0.1561
      3  C         43.9350   62.1270   61.6400 C.2   279  LYS279      0.2260
      4  O         44.8530   62.4250   60.8920 O.2   279  LYS279     -0.2867
      5  CB        43.0060   59.8630   61.1850 C.3   279  LYS279      0.0271
      6  CG        41.8250   59.0580   60.6700 C.3   279  LYS279      0.0035
      7  CD        42.0640   57.5480   60.6650 C.3   279  LYS279      0.0206
      8  CE        42.1670   57.0190   62.0770 C.3   279  LYS279      0.1093
      9  NZ        41.7350   55.5930   62.1550 N.3   279  LYS279     -0.1314
     10  N         42.8880   63.2330   69.5660 N.3   307  ILE307     -0.1231
     11  CA        42.6880   62.1190   68.6640 C.3   307  ILE307      0.1692
     12  C         41.4160   62.4290   67.9100 C.2   307  ILE307      0.2593
     13  O         40.3410   62.5190   68.5170 O.2   307  ILE307     -0.2718
     14  CB        42.4610   60.7860   69.4150 C.3   307  ILE307      0.0266
     15  CG1       43.5280   60.5430   70.4900 C.3   307  ILE307      0.0019
     16  CG2       42.4040   59.6270   68.4080 C.3   307  ILE307      0.0020
     17  CD1       43.1350   59.4620   71.5010 C.3   307  ILE307      0.0001
     18  N         41.5240   62.6670   66.6120 N.am  308  THR308     -0.1939
     19  CA        40.3590   63.0140   65.8280 C.3   308  THR308      0.2028
     20  C         40.2030   62.0690   64.6490 C.2   308  THR308      0.2642
     21  O         41.2000   61.6300   64.0350 O.2   308  THR308     -0.2714
     22  CB        40.3720   64.4700   65.3130 C.3   308  THR308      0.1808
     23  OG1       41.5250   64.7220   64.4720 O.3   308  THR308     -0.2208
     24  CG2       40.3570   65.4430   66.4950 C.3   308  THR308      0.0379
     25  N         38.9490   61.8680   64.2750 N.am  309  ASP309     -0.1971
     26  CA        38.6190   61.0370   63.1110 C.3   309  ASP309      0.1709
     27  C         37.4190   61.6600   62.4390 C.2   309  ASP309      0.2293
     28  O         36.3270   61.7180   63.0100 O.2   309  ASP309     -0.2864
     29  CB        38.3140   59.6090   63.5470 C.3   309  ASP309      0.1436
     30  CG        38.0990   58.6570   62.3630 C.2   309  ASP309      0.3671
     31  OD1       37.7530   59.0970   61.2660 O.co2 309  ASP309     -0.2456
     32  OD2       38.2460   57.4480   62.5550 O.co2 309  ASP309     -0.2456
     33  N         34.6770   62.4410   65.2910 N.3   344  ASP344     -0.1225
     34  CA        34.8630   61.9780   66.6570 C.3   344  ASP344      0.1805
     35  C         36.1370   62.5960   67.2320 C.2   344  ASP344      0.2598
     36  O         37.1670   62.6410   66.5580 O.2   344  ASP344     -0.2718
     37  CB        35.0120   60.4480   66.6880 C.3   344  ASP344      0.1424
     38  CG        33.6920   59.7140   66.4110 C.2   344  ASP344      0.3668
     39  OD1       32.6280   60.2870   66.6590 O.co2 344  ASP344     -0.2456
     40  OD2       33.7300   58.5430   65.9910 O.co2 344  ASP344     -0.2456
     41  N         36.0840   63.0590   68.4760 N.am  345  LYS345     -0.1966
     42  CA        37.2640   63.6410   69.1070 C.3   345  LYS345      0.1728
     43  C         37.4880   63.0980   70.4970 C.2   345  LYS345      0.2616
     44  O         36.5540   63.0360   71.3250 O.2   345  LYS345     -0.2715
     45  CB        37.1510   65.1780   69.1740 C.3   345  LYS345      0.0311
     46  CG        38.4130   65.8910   69.6820 C.3   345  LYS345      0.0038
     47  CD        38.4630   66.1130   71.1890 C.3   345  LYS345      0.0206
     48  CE        39.7640   66.7830   71.6300 C.3   345  LYS345      0.1093
     49  NZ        39.9130   66.9700   73.0980 N.3   345  LYS345     -0.1314
     50  N         38.7530   62.7690   70.7720 N.am  346  GLY346     -0.1955
     51  CA        39.1960   62.3900   72.1130 C.3   346  GLY346      0.1869
     52  C         40.5650   62.9960   72.3850 C.2   346  GLY346      0.2309
     53  O         41.0900   63.8380   71.5990 O.2   346  GLY346     -0.2863
     54  N         43.7410   56.5550   75.9110 N.3   391  ALA391     -0.1231
     55  CA        42.8170   57.3180   75.0720 C.3   391  ALA391      0.1694
     56  C         41.5190   57.5440   75.8350 C.2   391  ALA391      0.2592
     57  O         41.0760   56.6760   76.5880 O.2   391  ALA391     -0.2718
     58  CB        42.5580   56.5730   73.7690 C.3   391  ALA391      0.0304
     59  N         40.9180   58.7080   75.6450 N.am  392  ARG392     -0.1966
     60  CA        39.7140   59.1310   76.3520 C.3   392  ARG392      0.1714
     61  C         38.8160   59.8600   75.3260 C.2   392  ARG392      0.2458
     62  O         39.2640   60.8220   74.7290 O.2   392  ARG392     -0.2730
     63  CB        40.0940   60.1270   77.4530 C.3   392  ARG392      0.0347
     64  CG        38.9370   60.7170   78.2560 C.3   392  ARG392      0.0492
     65  CD        39.2880   62.0650   78.9010 C.3   392  ARG392      0.2205
     66  NE        39.5590   63.0350   77.8460 N.pl3 392  ARG392     -0.0865
     67  CZ        40.7480   63.5490   77.5510 C.cat 392  ARG392      0.5346
     68  NH1       41.8200   63.2850   78.2960 N.pl3 392  ARG392      0.1354
     69  NH2       40.8540   64.3540   76.5100 N.pl3 392  ARG392      0.1354
     70  N         37.5490   59.4320   75.1570 N.am  393  PRO393     -0.2727
     71  CA        36.6460   60.1160   74.2200 C.3   393  PRO393      0.1402
     72  C         36.0840   61.3800   74.8460 C.2   393  PRO393      0.2269
     73  O         35.8890   61.4160   76.0490 O.2   393  PRO393     -0.2865
     74  CB        35.5440   59.0730   73.9690 C.3   393  PRO393      0.0296
     75  CG        35.4730   58.3140   75.2710 C.3   393  PRO393      0.0237
     76  CD        36.8890   58.2940   75.8300 C.3   393  PRO393      0.0939
@<TRIPOS>BOND
     1     1     2    1
     2     7     6    1
     3     7     8    1
     4     6     5    1
     5     4     3    2
     6     2     5    1
     7     2     3    1
     8    31    30   ar
     9     8     9    1
    10    30    32   ar
    11    30    29    1
    12    27    28    2
    13    27    26    1
    14    26    29    1
    15    26    25    1
    16    21    20    2
    17    25    20   am
    18    23    22    1
    19    20    19    1
    20    33    34    1
    21    22    19    1
    22    22    24    1
    23    19    18    1
    24    40    38   ar
    25    38    39   ar
    26    38    37    1
    27    36    35    2
    28    18    12   am
    29    34    37    1
    30    34    35    1
    31    35    41   am
    32    12    13    2
    33    12    11    1
    34    16    14    1
    35    41    42    1
    36    11    14    1
    37    11    10    1
    38    42    45    1
    39    42    43    1
    40    45    46    1
    41    14    15    1
    42    46    47    1
    43    15    17    1
    44    43    50   am
    45    43    44    2
    46    50    51    1
    47    47    48    1
    48    53    52    2
    49    48    49    1
    50    51    52    1
    51    58    55    1
    52    74    71    1
    53    74    75    1
    54    71    72    1
    55    71    70    1
    56    62    61    2
    57    72    73    2
    58    55    56    1
    59    55    54    1
    60    70    61   am
    61    70    76    1
    62    75    76    1
    63    61    60    1
    64    59    56   am
    65    59    60    1
    66    56    57    2
    67    60    63    1
    68    69    67    1
    69    63    64    1
    70    67    66    2
    71    67    68    1
    72    66    65    1
    73    64    65    1
