@<TRIPOS>MOLECULE
tmp/5fp1A00.pdb
 90 89 0 0 0
SMALL
GASTEIGER

@<TRIPOS>ATOM
      1  N         34.6420   98.4710   30.6610 N.3   416  TRP416     -0.1241
      2  CA        33.8290   98.4980   31.8680 C.3   416  TRP416      0.1605
      3  C         33.3030   97.1110   32.2330 C.2   416  TRP416      0.2264
      4  O         32.5120   96.5240   31.4820 O.2   416  TRP416     -0.2867
      5  CB        32.6630   99.4370   31.6910 C.3   416  TRP416      0.0550
      6  CG        33.0430  100.8970   31.5740 C.ar  416  TRP416      0.0003
      7  CD1       33.2250  101.6120   30.4230 C.ar  416  TRP416      0.0946
      8  CD2       33.2510  101.8110   32.6520 C.ar  416  TRP416      0.0152
      9  NE1       33.5430  102.9220   30.7180 N.ar  416  TRP416     -0.2442
     10  CE2       33.5490  103.0740   32.0810 C.ar  416  TRP416      0.0810
     11  CE3       33.2130  101.6920   34.0480 C.ar  416  TRP416      0.0012
     12  CZ2       33.8190  104.1960   32.8590 C.ar  416  TRP416      0.0191
     13  CZ3       33.4790  102.8230   34.8230 C.ar  416  TRP416      0.0001
     14  CH2       33.7830  104.0540   34.2220 C.ar  416  TRP416      0.0015
     15  N         33.5270   97.0840   40.4160 N.3   457  ILE457     -0.1245
     16  CA        33.6290   97.6560   39.0740 C.3   457  ILE457      0.1561
     17  C         35.0790   97.7430   38.6840 C.2   457  ILE457      0.2260
     18  O         35.8980   98.2370   39.4560 O.2   457  ILE457     -0.2867
     19  CB        33.0440   99.0590   39.0430 C.3   457  ILE457      0.0252
     20  CG1       31.5610   98.9930   39.4160 C.3   457  ILE457      0.0019
     21  CG2       33.2590   99.6710   37.6530 C.3   457  ILE457      0.0019
     22  CD1       30.9360  100.3440   39.6780 C.3   457  ILE457      0.0001
     23  N         37.5280   99.3020   35.6850 N.3   459  PHE459     -0.1241
     24  CA        37.7170  100.1630   34.5020 C.3   459  PHE459      0.1605
     25  C         39.0370   99.8080   33.8790 C.2   459  PHE459      0.2264
     26  O         40.0630   99.7350   34.5490 O.2   459  PHE459     -0.2867
     27  CB        37.6900  101.6610   34.8470 C.3   459  PHE459      0.0534
     28  CG        37.9940  102.5290   33.6590 C.ar  459  PHE459     -0.0203
     29  CD1       37.0650  102.6470   32.6250 C.ar  459  PHE459     -0.0042
     30  CD2       39.2240  103.1420   33.5270 C.ar  459  PHE459     -0.0042
     31  CE1       37.3480  103.4060   31.4970 C.ar  459  PHE459     -0.0003
     32  CE2       39.5060  103.9000   32.4010 C.ar  459  PHE459     -0.0003
     33  CZ        38.5740  104.0300   31.3920 C.ar  459  PHE459     -0.0000
     34  N         41.6880   99.2760   36.8260 N.3   467  ILE467     -0.1231
     35  CA        41.5540  100.0230   38.0670 C.3   467  ILE467      0.1692
     36  C         40.2020   99.6490   38.6030 C.2   467  ILE467      0.2592
     37  O         39.2090   99.6250   37.8450 O.2   467  ILE467     -0.2718
     38  CB        41.5960  101.5590   37.8680 C.3   467  ILE467      0.0266
     39  CG1       42.7940  101.9760   37.0330 C.3   467  ILE467      0.0019
     40  CG2       41.7020  102.2560   39.2130 C.3   467  ILE467      0.0020
     41  CD1       42.6700  103.4190   36.5490 C.3   467  ILE467      0.0001
     42  N         40.1310   99.3140   39.8950 N.am  468  TYR468     -0.1962
     43  CA        38.8880   98.7960   40.4230 C.3   468  TYR468      0.1771
     44  C         38.5960   99.2420   41.8160 C.2   468  TYR468      0.2620
     45  O         39.4890   99.6910   42.5470 O.2   468  TYR468     -0.2715
     46  CB        38.8660   97.2520   40.3480 C.3   468  TYR468      0.0574
     47  CG        39.8350   96.5900   41.3110 C.ar  468  TYR468     -0.0198
     48  CD1       39.4470   96.2630   42.6190 C.ar  468  TYR468     -0.0009
     49  CD2       41.1360   96.3180   40.9240 C.ar  468  TYR468     -0.0009
     50  CE1       40.3470   95.6600   43.5150 C.ar  468  TYR468      0.0417
     51  CE2       42.0360   95.7090   41.7960 C.ar  468  TYR468      0.0417
     52  CZ        41.6330   95.3810   43.0880 C.ar  468  TYR468      0.1957
     53  OH        42.5680   94.8260   43.9310 O.3   468  TYR468     -0.2866
     54  N         37.3170   99.1120   42.1530 N.am  469  THR469     -0.1951
     55  CA        36.7860   99.2710   43.5060 C.3   469  THR469      0.1897
     56  C         35.9050   98.0650   43.7570 C.2   469  THR469      0.2313
     57  O         35.1210   97.6900   42.8850 O.2   469  THR469     -0.2863
     58  CB        35.8700  100.5150   43.6130 C.3   469  THR469      0.1794
     59  OG1       36.5540  101.6650   43.1110 O.3   469  THR469     -0.2208
     60  CG2       35.4590  100.7530   45.0600 C.3   469  THR469      0.0378
     61  N         36.4760   96.3850   51.9480 N.3   506  PHE506     -0.1241
     62  CA        36.4140   97.4520   50.9280 C.3   506  PHE506      0.1605
     63  C         37.8060   97.6120   50.3250 C.2   506  PHE506      0.2264
     64  O         38.7930   97.7900   51.0430 O.2   506  PHE506     -0.2867
     65  CB        35.9550   98.7910   51.5320 C.3   506  PHE506      0.0534
     66  CG        36.0050   99.9310   50.5060 C.ar  506  PHE506     -0.0203
     67  CD1       35.0220  100.0290   49.5250 C.ar  506  PHE506     -0.0042
     68  CD2       37.0770  100.8120   50.4590 C.ar  506  PHE506     -0.0042
     69  CE1       35.0620  101.0400   48.5680 C.ar  506  PHE506     -0.0003
     70  CE2       37.1360  101.8140   49.4950 C.ar  506  PHE506     -0.0003
     71  CZ        36.1260  101.9240   48.5500 C.ar  506  PHE506     -0.0000
     72  N         40.2740   99.1420   46.8750 N.3   508  ILE508     -0.1231
     73  CA        40.5470   99.7920   45.6190 C.3   508  ILE508      0.1692
     74  C         41.8930   99.3170   45.1770 C.2   508  ILE508      0.2593
     75  O         42.8100   99.1350   45.9850 O.2   508  ILE508     -0.2718
     76  CB        40.5390  101.3230   45.7730 C.3   508  ILE508      0.0266
     77  CG1       41.4480  101.7680   46.8950 C.3   508  ILE508      0.0019
     78  CG2       39.1460  101.7960   46.0760 C.3   508  ILE508      0.0020
     79  CD1       41.5390  103.2730   47.0010 C.3   508  ILE508      0.0001
     80  N         42.0310   99.1000   43.8820 N.am  509  GLY509     -0.1942
     81  CA        43.2700   98.6020   43.3770 C.3   509  GLY509      0.2014
     82  C         43.5180   98.8510   41.9060 C.2   509  GLY509      0.2639
     83  O         42.6450   99.3520   41.1640 O.2   509  GLY509     -0.2714
     84  N         44.7180   98.4740   41.4930 N.am  510  THR510     -0.1950
     85  CA        45.0850   98.5310   40.0980 C.3   510  THR510      0.1897
     86  C         46.0010   97.3620   39.7540 C.2   510  THR510      0.2313
     87  O         46.7970   96.8870   40.5930 O.2   510  THR510     -0.2863
     88  CB        45.7040   99.9170   39.7450 C.3   510  THR510      0.1794
     89  OG1       45.8490  100.0300   38.3150 O.3   510  THR510     -0.2208
     90  CG2       47.0470  100.0790   40.4050 C.3   510  THR510      0.0378
@<TRIPOS>BOND
     1     7     9   ar
     2     7     6   ar
     3     1     2    1
     4     9    10   ar
     5    33    31   ar
     6    33    32   ar
     7     4     3    2
     8    31    29   ar
     9     6     5    1
    10     6     8   ar
    11     5     2    1
    12     2     3    1
    13    10     8   ar
    14    10    12   ar
    15    32    30   ar
    16    29    28   ar
    17     8    11   ar
    18    12    14   ar
    19    30    28   ar
    20    28    27    1
    21    25    24    1
    22    25    26    2
    23    11    13   ar
    24    14    13   ar
    25    24    27    1
    26    24    23    1
    27    41    39    1
    28    34    35    1
    29    39    38    1
    30    21    19    1
    31    37    36    2
    32    38    35    1
    33    38    40    1
    34    35    36    1
    35    89    88    1
    36    36    42   am
    37    17    16    1
    38    17    18    2
    39    19    16    1
    40    19    20    1
    41    16    15    1
    42    20    22    1
    43    88    85    1
    44    88    90    1
    45    86    85    1
    46    86    87    2
    47    42    43    1
    48    85    84    1
    49    46    43    1
    50    46    47    1
    51    43    44    1
    52    49    47   ar
    53    49    51   ar
    54    83    82    2
    55    47    48   ar
    56    84    82   am
    57    51    52   ar
    58    44    54   am
    59    44    45    2
    60    82    81    1
    61    54    55    1
    62    48    50   ar
    63    57    56    2
    64    52    50   ar
    65    52    53    1
    66    59    58    1
    67    81    80    1
    68    55    58    1
    69    55    56    1
    70    58    60    1
    71    80    74   am
    72    74    73    1
    73    74    75    2
    74    73    76    1
    75    73    72    1
    76    76    78    1
    77    76    77    1
    78    77    79    1
    79    71    69   ar
    80    71    70   ar
    81    69    67   ar
    82    70    68   ar
    83    67    66   ar
    84    63    62    1
    85    63    64    2
    86    68    66   ar
    87    66    65    1
    88    62    65    1
    89    62    61    1
