@<TRIPOS>MOLECULE
tmp/5fp2B01.pdb
 97 96 0 0 0
SMALL
GASTEIGER

@<TRIPOS>ATOM
      1  N         24.4220    4.2040   77.2890 N.3   142  PHE142     -0.1227
      2  CA        23.0490    4.2500   77.7660 C.3   142  PHE142      0.1736
      3  C         22.0880    4.0780   76.6000 C.2   142  PHE142      0.2595
      4  O         22.4860    4.2160   75.4410 O.2   142  PHE142     -0.2718
      5  CB        22.7750    5.5850   78.4450 C.3   142  PHE142      0.0547
      6  CG        22.6150    6.7240   77.4770 C.ar  142  PHE142     -0.0202
      7  CD1       23.7180    7.2840   76.8480 C.ar  142  PHE142     -0.0042
      8  CD2       21.3530    7.1720   77.1370 C.ar  142  PHE142     -0.0042
      9  CE1       23.5590    8.2780   75.9080 C.ar  142  PHE142     -0.0003
     10  CE2       21.1890    8.1970   76.2290 C.ar  142  PHE142     -0.0003
     11  CZ        22.2980    8.7810   75.6400 C.ar  142  PHE142     -0.0000
     12  N         20.8230    3.8030   76.9100 N.am  143  ARG143     -0.1966
     13  CA        19.7520    3.8680   75.9180 C.3   143  ARG143      0.1729
     14  C         18.3990    4.0880   76.5690 C.2   143  ARG143      0.2616
     15  O         17.9330    3.2290   77.3000 O.2   143  ARG143     -0.2715
     16  CB        19.6730    2.5820   75.1110 C.3   143  ARG143      0.0348
     17  CG        18.4750    2.5450   74.1730 C.3   143  ARG143      0.0492
     18  CD        17.7390    1.2270   74.2670 C.3   143  ARG143      0.2205
     19  NE        17.1060    1.0620   75.5660 N.pl3 143  ARG143     -0.0865
     20  CZ        16.8340   -0.1210   76.1050 C.cat 143  ARG143      0.5346
     21  NH1       17.1620   -1.2430   75.4630 N.pl3 143  ARG143      0.1354
     22  NH2       16.1880   -0.1760   77.2700 N.pl3 143  ARG143      0.1354
     23  N         17.7180    5.1680   76.1860 N.am  144  ALA144     -0.1977
     24  CA        16.3760    5.4720   76.6820 C.3   144  ALA144      0.1597
     25  C         15.3590    5.5010   75.5490 C.2   144  ALA144      0.2287
     26  O         15.6630    5.9150   74.4260 O.2   144  ALA144     -0.2864
     27  CB        16.3750    6.8050   77.3820 C.3   144  ALA144      0.0319
     28  N         14.7990    2.9960   80.8190 N.3   164  GLY164     -0.1210
     29  CA        16.2010    3.3410   80.6480 C.3   164  GLY164      0.1956
     30  C         17.1650    2.1770   80.8080 C.2   164  GLY164      0.2612
     31  O         16.9250    1.2590   81.5850 O.2   164  GLY164     -0.2717
     32  N         18.2900    2.2290   80.1110 N.am  165  MET165     -0.1965
     33  CA        19.3360    1.2510   80.3310 C.3   165  MET165      0.1736
     34  C         20.7020    1.9080   80.4550 C.2   165  MET165      0.2616
     35  O         21.1040    2.6570   79.5860 O.2   165  MET165     -0.2715
     36  CB        19.3610    0.2080   79.1980 C.3   165  MET165      0.0427
     37  CG        20.4270   -0.8650   79.3740 C.3   165  MET165      0.0599
     38  SD        20.1580   -2.3390   78.3460 S.3   165  MET165     -0.1393
     39  CE        20.6950   -1.6980   76.7580 C.3   165  MET165      0.0692
     40  N         21.4690    1.4540   81.4390 N.am  166  LEU166     -0.1977
     41  CA        22.8740    1.7890   81.5920 C.3   166  LEU166      0.1596
     42  C         23.6700    0.5270   81.3240 C.2   166  LEU166      0.2287
     43  O         23.3880   -0.5420   81.8920 O.2   166  LEU166     -0.2864
     44  CB        23.0940    2.2450   83.0280 C.3   166  LEU166      0.0297
     45  CG        24.3090    3.0690   83.4420 C.3   166  LEU166      0.0022
     46  CD1       24.7950    4.0320   82.3580 C.3   166  LEU166      0.0001
     47  CD2       23.9190    3.8840   84.6750 C.3   166  LEU166      0.0001
     48  N         22.2980   -2.3030   83.8740 N.3   178  PHE178     -0.1227
     49  CA        21.3180   -1.7520   84.8100 C.3   178  PHE178      0.1736
     50  C         20.1410   -1.1990   84.0190 C.2   178  PHE178      0.2595
     51  O         20.3480   -0.4450   83.0670 O.2   178  PHE178     -0.2718
     52  CB        21.9720   -0.6470   85.6490 C.3   178  PHE178      0.0547
     53  CG        23.2990   -1.0470   86.2370 C.ar  178  PHE178     -0.0202
     54  CD1       23.3450   -1.8180   87.3920 C.ar  178  PHE178     -0.0042
     55  CD2       24.4790   -0.8130   85.5510 C.ar  178  PHE178     -0.0042
     56  CE1       24.5520   -2.2450   87.9120 C.ar  178  PHE178     -0.0003
     57  CE2       25.6930   -1.1910   86.0850 C.ar  178  PHE178     -0.0003
     58  CZ        25.7300   -1.9190   87.2620 C.ar  178  PHE178     -0.0000
     59  N         18.9290   -1.6500   84.3450 N.am  179  GLU179     -0.1965
     60  CA        17.7180   -1.1830   83.6600 C.3   179  GLU179      0.1733
     61  C         16.6850   -0.6430   84.6430 C.2   179  GLU179      0.2616
     62  O         16.6450   -1.0520   85.7990 O.2   179  GLU179     -0.2715
     63  CB        17.0950   -2.3100   82.8280 C.3   179  GLU179      0.0429
     64  CG        17.6840   -2.4100   81.4280 C.3   179  GLU179      0.1163
     65  CD        17.4690   -3.7520   80.7550 C.2   179  GLU179      0.3649
     66  OE1       16.4010   -4.3850   80.9410 O.co2 179  GLU179     -0.2457
     67  OE2       18.4080   -4.2060   80.0570 O.co2 179  GLU179     -0.2457
     68  N         15.7860    0.1980   84.1610 N.am  180  ALA180     -0.1977
     69  CA        14.6600    0.6040   84.9730 C.3   180  ALA180      0.1597
     70  C         13.6680    1.3980   84.1500 C.2   180  ALA180      0.2287
     71  O         14.0290    2.0570   83.1820 O.2   180  ALA180     -0.2864
     72  CB        15.1420    1.4360   86.1430 C.3   180  ALA180      0.0319
     73  N         12.7620   -2.9440   87.5720 N.3   199  TYR199     -0.1227
     74  CA        14.1990   -2.8850   87.7820 C.3   199  TYR199      0.1736
     75  C         14.8440   -4.2010   87.3480 C.2   199  TYR199      0.2595
     76  O         14.2660   -5.2700   87.5330 O.2   199  TYR199     -0.2718
     77  CB        14.4850   -2.6430   89.2620 C.3   199  TYR199      0.0548
     78  CG        14.1370   -1.2410   89.7480 C.ar  199  TYR199     -0.0200
     79  CD1       15.0350   -0.2010   89.6130 C.ar  199  TYR199     -0.0009
     80  CD2       12.9450   -0.9920   90.4230 C.ar  199  TYR199     -0.0009
     81  CE1       14.7780    1.0190   90.1720 C.ar  199  TYR199      0.0417
     82  CE2       12.6600    0.2470   90.9430 C.ar  199  TYR199      0.0417
     83  CZ        13.5800    1.2590   90.8120 C.ar  199  TYR199      0.1957
     84  OH        13.3050    2.5430   91.3020 O.3   199  TYR199     -0.2866
     85  N         16.0150   -4.1220   86.7330 N.am  200  ALA200     -0.1966
     86  CA        16.7560   -5.3190   86.3930 C.3   200  ALA200      0.1728
     87  C         18.2450   -5.0540   86.3330 C.2   200  ALA200      0.2616
     88  O         18.6780   -3.9670   85.9730 O.2   200  ALA200     -0.2715
     89  CB        16.2760   -5.8720   85.0660 C.3   200  ALA200      0.0334
     90  N         19.0280   -6.0520   86.7030 N.am  201  ILE201     -0.1977
     91  CA        20.4500   -6.0310   86.4590 C.3   201  ILE201      0.1596
     92  C         20.8320   -7.2760   85.6790 C.2   201  ILE201      0.2287
     93  O         20.3490   -8.3790   85.9860 O.2   201  ILE201     -0.2864
     94  CB        21.2220   -6.0450   87.7810 C.3   201  ILE201      0.0276
     95  CG1       20.8340   -4.8260   88.6150 C.3   201  ILE201      0.0022
     96  CG2       22.7130   -6.0670   87.4990 C.3   201  ILE201      0.0022
     97  CD1       21.5470   -4.7310   89.9500 C.3   201  ILE201      0.0001
@<TRIPOS>BOND
     1    17    18    1
     2    17    16    1
     3    18    19    1
     4    26    25    2
     5    16    13    1
     6     4     3    2
     7    21    20    1
     8    25    24    1
     9    19    20    2
    10    11     9   ar
    11    11    10   ar
    12     9     7   ar
    13    13    14    1
    14    13    12    1
    15    20    22    1
    16    23    14   am
    17    23    24    1
    18    10     8   ar
    19    14    15    2
    20     3    12   am
    21     3     2    1
    22    24    27    1
    23    39    38    1
    24     7     6   ar
    25     8     6   ar
    26     1     2    1
    27     6     5    1
    28     2     5    1
    29    38    37    1
    30    36    37    1
    31    36    33    1
    32    35    34    2
    33    67    65   ar
    34    32    33    1
    35    32    30   am
    36    33    34    1
    37    34    40   am
    38    29    30    1
    39    29    28    1
    40    65    66   ar
    41    65    64    1
    42    30    31    2
    43    42    41    1
    44    42    43    2
    45    64    63    1
    46    40    41    1
    47    41    44    1
    48    46    45    1
    49    63    60    1
    50    44    45    1
    51    51    50    2
    52    71    70    2
    53    45    47    1
    54    60    59    1
    55    60    61    1
    56    48    49    1
    57    50    59   am
    58    50    49    1
    59    70    69    1
    60    68    61   am
    61    68    69    1
    62    61    62    2
    63    49    52    1
    64    69    72    1
    65    89    86    1
    66    55    57   ar
    67    55    53   ar
    68    52    53    1
    69    92    93    2
    70    92    91    1
    71    88    87    2
    72    57    58   ar
    73    53    54   ar
    74    87    86    1
    75    87    90   am
    76    86    85    1
    77    91    90    1
    78    91    94    1
    79    85    75   am
    80    58    56   ar
    81    75    76    2
    82    75    74    1
    83    54    56   ar
    84    96    94    1
    85    73    74    1
    86    94    95    1
    87    74    77    1
    88    95    97    1
    89    77    78    1
    90    79    78   ar
    91    79    81   ar
    92    78    80   ar
    93    81    83   ar
    94    80    82   ar
    95    83    82   ar
    96    83    84    1
