@<TRIPOS>MOLECULE
tmp/5fp3B00.pdb
 199 186 0 0 0
SMALL
GASTEIGER

@<TRIPOS>ATOM
      1  N         81.7580   32.8330   10.1500 N.3    65  GLU65      -0.1245
      2  CA        82.6320   33.8700    9.6070 C.3    65  GLU65       0.1567
      3  C         83.9730   33.8430   10.3420 C.2    65  GLU65       0.2260
      4  O         84.0840   34.3280   11.4680 O.2    65  GLU65      -0.2867
      5  CB        81.9740   35.2490    9.7270 C.3    65  GLU65       0.0388
      6  CG        82.7850   36.3800    9.1080 C.3    65  GLU65       0.1160
      7  CD        82.0350   37.6990    9.0840 C.2    65  GLU65       0.3649
      8  OE1       80.8800   37.7240    8.6070 O.co2  65  GLU65      -0.2457
      9  OE2       82.6060   38.7160    9.5330 O.co2  65  GLU65      -0.2457
     10  N         87.7570   34.7820   11.2900 N.3    67  ARG67      -0.1245
     11  CA        88.6700   35.9220   11.3050 C.3    67  ARG67       0.1563
     12  C         90.0790   35.4190   11.6000 C.2    67  ARG67       0.2260
     13  O         90.3290   34.8510   12.6650 O.2    67  ARG67      -0.2867
     14  CB        88.2410   36.9450   12.3610 C.3    67  ARG67       0.0307
     15  CG        87.0350   37.7840   11.9660 C.3    67  ARG67       0.0489
     16  CD        87.4320   38.9510   11.0750 C.3    67  ARG67       0.2205
     17  NE        86.2780   39.7400   10.6460 N.pl3  67  ARG67      -0.0865
     18  CZ        86.3470   40.8690    9.9410 C.cat  67  ARG67       0.5346
     19  NH1       87.5210   41.3720    9.5690 N.pl3  67  ARG67       0.1354
     20  NH2       85.2290   41.5050    9.6040 N.pl3  67  ARG67       0.1354
     21  N         93.9240   35.9290   12.5080 N.3    69  GLN69      -0.1245
     22  CA        94.6550   36.8990   13.3170 C.3    69  GLN69       0.1566
     23  C         96.0270   36.3750   13.7090 C.2    69  GLN69       0.2260
     24  O         96.2490   35.1650   13.7600 O.2    69  GLN69      -0.2867
     25  CB        93.8710   37.2110   14.5940 C.3    69  GLN69       0.0367
     26  CG        92.4460   37.6840   14.3690 C.3    69  GLN69       0.0905
     27  CD        91.7050   37.9310   15.6680 C.2    69  GLN69       0.2608
     28  OE1       91.6550   37.0630   16.5430 O.2    69  GLN69      -0.2717
     29  NE2       91.1180   39.1140   15.7980 N.am   69  GLN69      -0.0878
     30  N         94.0590   47.1420   14.3830 N.3    89  CYS89      -0.1235
     31  CA        94.1140   45.7020   14.6260 C.3    89  CYS89       0.1677
     32  C         93.3360   44.9680   13.5350 C.2    89  CYS89       0.2270
     33  O         92.2080   44.5240   13.7510 O.2    89  CYS89      -0.2867
     34  CB        93.5420   45.3880   16.0120 C.3    89  CYS89       0.0956
     35  SG        93.6030   43.6420   16.4760 S.3    89  CYS89      -0.0801
     36  N         92.4530   42.2140   10.2790 N.3    91  SER91      -0.1217
     37  CA        92.3180   40.7630   10.1550 C.3    91  SER91       0.1889
     38  C         91.6420   40.3730    8.8410 C.2    91  SER91       0.2288
     39  O         90.8430   41.1370    8.2950 O.2    91  SER91      -0.2866
     40  CB        91.5090   40.2140   11.3300 C.3    91  SER91       0.2089
     41  OG        90.2580   40.8700   11.4290 O.3    91  SER91      -0.2183
     42  N         89.4430   32.8550   14.3660 N.3   119  PHE119     -0.1241
     43  CA        88.3880   33.2370   15.2980 C.3   119  PHE119      0.1605
     44  C         87.0310   33.0990   14.6080 C.2   119  PHE119      0.2264
     45  O         86.7190   33.8410   13.6780 O.2   119  PHE119     -0.2867
     46  CB        88.6500   34.6730   15.7820 C.3   119  PHE119      0.0534
     47  CG        87.5980   35.2410   16.7080 C.ar  119  PHE119     -0.0203
     48  CD1       86.6930   34.4340   17.3940 C.ar  119  PHE119     -0.0042
     49  CD2       87.5550   36.6120   16.9270 C.ar  119  PHE119     -0.0042
     50  CE1       85.7500   34.9920   18.2410 C.ar  119  PHE119     -0.0003
     51  CE2       86.6180   37.1710   17.7790 C.ar  119  PHE119     -0.0003
     52  CZ        85.7150   36.3610   18.4380 C.ar  119  PHE119     -0.0000
     53  N         83.5250   33.8360   14.3050 N.3   121  THR121     -0.1203
     54  CA        82.5920   34.8620   14.7630 C.3   121  THR121      0.1994
     55  C         81.2720   34.8240   14.0030 C.2   121  THR121      0.2617
     56  O         81.1480   34.1580   12.9750 O.2   121  THR121     -0.2717
     57  CB        83.1940   36.2760   14.6240 C.3   121  THR121      0.1784
     58  OG1       82.3270   37.2300   15.2520 O.3   121  THR121     -0.2211
     59  CG2       83.3720   36.6540   13.1620 C.3   121  THR121      0.0376
     60  N         80.2910   35.5440   14.5420 N.am  122  ASN122     -0.1974
     61  CA        79.0070   35.7900   13.8820 C.3   122  ASN122      0.1688
     62  C         78.2460   34.5210   13.4940 C.2   122  ASN122      0.2292
     63  O         77.7380   34.4090   12.3780 O.2   122  ASN122     -0.2864
     64  CB        79.1940   36.6960   12.6530 C.3   122  ASN122      0.1181
     65  CG        79.6570   38.1000   13.0140 C.2   122  ASN122      0.2629
     66  OD1       79.6640   38.9900   12.1650 O.2   122  ASN122     -0.2716
     67  ND2       80.0420   38.3070   14.2690 N.am  122  ASN122     -0.0877
     68  N         80.0000   32.9450   19.3320 N.3   170  TYR170     -0.1241
     69  CA        81.4030   33.0790   18.9490 C.3   170  TYR170      0.1605
     70  C         82.1660   31.8470   19.4220 C.2   170  TYR170      0.2264
     71  O         82.0660   31.4770   20.5900 O.2   170  TYR170     -0.2867
     72  CB        82.0250   34.3250   19.5870 C.3   170  TYR170      0.0534
     73  CG        81.2400   35.6040   19.3980 C.ar  170  TYR170     -0.0201
     74  CD1       81.0910   36.1780   18.1390 C.ar  170  TYR170     -0.0009
     75  CD2       80.6630   36.2580   20.4870 C.ar  170  TYR170     -0.0009
     76  CE1       80.3790   37.3570   17.9660 C.ar  170  TYR170      0.0417
     77  CE2       79.9520   37.4360   20.3240 C.ar  170  TYR170      0.0417
     78  CZ        79.8110   37.9810   19.0620 C.ar  170  TYR170      0.1957
     79  OH        79.1020   39.1510   18.9040 O.3   170  TYR170     -0.2866
     80  N         85.9200   30.3950   19.9630 N.3   172  LYS172     -0.1245
     81  CA        87.2400   31.0100   20.1460 C.3   172  LYS172      0.1561
     82  C         88.3740   30.0080   20.3720 C.2   172  LYS172      0.2260
     83  O         88.1470   28.8670   20.7770 O.2   172  LYS172     -0.2867
     84  CB        87.1990   31.9850   21.3310 C.3   172  LYS172      0.0271
     85  CG        86.1340   33.0660   21.2180 C.3   172  LYS172      0.0035
     86  CD        86.2200   34.0810   22.3500 C.3   172  LYS172      0.0206
     87  CE        85.1810   35.1800   22.1900 C.3   172  LYS172      0.1093
     88  NZ        85.2510   36.1930   23.2790 N.3   172  LYS172     -0.1314
     89  N         90.7490   37.5970   19.1930 N.3   177  ARG177     -0.1231
     90  CA        90.6880   38.9890   19.6340 C.3   177  ARG177      0.1694
     91  C         89.4690   39.7120   19.0740 C.2   177  ARG177      0.2593
     92  O         89.2140   39.6700   17.8730 O.2   177  ARG177     -0.2718
     93  CB        91.9660   39.7170   19.2060 C.3   177  ARG177      0.0321
     94  CG        92.0560   41.1560   19.6830 C.3   177  ARG177      0.0489
     95  CD        93.4340   41.7510   19.4430 C.3   177  ARG177      0.2205
     96  NE        94.4120   41.2960   20.4320 N.pl3 177  ARG177     -0.0865
     97  CZ        95.6240   41.8250   20.6040 C.cat 177  ARG177      0.5346
     98  NH1       96.0360   42.8450   19.8590 N.pl3 177  ARG177      0.1354
     99  NH2       96.4310   41.3330   21.5350 N.pl3 177  ARG177      0.1354
    100  N         88.7290   40.3780   19.9600 N.am  178  THR178     -0.1940
    101  CA        87.5670   41.1760   19.5880 C.3   178  THR178      0.2013
    102  C         87.9220   42.6640   19.6900 C.2   178  THR178      0.2484
    103  O         88.0680   43.1840   20.7960 O.2   178  THR178     -0.2729
    104  CB        86.3720   40.8720   20.5100 C.3   178  THR178      0.1807
    105  OG1       85.9470   39.5160   20.3130 O.3   178  THR178     -0.2208
    106  CG2       85.2120   41.8180   20.2230 C.3   178  THR178      0.0379
    107  N         88.0580   43.3540   18.5400 N.am  179  PRO179     -0.2726
    108  CA        88.4750   44.7620   18.5470 C.3   179  PRO179      0.1402
    109  C         87.5440   45.6930   19.3290 C.2   179  PRO179      0.2269
    110  O         86.3860   45.3560   19.5820 O.2   179  PRO179     -0.2865
    111  CB        88.4870   45.1380   17.0620 C.3   179  PRO179      0.0296
    112  CG        88.6250   43.8490   16.3330 C.3   179  PRO179      0.0237
    113  CD        87.9080   42.8350   17.1670 C.3   179  PRO179      0.0939
    114  N         85.0970   48.6670   20.6830 N.3   181  HIS181     -0.1241
    115  CA        83.8680   49.2460   20.1570 C.3   181  HIS181      0.1621
    116  C         82.9180   49.6770   21.2340 C.2   181  HIS181      0.2264
    117  O         83.0190   49.2500   22.3890 O.2   181  HIS181     -0.2867
    118  CB        83.1560   48.2300   19.2700 C.3   181  HIS181      0.0745
    119  CG        82.8140   46.9420   19.9800 C.ar  181  HIS181      0.0817
    120  ND1       83.7010   45.9460   20.1320 N.ar  181  HIS181     -0.2268
    121  CD2       81.6370   46.5200   20.5980 C.ar  181  HIS181      0.1154
    122  CE1       83.1240   44.9300   20.8030 C.ar  181  HIS181      0.1986
    123  NE2       81.8600   45.2810   21.0840 N.ar  181  HIS181     -0.2212
    124  N         78.6440   49.4990   21.4110 N.3   183  GLU183     -0.1245
    125  CA        77.5910   48.7520   20.7270 C.3   183  GLU183      0.1567
    126  C         76.8570   49.6580   19.7500 C.2   183  GLU183      0.2260
    127  O         76.8930   50.8830   19.8870 O.2   183  GLU183     -0.2867
    128  CB        76.5880   48.1790   21.7310 C.3   183  GLU183      0.0388
    129  CG        77.1730   47.1890   22.7260 C.3   183  GLU183      0.1160
    130  CD        77.7630   45.9670   22.0560 C.2   183  GLU183      0.3649
    131  OE1       77.0400   45.3010   21.2870 O.co2 183  GLU183     -0.2457
    132  OE2       78.9530   45.6790   22.2920 O.co2 183  GLU183     -0.2457
    133  N         74.5280   45.4000   26.3650 N.3   189  SER189     -0.1217
    134  CA        74.9170   44.1120   25.8150 C.3   189  SER189      0.1889
    135  C         74.9400   43.0530   26.9080 C.2   189  SER189      0.2288
    136  O         75.2130   43.3550   28.0720 O.2   189  SER189     -0.2866
    137  CB        76.2870   44.2250   25.1450 C.3   189  SER189      0.2089
    138  OG        76.4810   43.1820   24.2110 O.3   189  SER189     -0.2183
    139  N         76.6500   39.2090   27.5300 N.3   191  ASN191     -0.1240
    140  CA        77.6000   38.2060   27.0630 C.3   191  ASN191      0.1653
    141  C         77.7610   37.1120   28.1110 C.2   191  ASN191      0.2266
    142  O         77.9970   37.4040   29.2840 O.2   191  ASN191     -0.2867
    143  CB        78.9540   38.8570   26.7630 C.3   191  ASN191      0.1155
    144  CG        79.9100   37.9180   26.0510 C.2   191  ASN191      0.2627
    145  OD1       80.3160   36.8880   26.5960 O.2   191  ASN191     -0.2716
    146  ND2       80.2930   38.2800   24.8310 N.am  191  ASN191     -0.0877
    147  N         88.5560   40.7560   29.6270 N.3   201  TRP201     -0.1241
    148  CA        87.7810   41.9250   29.2270 C.3   201  TRP201      0.1605
    149  C         88.4690   43.2000   29.5870 C.2   201  TRP201      0.2264
    150  O         89.1510   43.2880   30.6050 O.2   201  TRP201     -0.2867
    151  CB        86.4110   41.9000   29.8880 C.3   201  TRP201      0.0550
    152  CG        85.4590   40.9230   29.2540 C.ar  201  TRP201      0.0003
    153  CD1       85.5150   39.5340   29.2990 C.ar  201  TRP201      0.0946
    154  CD2       84.2690   41.2310   28.4510 C.ar  201  TRP201      0.0152
    155  NE1       84.4750   38.9800   28.6010 N.ar  201  TRP201     -0.2442
    156  CE2       83.6920   39.9410   28.0680 C.ar  201  TRP201      0.0810
    157  CE3       83.6510   42.3990   28.0260 C.ar  201  TRP201      0.0012
    158  CZ2       82.5480   39.8500   27.2980 C.ar  201  TRP201      0.0191
    159  CZ3       82.4940   42.2950   27.2460 C.ar  201  TRP201      0.0001
    160  CH2       81.9550   41.0490   26.8950 C.ar  201  TRP201      0.0015
    161  N         88.6850   48.6770   12.8250 N.3   227  SER227     -0.1217
    162  CA        89.1510   47.6340   13.7330 C.3   227  SER227      0.1889
    163  C         90.3920   48.1120   14.4860 C.2   227  SER227      0.2288
    164  O         91.4430   48.3290   13.8800 O.2   227  SER227     -0.2866
    165  CB        89.4750   46.3660   12.9440 C.3   227  SER227      0.2089
    166  OG        89.7810   45.2950   13.8130 O.3   227  SER227     -0.2183
    167  N         77.1250   44.7190   29.7760 N.3   255  ILE255     -0.1245
    168  CA        77.7950   45.9330   29.3310 C.3   255  ILE255      0.1561
    169  C         76.7500   47.0370   29.3110 C.2   255  ILE255      0.2260
    170  O         75.7760   46.9610   28.5630 O.2   255  ILE255     -0.2867
    171  CB        78.4250   45.7760   27.9320 C.3   255  ILE255      0.0252
    172  CG1       79.3710   44.5720   27.8880 C.3   255  ILE255      0.0019
    173  CG2       79.1990   47.0300   27.5540 C.3   255  ILE255      0.0019
    174  CD1       78.6770   43.2320   27.7720 C.3   255  ILE255      0.0001
    175  N         84.5620   48.8180   25.0700 N.3   261  HIS261     -0.1241
    176  CA        85.1290   47.5610   25.5430 C.3   261  HIS261      0.1621
    177  C         85.8100   46.7700   24.4620 C.2   261  HIS261      0.2264
    178  O         85.4570   46.8660   23.2860 O.2   261  HIS261     -0.2867
    179  CB        84.0430   46.7170   26.2040 C.3   261  HIS261      0.0745
    180  CG        82.8470   46.4660   25.3180 C.ar  261  HIS261      0.0817
    181  ND1       81.9000   47.3950   25.1060 N.ar  261  HIS261     -0.2268
    182  CD2       82.4720   45.3450   24.5800 C.ar  261  HIS261      0.1154
    183  CE1       80.9660   46.9000   24.2740 C.ar  261  HIS261      0.1986
    184  NE2       81.3150   45.6440   23.9560 N.ar  261  HIS261     -0.2212
    185  N         87.9050   42.7050   23.9810 N.3   263  VAL263     -0.1245
    186  CA        87.9670   41.3790   24.5980 C.3   263  VAL263      0.1561
    187  C         88.9340   40.4490   23.8650 C.2   263  VAL263      0.2260
    188  O         89.1030   40.5500   22.6510 O.2   263  VAL263     -0.2867
    189  CB        86.5710   40.7090   24.6060 C.3   263  VAL263      0.0252
    190  CG1       86.5860   39.4320   25.4340 C.3   263  VAL263      0.0019
    191  CG2       85.5110   41.6680   25.1300 C.3   263  VAL263      0.0019
    192  N         81.3480   31.9410   23.2920 N.3   271  ASN271     -0.1240
    193  CA        80.5660   33.0100   23.9100 C.3   271  ASN271      0.1653
    194  C         79.2800   33.2260   23.1250 C.2   271  ASN271      0.2266
    195  O         79.2970   33.2040   21.8960 O.2   271  ASN271     -0.2867
    196  CB        81.3570   34.3220   23.9500 C.3   271  ASN271      0.1155
    197  CG        82.5950   34.2400   24.8260 C.2   271  ASN271      0.2627
    198  OD1       83.5590   33.5560   24.4910 O.2   271  ASN271     -0.2716
    199  ND2       82.5810   34.9600   25.9450 N.am  271  ASN271     -0.0877
@<TRIPOS>BOND
     1    39    38    2
     2     8     7   ar
     3    38    37    1
     4     7     6    1
     5     7     9   ar
     6     6     5    1
     7    19    18    1
     8    20    18    1
     9     2     5    1
    10     2     1    1
    11     2     3    1
    12    18    17    2
    13    37    36    1
    14    37    40    1
    15     3     4    2
    16    17    16    1
    17    16    15    1
    18    10    11    1
    19    11    12    1
    20    11    14    1
    21    40    41    1
    22    12    13    2
    23    15    14    1
    24    66    65    2
    25    63    62    2
    26    21    22    1
    27    64    65    1
    28    64    61    1
    29   161   162    1
    30   165   162    1
    31   165   166    1
    32    56    55    2
    33    65    67   am
    34    59    57    1
    35    22    23    1
    36    22    25    1
    37    62    61    1
    38    32    33    2
    39    32    31    1
    40    45    44    2
    41    23    24    2
    42   162   163    1
    43   164   163    2
    44    61    60    1
    45    55    60   am
    46    55    54    1
    47    53    54    1
    48    42    43    1
    49    26    25    1
    50    26    27    1
    51    30    31    1
    52    44    43    1
    53    57    54    1
    54    57    58    1
    55    31    34    1
    56    43    46    1
    57    27    29   am
    58    27    28    2
    59    46    47    1
    60    34    35    1
    61   112   111    1
    62   112   113    1
    63    47    49   ar
    64    47    48   ar
    65    49    51   ar
    66   111   108    1
    67   113   107    1
    68    48    50   ar
    69    51    52   ar
    70    92    91    2
    71    76    74   ar
    72    76    78   ar
    73    74    73   ar
    74    50    52   ar
    75   107   108    1
    76   107   102   am
    77   108   109    1
    78    79    78    1
    79    69    68    1
    80    69    70    1
    81    69    72    1
    82    78    77   ar
    83    91    90    1
    84    91   100   am
    85    89    90    1
    86    93    90    1
    87    93    94    1
    88   118   119    1
    89   118   115    1
    90   109   110    2
    91    73    72    1
    92    73    75   ar
    93    70    71    2
    94    95    94    1
    95    95    96    1
    96   101   102    1
    97   101   100    1
    98   101   104    1
    99   102   103    2
   100   126   127    2
   101   126   125    1
   102    98    97    1
   103    80    81    1
   104   119   120   ar
   105   119   121   ar
   106   120   122   ar
   107    81    82    1
   108    81    84    1
   109   115   114    1
   110   115   116    1
   111   106   104    1
   112   105   104    1
   113    77    75   ar
   114    82    83    2
   115    96    97    2
   116   121   123   ar
   117    97    99    1
   118   125   124    1
   119   125   128    1
   120   122   123   ar
   121    85    84    1
   122    85    86    1
   123   116   117    2
   124   131   130   ar
   125   128   129    1
   126   195   194    2
   127   130   132   ar
   128   130   129    1
   129    87    86    1
   130    87    88    1
   131   188   187    2
   132   194   193    1
   133   178   177    2
   134   192   193    1
   135   187   186    1
   136   193   196    1
   137   196   197    1
   138   184   183   ar
   139   184   182   ar
   140   185   186    1
   141   138   137    1
   142   183   181   ar
   143   177   176    1
   144   198   197    2
   145   182   180   ar
   146   186   189    1
   147   189   191    1
   148   189   190    1
   149   197   199   am
   150   146   144   am
   151   175   176    1
   152   181   180   ar
   153   137   134    1
   154   180   179    1
   155   176   179    1
   156   134   133    1
   157   134   135    1
   158   144   145    2
   159   144   143    1
   160   143   140    1
   161   160   159   ar
   162   160   158   ar
   163   135   136    2
   164   140   139    1
   165   140   141    1
   166   159   157   ar
   167   158   156   ar
   168   173   171    1
   169   174   172    1
   170   172   171    1
   171   171   168    1
   172   157   154   ar
   173   156   154   ar
   174   156   155   ar
   175   141   142    2
   176   154   152   ar
   177   170   169    2
   178   155   153   ar
   179   148   149    1
   180   148   147    1
   181   148   151    1
   182   152   153   ar
   183   152   151    1
   184   169   168    1
   185   168   167    1
   186   149   150    2
