@<TRIPOS>MOLECULE
tmp/5fp3B02.pdb
 96 91 0 0 0
SMALL
GASTEIGER

@<TRIPOS>ATOM
      1  N         83.5250   33.8360   14.3050 N.3   121  THR121     -0.1203
      2  CA        82.5920   34.8620   14.7630 C.3   121  THR121      0.1994
      3  C         81.2720   34.8240   14.0030 C.2   121  THR121      0.2617
      4  O         81.1480   34.1580   12.9750 O.2   121  THR121     -0.2717
      5  CB        83.1940   36.2760   14.6240 C.3   121  THR121      0.1784
      6  OG1       82.3270   37.2300   15.2520 O.3   121  THR121     -0.2211
      7  CG2       83.3720   36.6540   13.1620 C.3   121  THR121      0.0376
      8  N         80.2910   35.5440   14.5420 N.am  122  ASN122     -0.1974
      9  CA        79.0070   35.7900   13.8820 C.3   122  ASN122      0.1688
     10  C         78.2460   34.5210   13.4940 C.2   122  ASN122      0.2292
     11  O         77.7380   34.4090   12.3780 O.2   122  ASN122     -0.2864
     12  CB        79.1940   36.6960   12.6530 C.3   122  ASN122      0.1181
     13  CG        79.6570   38.1000   13.0140 C.2   122  ASN122      0.2629
     14  OD1       79.6640   38.9900   12.1650 O.2   122  ASN122     -0.2716
     15  ND2       80.0420   38.3070   14.2690 N.am  122  ASN122     -0.0877
     16  N         73.8770   35.7550   18.8800 N.3   168  GLN168     -0.1245
     17  CA        75.0630   35.4210   18.0960 C.3   168  GLN168      0.1566
     18  C         75.9910   34.5780   18.9510 C.2   168  GLN168      0.2260
     19  O         76.0900   34.7920   20.1600 O.2   168  GLN168     -0.2867
     20  CB        75.7950   36.6890   17.6540 C.3   168  GLN168      0.0367
     21  CG        75.0090   37.5480   16.6790 C.3   168  GLN168      0.0905
     22  CD        75.2370   37.1680   15.2280 C.2   168  GLN168      0.2608
     23  OE1       76.2800   37.4780   14.6520 O.2   168  GLN168     -0.2717
     24  NE2       74.2530   36.5110   14.6230 N.am  168  GLN168     -0.0878
     25  N         80.0000   32.9450   19.3320 N.3   170  TYR170     -0.1241
     26  CA        81.4030   33.0790   18.9490 C.3   170  TYR170      0.1605
     27  C         82.1660   31.8470   19.4220 C.2   170  TYR170      0.2264
     28  O         82.0660   31.4770   20.5900 O.2   170  TYR170     -0.2867
     29  CB        82.0250   34.3250   19.5870 C.3   170  TYR170      0.0534
     30  CG        81.2400   35.6040   19.3980 C.ar  170  TYR170     -0.0201
     31  CD1       81.0910   36.1780   18.1390 C.ar  170  TYR170     -0.0009
     32  CD2       80.6630   36.2580   20.4870 C.ar  170  TYR170     -0.0009
     33  CE1       80.3790   37.3570   17.9660 C.ar  170  TYR170      0.0417
     34  CE2       79.9520   37.4360   20.3240 C.ar  170  TYR170      0.0417
     35  CZ        79.8110   37.9810   19.0620 C.ar  170  TYR170      0.1957
     36  OH        79.1020   39.1510   18.9040 O.3   170  TYR170     -0.2866
     37  N         85.0970   48.6670   20.6830 N.3   181  HIS181     -0.1226
     38  CA        83.8680   49.2460   20.1570 C.3   181  HIS181      0.1752
     39  C         82.9180   49.6770   21.2340 C.2   181  HIS181      0.2596
     40  O         83.0190   49.2500   22.3890 O.2   181  HIS181     -0.2718
     41  CB        83.1560   48.2300   19.2700 C.3   181  HIS181      0.0759
     42  CG        82.8140   46.9420   19.9800 C.ar  181  HIS181      0.0818
     43  ND1       83.7010   45.9460   20.1320 N.ar  181  HIS181     -0.2268
     44  CD2       81.6370   46.5200   20.5980 C.ar  181  HIS181      0.1154
     45  CE1       83.1240   44.9300   20.8030 C.ar  181  HIS181      0.1986
     46  NE2       81.8600   45.2810   21.0840 N.ar  181  HIS181     -0.2212
     47  N         81.9940   50.5520   20.8480 N.am  182  GLN182     -0.1965
     48  CA        80.7370   50.7300   21.5610 C.3   182  GLN182      0.1733
     49  C         79.7140   49.9430   20.7590 C.2   182  GLN182      0.2616
     50  O         79.8970   49.7410   19.5600 O.2   182  GLN182     -0.2715
     51  CB        80.3380   52.2050   21.6300 C.3   182  GLN182      0.0408
     52  CG        81.1070   53.0110   22.6610 C.3   182  GLN182      0.0908
     53  CD        80.8480   54.5000   22.5470 C.2   182  GLN182      0.2608
     54  OE1       81.0800   55.0970   21.4970 O.2   182  GLN182     -0.2717
     55  NE2       80.3690   55.1100   23.6270 N.am  182  GLN182     -0.0878
     56  N         78.6440   49.4990   21.4110 N.am  183  GLU183     -0.1963
     57  CA        77.5910   48.7520   20.7270 C.3   183  GLU183      0.1733
     58  C         76.8570   49.6580   19.7500 C.2   183  GLU183      0.2616
     59  O         76.8930   50.8830   19.8870 O.2   183  GLU183     -0.2715
     60  CB        76.5880   48.1790   21.7310 C.3   183  GLU183      0.0429
     61  CG        77.1730   47.1890   22.7260 C.3   183  GLU183      0.1163
     62  CD        77.7630   45.9670   22.0560 C.2   183  GLU183      0.3649
     63  OE1       77.0400   45.3010   21.2870 O.co2 183  GLU183     -0.2457
     64  OE2       78.9530   45.6790   22.2920 O.co2 183  GLU183     -0.2457
     65  N         76.1890   49.0530   18.7690 N.am  184  ASN184     -0.1972
     66  CA        75.3440   49.8080   17.8430 C.3   184  ASN184      0.1688
     67  C         74.3770   50.6900   18.6240 C.2   184  ASN184      0.2292
     68  O         73.6400   50.1990   19.4800 O.2   184  ASN184     -0.2864
     69  CB        74.5410   48.8760   16.9370 C.3   184  ASN184      0.1181
     70  CG        75.4120   48.0700   15.9930 C.2   184  ASN184      0.2629
     71  OD1       76.4660   48.5240   15.5490 O.2   184  ASN184     -0.2716
     72  ND2       74.9660   46.8630   15.6770 N.am  184  ASN184     -0.0877
     73  N         84.2780   54.5280   14.7190 N.3   224  LEU224     -0.1245
     74  CA        82.9300   53.9610   14.6660 C.3   224  LEU224      0.1561
     75  C         82.8550   52.6270   13.9200 C.2   224  LEU224      0.2260
     76  O         82.0990   51.7440   14.3210 O.2   224  LEU224     -0.2867
     77  CB        81.9560   54.9570   14.0290 C.3   224  LEU224      0.0270
     78  CG        81.7740   56.2760   14.7810 C.3   224  LEU224      0.0019
     79  CD1       80.9190   57.2420   13.9740 C.3   224  LEU224      0.0001
     80  CD2       81.1640   56.0340   16.1520 C.3   224  LEU224      0.0001
     81  N         71.9930   42.0550   22.2460 N.3   275  ASN275     -0.1240
     82  CA        71.8230   43.3880   22.8190 C.3   275  ASN275      0.1653
     83  C         70.4850   43.5470   23.5180 C.2   275  ASN275      0.2266
     84  O         69.5380   42.8150   23.2400 O.2   275  ASN275     -0.2867
     85  CB        71.9720   44.4490   21.7330 C.3   275  ASN275      0.1155
     86  CG        73.3990   44.5840   21.2530 C.2   275  ASN275      0.2627
     87  OD1       73.7800   44.0100   20.2330 O.2   275  ASN275     -0.2716
     88  ND2       74.2050   45.3240   22.0010 N.am  275  ASN275     -0.0877
     89  N         72.1550   50.8600   12.9940 N.3   302  ILE302     -0.1245
     90  CA        71.5490   49.5350   12.8490 C.3   302  ILE302      0.1561
     91  C         70.2160   49.4470   13.6000 C.2   302  ILE302      0.2260
     92  O         69.3600   48.6270   13.2560 O.2   302  ILE302     -0.2867
     93  CB        72.5290   48.4220   13.2920 C.3   302  ILE302      0.0252
     94  CG1       73.7280   48.3840   12.3360 C.3   302  ILE302      0.0019
     95  CG2       71.8460   47.0630   13.3220 C.3   302  ILE302      0.0019
     96  CD1       74.6520   47.2000   12.5330 C.3   302  ILE302      0.0001
@<TRIPOS>BOND
     1    14    13    2
     2    94    96    1
     3    94    93    1
     4    11    10    2
     5    12    13    1
     6    12     9    1
     7    90    89    1
     8    90    93    1
     9    90    91    1
    10     4     3    2
    11    13    15   am
    12     7     5    1
    13    92    91    2
    14    93    95    1
    15    10     9    1
    16     9     8    1
    17    75    76    2
    18    75    74    1
    19    79    78    1
    20     3     8   am
    21     3     2    1
    22    77    74    1
    23    77    78    1
    24     1     2    1
    25    24    22   am
    26     5     2    1
    27     5     6    1
    28    23    22    2
    29    74    73    1
    30    78    80    1
    31    22    21    1
    32    71    70    2
    33    72    70   am
    34    70    69    1
    35    21    20    1
    36    69    66    1
    37    20    17    1
    38    66    67    1
    39    66    65    1
    40    33    31   ar
    41    33    35   ar
    42    17    16    1
    43    17    18    1
    44    31    30   ar
    45    67    68    2
    46    65    58   am
    47    36    35    1
    48    26    25    1
    49    26    27    1
    50    26    29    1
    51    18    19    2
    52    35    34   ar
    53    41    42    1
    54    41    38    1
    55    30    29    1
    56    30    32   ar
    57    27    28    2
    58    50    49    2
    59    58    59    2
    60    58    57    1
    61    42    43   ar
    62    42    44   ar
    63    43    45   ar
    64    38    37    1
    65    38    39    1
    66    87    86    2
    67    34    32   ar
    68    44    46   ar
    69    57    56    1
    70    57    60    1
    71    49    56   am
    72    49    48    1
    73    45    46   ar
    74    47    39   am
    75    47    48    1
    76    39    40    2
    77    86    85    1
    78    86    88   am
    79    63    62   ar
    80    54    53    2
    81    48    51    1
    82    51    52    1
    83    60    61    1
    84    85    82    1
    85    62    64   ar
    86    62    61    1
    87    81    82    1
    88    53    52    1
    89    53    55   am
    90    82    83    1
    91    84    83    2
