@<TRIPOS>MOLECULE
tmp/5fp4A00.pdb
 184 177 0 0 0
SMALL
GASTEIGER

@<TRIPOS>ATOM
      1  N         22.3720    4.6390   11.9040 N.3    65  LEU65      -0.1245
      2  CA        22.5140    5.7950   12.7740 C.3    65  LEU65       0.1561
      3  C         23.1940    5.3940   14.0640 C.2    65  LEU65       0.2260
      4  O         22.6820    4.5550   14.8180 O.2    65  LEU65      -0.2867
      5  CB        21.1590    6.4350   13.0650 C.3    65  LEU65       0.0270
      6  CG        20.3500    6.9100   11.8500 C.3    65  LEU65       0.0019
      7  CD1       18.9410    7.2960   12.2770 C.3    65  LEU65       0.0001
      8  CD2       21.0330    8.0760   11.1430 C.3    65  LEU65       0.0001
      9  N         20.0980   12.1810   22.9200 N.3    78  GLN78      -0.1245
     10  CA        20.8810   11.4040   21.9700 C.3    78  GLN78       0.1566
     11  C         20.7920   12.0410   20.6010 C.2    78  GLN78       0.2260
     12  O         19.7150   12.4610   20.1750 O.2    78  GLN78      -0.2867
     13  CB        20.4670    9.9210   21.9460 C.3    78  GLN78       0.0367
     14  CG        19.0980    9.6070   21.3610 C.3    78  GLN78       0.0905
     15  CD        18.7700    8.1180   21.3740 C.2    78  GLN78       0.2608
     16  OE1       19.5300    7.2980   21.8970 O.2    78  GLN78      -0.2717
     17  NE2       17.6230    7.7650   20.8030 N.am   78  GLN78      -0.0878
     18  N         21.9300   11.4960   16.4120 N.3    80  HIS80      -0.1241
     19  CA        22.1210   10.4310   15.4570 C.3    80  HIS80       0.1621
     20  C         23.1740   10.8240   14.4770 C.2    80  HIS80       0.2264
     21  O         23.0140   11.7870   13.7260 O.2    80  HIS80      -0.2867
     22  CB        20.8050   10.1290   14.7630 C.3    80  HIS80       0.0745
     23  CG        19.7670    9.5590   15.6900 C.ar   80  HIS80       0.0817
     24  ND1       19.0530   10.3260   16.5320 N.ar   80  HIS80      -0.2268
     25  CD2       19.3600    8.2390   15.9170 C.ar   80  HIS80       0.1154
     26  CE1       18.2160    9.5470   17.2480 C.ar   80  HIS80       0.1986
     27  NE2       18.4050    8.2700   16.8690 N.ar   80  HIS80      -0.2212
     28  N         21.7670    2.0370   15.0230 N.3   126  TYR126     -0.1241
     29  CA        20.3630    1.6930   14.8080 C.3   126  TYR126      0.1605
     30  C         20.0510    1.7850   13.3230 C.2   126  TYR126      0.2264
     31  O         20.3440    2.7960   12.6860 O.2   126  TYR126     -0.2867
     32  CB        19.4370    2.6630   15.5780 C.3   126  TYR126      0.0534
     33  CG        18.0410    2.1320   15.9130 C.ar  126  TYR126     -0.0201
     34  CD1       17.7050    0.7970   15.7010 C.ar  126  TYR126     -0.0009
     35  CD2       17.0710    2.9520   16.4980 C.ar  126  TYR126     -0.0009
     36  CE1       16.4570    0.2970   16.0290 C.ar  126  TYR126      0.0417
     37  CE2       15.8060    2.4490   16.8300 C.ar  126  TYR126      0.0417
     38  CZ        15.5100    1.1130   16.5890 C.ar  126  TYR126      0.1957
     39  OH        14.2850    0.5370   16.9110 O.3   126  TYR126     -0.2866
     40  N         17.2020    2.4030   11.5720 N.3   128  ALA128     -0.1231
     41  CA        15.8210    2.8600   11.7680 C.3   128  ALA128      0.1694
     42  C         15.2030    3.5090   10.5320 C.2   128  ALA128      0.2592
     43  O         15.9100    4.0030    9.6580 O.2   128  ALA128     -0.2718
     44  CB        15.7590    3.8280   12.9430 C.3   128  ALA128      0.0304
     45  N         13.8690    3.5020   10.4820 N.am  129  ASP129     -0.1974
     46  CA        13.0890    4.2000    9.4520 C.3   129  ASP129      0.1709
     47  C         13.4470    3.7630    8.0260 C.2   129  ASP129      0.2293
     48  O         13.6120    4.5900    7.1320 O.2   129  ASP129     -0.2864
     49  CB        13.2460    5.7240    9.5820 C.3   129  ASP129      0.1436
     50  CG        12.7180    6.2660   10.9010 C.2   129  ASP129      0.3671
     51  OD1       11.7480    5.7090   11.4500 O.co2 129  ASP129     -0.2456
     52  OD2       13.2730    7.2770   11.3770 O.co2 129  ASP129     -0.2456
     53  N         12.8010   -1.4890   11.2890 N.3   171  TYR171     -0.1241
     54  CA        13.7650   -1.0670   12.2900 C.3   171  TYR171      0.1605
     55  C         14.6360   -2.2550   12.6690 C.2   171  TYR171      0.2264
     56  O         14.1450   -3.2180   13.2490 O.2   171  TYR171     -0.2867
     57  CB        13.0510   -0.5380   13.5340 C.3   171  TYR171      0.0534
     58  CG        12.1720    0.6500   13.2350 C.ar  171  TYR171     -0.0201
     59  CD1       10.9110    0.4780   12.6780 C.ar  171  TYR171     -0.0009
     60  CD2       12.6140    1.9470   13.4700 C.ar  171  TYR171     -0.0009
     61  CE1       10.1100    1.5610   12.3660 C.ar  171  TYR171      0.0417
     62  CE2       11.8190    3.0410   13.1700 C.ar  171  TYR171      0.0417
     63  CZ        10.5670    2.8390   12.6190 C.ar  171  TYR171      0.1957
     64  OH         9.7640    3.9100   12.3060 O.3   171  TYR171     -0.2866
     65  N         17.9380    2.7880   21.0270 N.3   178  THR178     -0.1203
     66  CA        16.9860    3.5010   21.8610 C.3   178  THR178      0.1994
     67  C         15.9870    4.3030   21.0310 C.2   178  THR178      0.2618
     68  O         16.3610    4.9350   20.0420 O.2   178  THR178     -0.2717
     69  CB        17.7580    4.5010   22.7540 C.3   178  THR178      0.1784
     70  OG1       18.7490    3.8110   23.5350 O.3   178  THR178     -0.2211
     71  CG2       16.8190    5.2850   23.6800 C.3   178  THR178      0.0376
     72  N         14.7190    4.2590   21.4350 N.am  179  PHE179     -0.1961
     73  CA        13.7510    5.2430   20.9740 C.3   179  PHE179      0.1771
     74  C         13.3610    6.1890   22.1120 C.2   179  PHE179      0.2619
     75  O         12.9640    5.7680   23.2010 O.2   179  PHE179     -0.2715
     76  CB        12.5530    4.6260   20.2270 C.3   179  PHE179      0.0574
     77  CG        11.7920    3.5660   20.9710 C.ar  179  PHE179     -0.0200
     78  CD1       12.2770    2.2600   21.0600 C.ar  179  PHE179     -0.0042
     79  CD2       10.5250    3.8390   21.4770 C.ar  179  PHE179     -0.0042
     80  CE1       11.5370    1.2710   21.6970 C.ar  179  PHE179     -0.0003
     81  CE2        9.7800    2.8590   22.1170 C.ar  179  PHE179     -0.0003
     82  CZ        10.2890    1.5660   22.2250 C.ar  179  PHE179     -0.0000
     83  N         13.5390    7.4800   21.8470 N.am  180  ALA180     -0.1977
     84  CA        13.3290    8.5230   22.8340 C.3   180  ALA180      0.1597
     85  C         11.8360    8.7770   23.0700 C.2   180  ALA180      0.2287
     86  O         10.9710    8.2950   22.3150 O.2   180  ALA180     -0.2864
     87  CB        14.0280    9.8080   22.3890 C.3   180  ALA180      0.0319
     88  N          8.3500   10.1990   22.9850 N.3   182  HIS182     -0.1241
     89  CA         7.5780   10.9040   21.9750 C.3   182  HIS182      0.1621
     90  C          6.1630   10.3740   21.8490 C.2   182  HIS182      0.2264
     91  O          5.8430    9.2670   22.3000 O.2   182  HIS182     -0.2867
     92  CB         8.2710   10.7540   20.6240 C.3   182  HIS182      0.0745
     93  CG         8.2050    9.3570   20.0870 C.ar  182  HIS182      0.0817
     94  ND1        8.9540    8.3530   20.5910 N.ar  182  HIS182     -0.2268
     95  CD2        7.4010    8.7920   19.1020 C.ar  182  HIS182      0.1154
     96  CE1        8.6650    7.2160   19.9440 C.ar  182  HIS182      0.1986
     97  NE2        7.7150    7.4820   19.0310 N.ar  182  HIS182     -0.2212
     98  N          3.2930    9.9280   18.4910 N.3   184  GLU184     -0.1245
     99  CA         3.3900    9.8320   17.0330 C.3   184  GLU184      0.1567
    100  C          3.1300   11.1800   16.3850 C.2   184  GLU184      0.2260
    101  O          2.5450   12.0760   17.0050 O.2   184  GLU184     -0.2867
    102  CB         2.4000    8.8090   16.4760 C.3   184  GLU184      0.0388
    103  CG         2.5800    7.4130   17.0310 C.3   184  GLU184      0.1160
    104  CD         4.0050    6.9450   16.8750 C.2   184  GLU184      0.3649
    105  OE1        4.4510    6.7950   15.7230 O.co2 184  GLU184     -0.2457
    106  OE2        4.6870    6.7780   17.9030 O.co2 184  GLU184     -0.2457
    107  N          0.1200    4.0250   16.5150 N.3   190  SER190     -0.1217
    108  CA         1.1030    3.2350   15.7840 C.3   190  SER190      0.1889
    109  C          0.8820    1.7790   16.1110 C.2   190  SER190      0.2288
    110  O          0.3550    1.4490   17.1730 O.2   190  SER190     -0.2866
    111  CB         2.5470    3.6390   16.1220 C.3   190  SER190      0.2089
    112  OG         2.9020    3.2650   17.4490 O.3   190  SER190     -0.2183
    113  N          3.3100   -1.8320   15.9280 N.3   192  ASN192     -0.1240
    114  CA         4.6800   -2.3290   15.8350 C.3   192  ASN192      0.1653
    115  C          4.6690   -3.8510   15.9630 C.2   192  ASN192      0.2266
    116  O          4.2010   -4.3850   16.9690 O.2   192  ASN192     -0.2867
    117  CB         5.5240   -1.7090   16.9660 C.3   192  ASN192      0.1155
    118  CG         7.0050   -2.1040   16.9230 C.2   192  ASN192      0.2627
    119  OD1        7.3540   -3.2780   17.1090 O.2   192  ASN192     -0.2716
    120  ND2        7.8940   -1.1010   16.7650 N.am  192  ASN192     -0.0877
    121  N         12.1980   -6.0260   22.8750 N.3   200  LYS200     -0.1245
    122  CA        12.1590   -4.5750   22.9200 C.3   200  LYS200      0.1561
    123  C         11.3780   -4.1930   24.1670 C.2   200  LYS200      0.2260
    124  O         10.2310   -4.6190   24.3320 O.2   200  LYS200     -0.2867
    125  CB        11.4560   -4.0320   21.6660 C.3   200  LYS200      0.0271
    126  CG        11.5140   -2.5140   21.4970 C.3   200  LYS200      0.0035
    127  CD        10.6680   -2.0140   20.3250 C.3   200  LYS200      0.0206
    128  CE        11.1250   -2.5220   18.9560 C.3   200  LYS200      0.1093
    129  NZ        12.4040   -1.9710   18.4380 N.3   200  LYS200     -0.1314
    130  N          9.4610   -1.3900   26.4380 N.3   202  TRP202     -0.1241
    131  CA         8.6980   -0.1730   26.2270 C.3   202  TRP202      0.1605
    132  C          8.3730    0.4590   27.5400 C.2   202  TRP202      0.2264
    133  O          8.0900   -0.2470   28.5080 O.2   202  TRP202     -0.2867
    134  CB         7.3580   -0.4880   25.5670 C.3   202  TRP202      0.0550
    135  CG         7.4310   -1.0390   24.1660 C.ar  202  TRP202      0.0003
    136  CD1        7.8760   -2.2870   23.7670 C.ar  202  TRP202      0.0946
    137  CD2        7.0050   -0.3690   22.9300 C.ar  202  TRP202      0.0152
    138  NE1        7.7810   -2.4290   22.3990 N.ar  202  TRP202     -0.2442
    139  CE2        7.2570   -1.3140   21.8410 C.ar  202  TRP202      0.0810
    140  CE3        6.4700    0.8820   22.6290 C.ar  202  TRP202      0.0012
    141  CZ2        6.9810   -1.0030   20.5200 C.ar  202  TRP202      0.0191
    142  CZ3        6.1860    1.1820   21.2980 C.ar  202  TRP202      0.0001
    143  CH2        6.4330    0.2580   20.2640 C.ar  202  TRP202      0.0015
    144  N         11.4530   16.0580   18.4090 N.3   234  HIS234     -0.1226
    145  CA        12.7930   15.7900   17.8680 C.3   234  HIS234      0.1752
    146  C         13.2360   14.3830   18.1390 C.2   234  HIS234      0.2596
    147  O         14.1730   13.9090   17.5040 O.2   234  HIS234     -0.2718
    148  CB        13.8280   16.7850   18.4040 C.3   234  HIS234      0.0759
    149  CG        13.4260   18.2280   18.2440 C.ar  234  HIS234      0.0818
    150  ND1       14.0500   19.2310   18.8870 N.ar  234  HIS234     -0.2268
    151  CD2       12.3900   18.8120   17.5190 C.ar  234  HIS234      0.1154
    152  CE1       13.4570   20.3990   18.5770 C.ar  234  HIS234      0.1986
    153  NE2       12.4410   20.1420   17.7430 N.ar  234  HIS234     -0.2212
    154  N         12.5700   13.7040   19.0820 N.am  235  LYS235     -0.1966
    155  CA        12.9020   12.3290   19.4740 C.3   235  LYS235      0.1728
    156  C         14.3560   12.1820   19.8830 C.2   235  LYS235      0.2616
    157  O         15.0790   11.3220   19.3610 O.2   235  LYS235     -0.2715
    158  CB        12.5880   11.3300   18.3590 C.3   235  LYS235      0.0311
    159  CG        11.1340   11.3100   17.9290 C.3   235  LYS235      0.0038
    160  CD        10.8480   10.0270   17.1580 C.3   235  LYS235      0.0206
    161  CE         9.9390   10.2600   15.9690 C.3   235  LYS235      0.1093
    162  NZ         9.9120    9.0320   15.1240 N.3   235  LYS235     -0.1314
    163  N         14.7700   13.0180   20.8290 N.am  236  VAL236     -0.1977
    164  CA        16.1400   13.0130   21.3320 C.3   236  VAL236      0.1596
    165  C         16.2520   12.8220   22.8500 C.2   236  VAL236      0.2287
    166  O         17.3360   12.5370   23.3460 O.2   236  VAL236     -0.2864
    167  CB        16.8620   14.3270   20.9620 C.3   236  VAL236      0.0276
    168  CG1       16.8550   14.5330   19.4590 C.3   236  VAL236      0.0022
    169  CG2       16.2260   15.5120   21.6750 C.3   236  VAL236      0.0022
    170  N          5.7800    7.4460   24.6010 N.3   270  HIS270     -0.1241
    171  CA         6.5090    6.1960   24.7960 C.3   270  HIS270      0.1621
    172  C          7.9660    6.2880   24.4490 C.2   270  HIS270      0.2264
    173  O          8.3910    7.1760   23.7110 O.2   270  HIS270     -0.2867
    174  CB         5.8560    5.0670   24.0070 C.3   270  HIS270      0.0745
    175  CG         5.6610    5.3810   22.5490 C.ar  270  HIS270      0.0817
    176  ND1        4.6420    6.1470   22.1070 N.ar  270  HIS270     -0.2268
    177  CD2        6.3920    5.0090   21.4260 C.ar  270  HIS270      0.1154
    178  CE1        4.7210    6.2670   20.7760 C.ar  270  HIS270      0.1986
    179  NE2        5.7950    5.5740   20.3550 N.ar  270  HIS270     -0.2212
    180  N          6.7940   -1.1810   11.6900 N.3   282  ALA282     -0.1245
    181  CA         5.7880   -0.2910   12.2390 C.3   282  ALA282      0.1562
    182  C          5.1850    0.6190   11.1930 C.2   282  ALA282      0.2260
    183  O          5.8010    0.9210   10.1720 O.2   282  ALA282     -0.2867
    184  CB         6.3610    0.5490   13.3790 C.3   282  ALA282      0.0290
@<TRIPOS>BOND
     1    48    47    2
     2    47    46    1
     3    46    49    1
     4    46    45    1
     5    49    50    1
     6    43    42    2
     7   183   182    2
     8    45    42   am
     9    42    41    1
    10    50    52   ar
    11    50    51   ar
    12     8     6    1
    13   182   181    1
    14    53    54    1
    15    40    41    1
    16   180   181    1
    17    41    44    1
    18     6     7    1
    19     6     5    1
    20     1     2    1
    21   181   184    1
    22    54    55    1
    23    54    57    1
    24    64    63    1
    25    61    63   ar
    26    61    59   ar
    27    63    62   ar
    28    55    56    2
    29    59    58   ar
    30    31    30    2
    31     2     5    1
    32     2     3    1
    33    62    60   ar
    34    58    60   ar
    35    58    57    1
    36    30    29    1
    37    21    20    2
    38     3     4    2
    39    20    19    1
    40    22    19    1
    41    22    23    1
    42    29    28    1
    43    29    32    1
    44   162   161    1
    45    19    18    1
    46    32    33    1
    47    23    25   ar
    48    23    24   ar
    49    34    33   ar
    50    34    36   ar
    51   105   104   ar
    52   108   109    1
    53   108   111    1
    54   108   107    1
    55   114   113    1
    56   114   115    1
    57   114   117    1
    58    33    35   ar
    59    25    27   ar
    60   115   116    2
    61   161   160    1
    62    36    38   ar
    63   109   110    2
    64   111   112    1
    65   100   101    2
    66   100    99    1
    67   102   103    1
    68   102    99    1
    69    35    37   ar
    70    24    26   ar
    71    38    37   ar
    72    38    39    1
    73   120   118   am
    74    27    26   ar
    75   104   103    1
    76   104   106   ar
    77   118   117    1
    78   118   119    2
    79    99    98    1
    80   160   159    1
    81   147   146    2
    82   151   153   ar
    83   151   149   ar
    84   153   152   ar
    85   145   146    1
    86   145   148    1
    87   145   144    1
    88   159   158    1
    89   146   154   am
    90   149   148    1
    91   149   150   ar
    92   158   155    1
    93   129   128    1
    94   152   150   ar
    95   128   127    1
    96    97    95   ar
    97    97    96   ar
    98   154   155    1
    99    95    93   ar
   100   157   156    2
   101   168   167    1
   102   155   156    1
   103   156   163   am
   104    96    94   ar
   105    68    67    2
   106    93    94   ar
   107    93    92    1
   108    12    11    2
   109    76    77    1
   110    76    73    1
   111   143   141   ar
   112   143   142   ar
   113   127   126    1
   114   179   178   ar
   115   179   177   ar
   116   141   139   ar
   117    11    10    1
   118    92    89    1
   119   178   176   ar
   120    17    15   am
   121   163   164    1
   122   167   164    1
   123   167   169    1
   124    77    78   ar
   125    77    79   ar
   126    73    72    1
   127    73    74    1
   128    65    66    1
   129    67    72   am
   130    67    66    1
   131    78    80   ar
   132   142   140   ar
   133   164   165    1
   134    14    15    1
   135    14    13    1
   136    15    16    2
   137   177   175   ar
   138    79    81   ar
   139   126   125    1
   140   125   122    1
   141    80    82   ar
   142   139   138   ar
   143   139   137   ar
   144    83    74   am
   145    83    84    1
   146    90    89    1
   147    90    91    2
   148    66    69    1
   149    13    10    1
   150    10     9    1
   151    89    88    1
   152   176   175   ar
   153    74    75    2
   154    81    82   ar
   155    86    85    2
   156    87    84    1
   157   138   136   ar
   158   175   174    1
   159   140   137   ar
   160    69    70    1
   161    69    71    1
   162    84    85    1
   163   165   166    2
   164   121   122    1
   165   122   123    1
   166   137   135   ar
   167   173   172    2
   168   136   135   ar
   169   174   171    1
   170   135   134    1
   171   123   124    2
   172   172   171    1
   173   170   171    1
   174   134   131    1
   175   131   130    1
   176   131   132    1
   177   132   133    2
