@<TRIPOS>MOLECULE
tmp/5fp5A00.pdb
 96 90 0 0 0
SMALL
GASTEIGER

@<TRIPOS>ATOM
      1  N         25.8580   11.6800   67.9910 N.3    10  ILE10      -0.1245
      2  CA        26.8580   11.1750   67.0380 C.3    10  ILE10       0.1561
      3  C         26.7810   12.0490   65.7730 C.2    10  ILE10       0.2260
      4  O         27.8110   12.4200   65.2120 O.2    10  ILE10      -0.2867
      5  CB        26.5870    9.6550   66.7320 C.3    10  ILE10       0.0252
      6  CG1       27.1070    8.7440   67.8560 C.3    10  ILE10       0.0019
      7  CG2       27.1150    9.2120   65.3450 C.3    10  ILE10       0.0019
      8  CD1       26.7490    7.2460   67.6850 C.3    10  ILE10       0.0001
      9  N         21.0470   10.7500   65.2610 N.3    17  VAL17      -0.1245
     10  CA        21.8470    9.6010   65.7220 C.3    17  VAL17       0.1561
     11  C         22.5460    9.9410   67.0460 C.2    17  VAL17       0.2260
     12  O         23.3420   10.8700   67.0900 O.2    17  VAL17      -0.2867
     13  CB        22.8980    9.1080   64.6640 C.3    17  VAL17       0.0252
     14  CG1       23.4900    7.7470   65.0630 C.3    17  VAL17       0.0019
     15  CG2       22.3050    9.0400   63.2570 C.3    17  VAL17       0.0019
     16  N         24.5810    2.8210   68.7870 N.3    30  ALA30      -0.1245
     17  CA        24.1750    4.0040   68.0470 C.3    30  ALA30       0.1562
     18  C         22.6680    3.9190   67.8650 C.2    30  ALA30       0.2260
     19  O         22.1390    2.9440   67.3170 O.2    30  ALA30      -0.2867
     20  CB        24.8810    4.0630   66.7030 C.3    30  ALA30       0.0290
     21  N         19.5090    5.5850   66.2450 N.3    32  LYS32      -0.1245
     22  CA        18.9640    6.4380   65.1970 C.3    32  LYS32       0.1561
     23  C         17.4410    6.5960   65.4350 C.2    32  LYS32       0.2260
     24  O         16.6910    5.6360   65.2680 O.2    32  LYS32      -0.2867
     25  CB        19.2720    5.8100   63.8200 C.3    32  LYS32       0.0271
     26  CG        18.8690    6.7050   62.6430 C.3    32  LYS32       0.0035
     27  CD        19.0320    5.9840   61.3220 C.3    32  LYS32       0.0206
     28  CE        20.3380    6.3560   60.6510 C.3    32  LYS32       0.1093
     29  NZ        20.3590    7.8030   60.2890 N.3    32  LYS32      -0.1314
     30  N         27.5800   -2.5880   59.1470 N.3    52  VAL52      -0.1245
     31  CA        27.2280   -2.2330   60.5300 C.3    52  VAL52       0.1561
     32  C         25.9650   -3.0180   60.9120 C.2    52  VAL52       0.2260
     33  O         25.0090   -3.0650   60.1330 O.2    52  VAL52      -0.2867
     34  CB        27.0980   -0.6850   60.7210 C.3    52  VAL52       0.0252
     35  CG1       26.5390   -0.2950   62.0830 C.3    52  VAL52       0.0019
     36  CG2       28.4450   -0.0140   60.5210 C.3    52  VAL52       0.0019
     37  N         21.7750    0.3840   66.2590 N.3    65  PHE65      -0.1227
     38  CA        22.9290   -0.1380   65.5310 C.3    65  PHE65       0.1736
     39  C         24.0800   -0.4220   66.5170 C.2    65  PHE65       0.2598
     40  O         24.1710    0.2170   67.5680 O.2    65  PHE65      -0.2717
     41  CB        23.3960    0.8830   64.4610 C.3    65  PHE65       0.0547
     42  CG        22.4640    1.0550   63.2740 C.ar   65  PHE65      -0.0202
     43  CD1       22.4640    0.1370   62.2290 C.ar   65  PHE65      -0.0042
     44  CD2       21.5960    2.1450   63.1990 C.ar   65  PHE65      -0.0042
     45  CE1       21.6050    0.2960   61.1370 C.ar   65  PHE65      -0.0003
     46  CE2       20.7310    2.2980   62.1080 C.ar   65  PHE65      -0.0003
     47  CZ        20.7410    1.3730   61.0830 C.ar   65  PHE65      -0.0000
     48  N         24.9620   -1.3750   66.1780 N.am   66  GLU66      -0.1920
     49  CA        26.2740   -1.4700   66.8430 C.3    66  GLU66       0.1949
     50  C         26.9830   -0.0940   66.7730 C.2    66  GLU66       0.2659
     51  O         26.8060    0.6370   65.8070 O.2    66  GLU66      -0.2711
     52  CB        27.1540   -2.5850   66.2360 C.2    66  GLU66       0.0111
     53  CG        27.6920   -2.3090   64.8380 C.2    66  GLU66       0.0838
     54  CD        28.7500   -3.2560   64.2940 C.2    66  GLU66       0.3877
     55  OE1       29.8590   -3.3020   64.8770 O.co2  66  GLU66      -0.2406
     56  OE2       28.5030   -3.8790   63.2320 O.co2  66  GLU66      -0.2406
     57  N         27.7590    0.2580   67.7920 N.am   67  PHE67      -0.1957
     58  CA        28.4440    1.5480   67.7970 C.3    67  PHE67       0.1771
     59  C         29.8990    1.3460   67.3580 C.2    67  PHE67       0.2619
     60  O         30.5560    0.4120   67.8210 O.2    67  PHE67      -0.2715
     61  CB        28.3440    2.2020   69.1990 C.3    67  PHE67       0.0574
     62  CG        29.2660    3.3750   69.4220 C.ar   67  PHE67      -0.0200
     63  CD1       28.9170    4.6470   68.9830 C.ar   67  PHE67      -0.0042
     64  CD2       30.4880    3.2080   70.0690 C.ar   67  PHE67      -0.0042
     65  CE1       29.7750    5.7290   69.1780 C.ar   67  PHE67      -0.0003
     66  CE2       31.3460    4.2890   70.2620 C.ar   67  PHE67      -0.0003
     67  CZ        30.9850    5.5440   69.8170 C.ar   67  PHE67      -0.0000
     68  N         30.3820    2.2170   66.4510 N.am   68  LEU68      -0.1977
     69  CA        31.8170    2.4050   66.2170 C.3    68  LEU68       0.1596
     70  C         32.1020    3.9000   66.2600 C.2    68  LEU68       0.2287
     71  O         31.3290    4.6910   65.7110 O.2    68  LEU68      -0.2864
     72  CB        32.2840    1.7800   64.8900 C.3    68  LEU68       0.0297
     73  CG        32.3910    0.2490   64.8790 C.3    68  LEU68       0.0022
     74  CD1       32.6610   -0.2770   63.4630 C.3    68  LEU68       0.0001
     75  CD2       33.5020   -0.2480   65.8400 C.3    68  LEU68       0.0001
     76  N         32.2740    3.2670   58.6280 N.3   119  LEU119     -0.1245
     77  CA        32.7790    3.1990   59.9980 C.3   119  LEU119      0.1561
     78  C         33.9770    2.2760   60.0720 C.2   119  LEU119      0.2260
     79  O         33.9850    1.2250   59.4330 O.2   119  LEU119     -0.2867
     80  CB        31.6760    2.7890   60.9890 C.3   119  LEU119      0.0270
     81  CG        30.4100    3.6710   61.0100 C.3   119  LEU119      0.0019
     82  CD1       29.4040    3.1250   61.9710 C.3   119  LEU119      0.0001
     83  CD2       30.7160    5.1290   61.4180 C.3   119  LEU119      0.0001
     84  N         27.6710    1.8490   56.6820 N.3   129  ALA129     -0.1231
     85  CA        26.6300    2.3250   57.5960 C.3   129  ALA129      0.1694
     86  C         25.6920    3.2840   56.8780 C.2   129  ALA129      0.2592
     87  O         25.9830    3.7330   55.7490 O.2   129  ALA129     -0.2718
     88  CB        27.2510    3.0220   58.7960 C.3   129  ALA129      0.0304
     89  N         24.5740    3.5920   57.5480 N.am  130  ASP130     -0.1974
     90  CA        23.6190    4.6310   57.1990 C.3   130  ASP130      0.1709
     91  C         23.1270    4.4470   55.7410 C.2   130  ASP130      0.2293
     92  O         23.2560    5.3290   54.8820 O.2   130  ASP130     -0.2864
     93  CB        24.2110    6.0280   57.5400 C.3   130  ASP130      0.1436
     94  CG        23.3100    7.2320   57.3370 C.2   130  ASP130      0.3671
     95  OD1       22.0720    7.0460   57.2550 O.co2 130  ASP130     -0.2456
     96  OD2       23.8510    8.3630   57.2080 O.co2 130  ASP130     -0.2456
@<TRIPOS>BOND
     1    92    91    2
     2    91    90    1
     3    87    86    2
     4    84    85    1
     5    86    89   am
     6    86    85    1
     7    90    93    1
     8    90    89    1
     9    96    94   ar
    10    95    94   ar
    11    94    93    1
    12    85    88    1
    13    76    77    1
    14    30    31    1
    15    79    78    2
    16    77    78    1
    17    77    80    1
    18    33    32    2
    19    29    28    1
    20    36    34    1
    21    31    34    1
    22    31    32    1
    23    28    27    1
    24    34    35    1
    25    80    81    1
    26    81    83    1
    27    81    82    1
    28    47    45   ar
    29    47    46   ar
    30    45    43   ar
    31    27    26    1
    32    46    44   ar
    33    43    42   ar
    34    26    25    1
    35    44    42   ar
    36    56    54   ar
    37    15    13    1
    38    42    41    1
    39    74    73    1
    40    25    22    1
    41    54    53    1
    42    54    55   ar
    43    41    38    1
    44    13    14    1
    45    13    10    1
    46    53    52    2
    47    73    72    1
    48    73    75    1
    49    72    69    1
    50    22    23    1
    51    22    21    1
    52     4     3    2
    53     9    10    1
    54    24    23    2
    55     7     5    1
    56    38    37    1
    57    38    39    1
    58    71    70    2
    59    10    11    1
    60     3     2    1
    61    51    50    2
    62    48    39   am
    63    48    49    1
    64    69    70    1
    65    69    68    1
    66    52    49    1
    67    68    59   am
    68    39    40    2
    69    20    17    1
    70     5     2    1
    71     5     6    1
    72    50    49    1
    73    50    57   am
    74     2     1    1
    75    11    12    2
    76    19    18    2
    77    59    58    1
    78    59    60    2
    79     8     6    1
    80    57    58    1
    81    58    61    1
    82    18    17    1
    83    17    16    1
    84    63    65   ar
    85    63    62   ar
    86    65    67   ar
    87    61    62    1
    88    62    64   ar
    89    67    66   ar
    90    64    66   ar
