@<TRIPOS>MOLECULE
tmp/5fp5A01.pdb
 83 79 0 0 0
SMALL
GASTEIGER

@<TRIPOS>ATOM
      1  N         35.7480   13.8210   33.0930 N.3   188  LEU188     -0.1231
      2  CA        35.6010   12.5830   32.3300 C.3   188  LEU188      0.1693
      3  C         35.1100   12.8130   30.8880 C.2   188  LEU188      0.2592
      4  O         34.9990   11.8440   30.1320 O.2   188  LEU188     -0.2718
      5  CB        34.6350   11.6250   33.0770 C.3   188  LEU188      0.0284
      6  CG        34.9780   11.2530   34.5360 C.3   188  LEU188      0.0019
      7  CD1       33.9970   10.2660   35.0610 C.3   188  LEU188      0.0001
      8  CD2       36.3950   10.6380   34.6560 C.3   188  LEU188      0.0001
      9  N         34.8180   14.0700   30.5410 N.am  189  GLY189     -0.1957
     10  CA        34.2690   14.4600   29.2460 C.3   189  GLY189      0.1869
     11  C         32.7630   14.3900   29.2400 C.2   189  GLY189      0.2309
     12  O         32.2030   13.5650   29.9640 O.2   189  GLY189     -0.2863
     13  N         29.5570    6.5500   24.1710 N.3   195  VAL195     -0.1245
     14  CA        30.0990    5.9880   25.4080 C.3   195  VAL195      0.1561
     15  C         28.9820    5.5270   26.3500 C.2   195  VAL195      0.2260
     16  O         29.2190    4.6690   27.1900 O.2   195  VAL195     -0.2867
     17  CB        31.1260    6.9350   26.1130 C.3   195  VAL195      0.0252
     18  CG1       32.3670    7.1710   25.2270 C.3   195  VAL195      0.0019
     19  CG2       30.4810    8.2730   26.5440 C.3   195  VAL195      0.0019
     20  N         37.6340   14.8740   27.7920 N.3   214  ARG214     -0.1245
     21  CA        38.0370   14.0150   28.8860 C.3   214  ARG214      0.1563
     22  C         39.4870   14.2960   29.2740 C.2   214  ARG214      0.2260
     23  O         40.3370   14.4400   28.4010 O.2   214  ARG214     -0.2867
     24  CB        37.8870   12.5470   28.4510 C.3   214  ARG214      0.0307
     25  CG        38.2240   11.5310   29.5340 C.3   214  ARG214      0.0489
     26  CD        37.8140   10.1620   29.0580 C.3   214  ARG214      0.2205
     27  NE        38.0040    9.1410   30.0850 N.pl3 214  ARG214     -0.0865
     28  CZ        37.0590    8.7120   30.9110 C.cat 214  ARG214      0.5346
     29  NH1       35.8280    9.2140   30.8500 N.pl3 214  ARG214      0.1354
     30  NH2       37.3330    7.7800   31.8060 N.pl3 214  ARG214      0.1354
     31  N         38.9970    3.4830   36.6500 N.3   233  SER233     -0.1217
     32  CA        38.3350    3.8140   35.3810 C.3   233  SER233      0.1889
     33  C         37.0830    2.9480   35.1480 C.2   233  SER233      0.2288
     34  O         36.1040    3.4420   34.5850 O.2   233  SER233     -0.2866
     35  CB        39.3210    3.7630   34.2170 C.3   233  SER233      0.2089
     36  OG        39.6430    2.4480   33.8090 O.3   233  SER233     -0.2183
     37  N         34.1940    4.0380   37.2400 N.3   236  LEU236     -0.1231
     38  CA        33.7200    5.3580   36.8090 C.3   236  LEU236      0.1693
     39  C         33.2700    5.4210   35.3430 C.2   236  LEU236      0.2592
     40  O         33.2060    6.5220   34.7680 O.2   236  LEU236     -0.2718
     41  CB        34.7610    6.4570   37.1110 C.3   236  LEU236      0.0284
     42  CG        35.0910    6.6870   38.6030 C.3   236  LEU236      0.0019
     43  CD1       36.0700    7.8420   38.7410 C.3   236  LEU236      0.0001
     44  CD2       33.8230    7.0590   39.4290 C.3   236  LEU236      0.0001
     45  N         32.9410    4.2620   34.7390 N.am  237  HIS237     -0.1962
     46  CA        32.3490    4.2470   33.3910 C.3   237  HIS237      0.1787
     47  C         31.0150    4.9990   33.4900 C.2   237  HIS237      0.2620
     48  O         30.2480    4.8060   34.4550 O.2   237  HIS237     -0.2715
     49  CB        32.0900    2.8160   32.8740 C.3   237  HIS237      0.0785
     50  CG        33.2790    2.0640   32.3470 C.ar  237  HIS237      0.0821
     51  ND1       34.2530    2.6760   31.5960 N.ar  237  HIS237     -0.2267
     52  CD2       33.5940    0.7510   32.4750 C.ar  237  HIS237      0.1154
     53  CE1       35.1380    1.7390   31.3020 C.ar  237  HIS237      0.1986
     54  NE2       34.7770    0.5610   31.8010 N.ar  237  HIS237     -0.2212
     55  N         30.7520    5.8670   32.5150 N.am  238  TYR238     -0.1960
     56  CA        29.4700    6.5870   32.4280 C.3   238  TYR238      0.1771
     57  C         28.2850    5.6270   32.4140 C.2   238  TYR238      0.2619
     58  O         27.4170    5.7070   33.2770 O.2   238  TYR238     -0.2715
     59  CB        29.4470    7.4930   31.1840 C.3   238  TYR238      0.0574
     60  CG        29.9410    8.8830   31.4910 C.ar  238  TYR238     -0.0198
     61  CD1       29.3420    9.6550   32.4900 C.ar  238  TYR238     -0.0009
     62  CD2       31.0300    9.4260   30.8070 C.ar  238  TYR238     -0.0009
     63  CE1       29.8010   10.9330   32.7920 C.ar  238  TYR238      0.0417
     64  CE2       31.5140   10.6940   31.1210 C.ar  238  TYR238      0.0417
     65  CZ        30.8810   11.4510   32.1020 C.ar  238  TYR238      0.1957
     66  OH        31.3160   12.7070   32.4090 O.3   238  TYR238     -0.2866
     67  N         28.2740    4.7070   31.4480 N.am  239  ASP239     -0.1971
     68  CA        27.1930    3.7530   31.2410 C.3   239  ASP239      0.1709
     69  C         27.1310    2.8010   32.4460 C.2   239  ASP239      0.2293
     70  O         28.0720    2.0100   32.6410 O.2   239  ASP239     -0.2864
     71  CB        27.4600    2.9810   29.9430 C.3   239  ASP239      0.1436
     72  CG        26.3750    2.0250   29.4600 C.2   239  ASP239      0.3671
     73  OD1       25.4400    1.7440   30.2260 O.co2 239  ASP239     -0.2456
     74  OD2       26.4740    1.5570   28.3290 O.co2 239  ASP239     -0.2456
     75  N         28.2460   -0.6630   31.7840 N.3   242  LYS242     -0.1245
     76  CA        29.6690   -0.9550   31.5710 C.3   242  LYS242      0.1561
     77  C         30.4360   -0.9530   32.8970 C.2   242  LYS242      0.2260
     78  O         31.5100   -1.5380   32.9810 O.2   242  LYS242     -0.2867
     79  CB        30.3090    0.0380   30.5890 C.3   242  LYS242      0.0271
     80  CG        29.7510   -0.0260   29.1740 C.3   242  LYS242      0.0035
     81  CD        30.5620    0.8590   28.2420 C.3   242  LYS242      0.0206
     82  CE        30.1010    0.7370   26.8080 C.3   242  LYS242      0.1093
     83  NZ        28.9720    1.6520   26.5190 N.3   242  LYS242     -0.1314
@<TRIPOS>BOND
     1    13    14    1
     2    18    17    1
     3    14    17    1
     4    14    15    1
     5    17    19    1
     6    15    16    2
     7    83    82    1
     8    82    81    1
     9    20    21    1
    10    81    80    1
    11    74    72   ar
    12    23    22    2
    13    24    21    1
    14    24    25    1
    15    21    22    1
    16    26    25    1
    17    26    27    1
    18    80    79    1
    19    11    10    1
    20    11    12    2
    21    10     9    1
    22    72    71    1
    23    72    73   ar
    24    71    68    1
    25    27    28    2
    26     4     3    2
    27     9     3   am
    28    79    76    1
    29    62    64   ar
    30    62    60   ar
    31    29    28    1
    32     3     2    1
    33    28    30    1
    34    64    65   ar
    35    59    60    1
    36    59    56    1
    37    68    67    1
    38    68    69    1
    39    53    51   ar
    40    53    54   ar
    41    67    57   am
    42    60    61   ar
    43    76    75    1
    44    76    77    1
    45    51    50   ar
    46    54    52   ar
    47    65    66    1
    48    65    63   ar
    49     2     5    1
    50     2     1    1
    51    50    52   ar
    52    50    49    1
    53    57    56    1
    54    57    58    2
    55    56    55    1
    56    69    70    2
    57    61    63   ar
    58    55    47   am
    59    49    46    1
    60    77    78    2
    61     5     6    1
    62    46    47    1
    63    46    45    1
    64    47    48    2
    65    36    35    1
    66    35    32    1
    67     6     8    1
    68     6     7    1
    69    34    33    2
    70    45    39   am
    71    40    39    2
    72    33    32    1
    73    39    38    1
    74    32    31    1
    75    38    41    1
    76    38    37    1
    77    41    42    1
    78    42    43    1
    79    42    44    1
