@<TRIPOS>MOLECULE
tmp/5fp6A01.pdb
 92 85 0 0 0
SMALL
GASTEIGER

@<TRIPOS>ATOM
      1  N          8.2770    9.1570   61.9160 N.3    37  LEU37      -0.1245
      2  CA         7.4730    8.5850   60.8310 C.3    37  LEU37       0.1561
      3  C          6.3160    9.4940   60.4530 C.2    37  LEU37       0.2260
      4  O          5.5890    9.9590   61.3400 O.2    37  LEU37      -0.2867
      5  CB         6.9150    7.1900   61.1950 C.3    37  LEU37       0.0270
      6  CG         7.9270    6.0640   61.4580 C.3    37  LEU37       0.0019
      7  CD1        7.2720    4.9150   62.2030 C.3    37  LEU37       0.0001
      8  CD2        8.6470    5.6170   60.1610 C.3    37  LEU37       0.0001
      9  N          3.3160    6.6690   55.8480 N.3    41  THR41      -0.1203
     10  CA         4.0000    5.3730   55.9500 C.3    41  THR41       0.1994
     11  C          3.4220    4.5630   57.1130 C.2    41  THR41       0.2617
     12  O          3.4090    3.3500   57.0080 O.2    41  THR41      -0.2717
     13  CB         5.5560    5.4040   55.9450 C.3    41  THR41       0.1784
     14  OG1        6.0870    5.0250   57.2230 O.3    41  THR41      -0.2211
     15  CG2        6.1470    6.7040   55.4640 C.3    41  THR41       0.0376
     16  N          2.9440    5.1940   58.2010 N.am   42  GLU42      -0.1979
     17  CA         2.2640    4.4060   59.2480 C.3    42  GLU42       0.1602
     18  C          0.9950    3.7280   58.7410 C.2    42  GLU42       0.2287
     19  O          0.7010    2.6060   59.1600 O.2    42  GLU42      -0.2864
     20  CB         2.0050    5.2140   60.5320 C.3    42  GLU42       0.0415
     21  CG         3.2790    5.3880   61.3370 C.3    42  GLU42       0.1163
     22  CD         3.1010    5.8330   62.7740 C.2    42  GLU42       0.3649
     23  OE1        2.4710    6.8920   62.9960 O.co2  42  GLU42      -0.2457
     24  OE2        3.6290    5.1470   63.6790 O.co2  42  GLU42      -0.2457
     25  N          2.5740    0.7280   55.8020 N.3    45  PRO45      -0.2116
     26  CA         3.9770    0.4340   56.1860 C.3    45  PRO45       0.1372
     27  C          4.6630   -0.7220   55.4690 C.2    45  PRO45       0.2244
     28  O          5.8410   -0.9470   55.7060 O.2    45  PRO45      -0.2868
     29  CB         3.8500    0.1300   57.6800 C.3    45  PRO45       0.0268
     30  CG         2.5030   -0.5040   57.8050 C.3    45  PRO45       0.0207
     31  CD         1.6140    0.1350   56.7670 C.3    45  PRO45       0.0892
     32  N          8.1910   -0.0580   53.6120 N.3    48  ALA48      -0.1231
     33  CA         9.1690    0.3430   54.6120 C.3    48  ALA48       0.1694
     34  C          9.6630   -0.8970   55.3830 C.2    48  ALA48       0.2591
     35  O         10.8530   -1.0390   55.5960 O.2    48  ALA48      -0.2718
     36  CB         8.5480    1.3740   55.5610 C.3    48  ALA48       0.0304
     37  N          8.7390   -1.7980   55.7820 N.am   49  ILE49      -0.1980
     38  CA         9.0490   -3.0140   56.5430 C.3    49  ILE49       0.1595
     39  C          9.8440   -4.0030   55.6990 C.2    49  ILE49       0.2287
     40  O         10.7640   -4.6210   56.2130 O.2    49  ILE49      -0.2864
     41  CB         7.7260   -3.6340   57.0660 C.3    49  ILE49       0.0276
     42  CG1        7.0930   -2.7360   58.1290 C.3    49  ILE49       0.0022
     43  CG2        7.9060   -5.0770   57.5580 C.3    49  ILE49       0.0022
     44  CD1        5.6170   -3.1300   58.4760 C.3    49  ILE49       0.0001
     45  N         13.4600   -2.4400   55.3130 N.3    52  ILE52      -0.1231
     46  CA        14.1690   -2.5610   56.5850 C.3    52  ILE52       0.1692
     47  C         14.4860   -4.0540   56.9240 C.2    52  ILE52       0.2592
     48  O         15.5450   -4.3210   57.4840 O.2    52  ILE52      -0.2718
     49  CB        13.3850   -1.8040   57.6970 C.3    52  ILE52       0.0266
     50  CG1       13.4000   -0.2650   57.4670 C.3    52  ILE52       0.0019
     51  CG2       13.8630   -2.1840   59.1180 C.3    52  ILE52       0.0020
     52  CD1       14.7590    0.4830   57.5430 C.3    52  ILE52       0.0001
     53  N         13.5790   -5.0110   56.5820 N.am   53  SER53      -0.1952
     54  CA        13.8620   -6.4430   56.7750 C.3    53  SER53       0.1924
     55  C         15.0690   -6.8950   55.9180 C.2    53  SER53       0.2314
     56  O         15.9240   -7.6450   56.4090 O.2    53  SER53      -0.2863
     57  CB        12.6240   -7.2840   56.4940 C.3    53  SER53       0.2116
     58  OG        11.6410   -6.9680   57.4680 O.3    53  SER53      -0.2180
     59  N         17.9910   -5.6840   57.7000 N.3    56  LYS56      -0.1245
     60  CA        18.2050   -6.4510   58.9380 C.3    56  LYS56       0.1561
     61  C         18.8720   -7.8290   58.6890 C.2    56  LYS56       0.2260
     62  O         19.7300   -8.2470   59.4680 O.2    56  LYS56      -0.2867
     63  CB        16.9040   -6.5780   59.7530 C.3    56  LYS56       0.0271
     64  CG        17.1740   -6.9780   61.2140 C.3    56  LYS56       0.0035
     65  CD        16.0390   -6.6040   62.1150 C.3    56  LYS56       0.0206
     66  CE        16.0340   -7.4230   63.3950 C.3    56  LYS56       0.1093
     67  NZ        17.2870   -7.2560   64.1680 N.3    56  LYS56      -0.1314
     68  N         14.9610   -3.2130   65.7040 N.3    69  VAL69      -0.1245
     69  CA        14.0640   -2.2050   65.1670 C.3    69  VAL69       0.1561
     70  C         12.9170   -1.9960   66.1850 C.2    69  VAL69       0.2260
     71  O         12.2430   -2.9580   66.5870 O.2    69  VAL69      -0.2867
     72  CB        13.5530   -2.5980   63.7470 C.3    69  VAL69       0.0252
     73  CG1       12.5210   -1.6110   63.2510 C.3    69  VAL69       0.0019
     74  CG2       14.7210   -2.7140   62.7540 C.3    69  VAL69       0.0019
     75  N          9.4480    0.1400   66.8360 N.3    71  HIS71      -0.1241
     76  CA         8.3930    1.0500   66.4180 C.3    71  HIS71       0.1621
     77  C          7.5470    1.4180   67.6490 C.2    71  HIS71       0.2264
     78  O          6.9370    0.5360   68.2490 O.2    71  HIS71      -0.2867
     79  CB         7.5370    0.4080   65.3160 C.3    71  HIS71       0.0745
     80  CG         6.3820    1.2370   64.8590 C.ar   71  HIS71       0.0817
     81  ND1        5.1820    0.6500   64.5030 N.ar   71  HIS71      -0.2268
     82  CD2        6.2810    2.5770   64.6960 C.ar   71  HIS71       0.1154
     83  CE1        4.3890    1.6510   64.1420 C.ar   71  HIS71       0.1986
     84  NE2        5.0110    2.8270   64.2360 N.ar   71  HIS71      -0.2212
     85  N         10.3810    5.3800   64.4880 N.3    76  LEU76      -0.1245
     86  CA        11.1120    4.1580   64.2860 C.3    76  LEU76       0.1561
     87  C         12.5570    4.3700   64.7820 C.2    76  LEU76       0.2260
     88  O         13.2240    5.3220   64.3590 O.2    76  LEU76      -0.2867
     89  CB        11.0870    3.7880   62.8000 C.3    76  LEU76       0.0270
     90  CG        11.4880    2.3420   62.4950 C.3    76  LEU76       0.0019
     91  CD1       10.3510    1.3760   62.8880 C.3    76  LEU76       0.0001
     92  CD2       11.8750    2.1780   61.0040 C.3    76  LEU76       0.0001
@<TRIPOS>BOND
     1    32    33    1
     2    33    34    1
     3    33    36    1
     4    45    46    1
     5    34    35    2
     6    34    37   am
     7    15    13    1
     8    27    28    2
     9    27    26    1
    10    39    40    2
    11    39    38    1
    12    37    38    1
    13    25    26    1
    14    25    31    1
    15     9    10    1
    16    55    56    2
    17    55    54    1
    18    13    10    1
    19    13    14    1
    20    10    11    1
    21    26    29    1
    22    57    54    1
    23    57    58    1
    24    38    41    1
    25    53    54    1
    26    53    47   am
    27    46    47    1
    28    46    49    1
    29    31    30    1
    30    47    48    2
    31    12    11    2
    32    41    43    1
    33    41    42    1
    34    11    16   am
    35    50    52    1
    36    50    49    1
    37    29    30    1
    38    49    51    1
    39    59    60    1
    40    42    44    1
    41    16    17    1
    42    61    60    1
    43    61    62    2
    44    18    19    2
    45    18    17    1
    46    60    63    1
    47    17    20    1
    48    63    64    1
    49     8     6    1
    50     3     2    1
    51     3     4    2
    52    20    21    1
    53     2     5    1
    54     2     1    1
    55    92    90    1
    56     5     6    1
    57    64    65    1
    58    21    22    1
    59     6     7    1
    60    65    66    1
    61    90    89    1
    62    90    91    1
    63    74    72    1
    64    22    23   ar
    65    22    24   ar
    66    89    86    1
    67    73    72    1
    68    66    67    1
    69    72    69    1
    70    83    84   ar
    71    83    81   ar
    72    84    82   ar
    73    86    85    1
    74    86    87    1
    75    88    87    2
    76    81    80   ar
    77    82    80   ar
    78    80    79    1
    79    69    68    1
    80    69    70    1
    81    79    76    1
    82    70    71    2
    83    76    75    1
    84    76    77    1
    85    77    78    2
