@<TRIPOS>MOLECULE
tmp/5fp6A00.pdb
 151 141 0 0 0
SMALL
GASTEIGER

@<TRIPOS>ATOM
      1  N         26.1180   11.5370   67.1750 N.3    10  ILE10      -0.1231
      2  CA        27.2530   11.1040   66.3500 C.3    10  ILE10       0.1692
      3  C         26.9800   11.2640   64.8490 C.2    10  ILE10       0.2593
      4  O         27.9030   11.1890   64.0460 O.2    10  ILE10      -0.2718
      5  CB        27.7210    9.6560   66.7060 C.3    10  ILE10       0.0266
      6  CG1       26.5990    8.6050   66.4860 C.3    10  ILE10       0.0019
      7  CG2       28.2850    9.6090   68.1300 C.3    10  ILE10       0.0020
      8  CD1       27.0620    7.0430   66.5480 C.3    10  ILE10       0.0001
      9  N         25.7210   11.4700   64.4910 N.am   11  GLY11      -0.1942
     10  CA        25.3310   11.6480   63.1000 C.3    11  GLY11       0.2014
     11  C         23.9680   12.2720   62.9120 C.2    11  GLY11       0.2639
     12  O         23.1220   12.2740   63.8160 O.2    11  GLY11      -0.2714
     13  N         23.7610   12.8130   61.7190 N.am   12  GLU12      -0.1963
     14  CA        22.4950   13.3970   61.3230 C.3    12  GLU12       0.1733
     15  C         22.3840   13.2080   59.8360 C.2    12  GLU12       0.2616
     16  O         23.3430   13.4730   59.1150 O.2    12  GLU12      -0.2715
     17  CB        22.4390   14.8930   61.7070 C.3    12  GLU12       0.0429
     18  CG        21.1150   15.3340   62.3000 C.3    12  GLU12       0.1163
     19  CD        19.9610   15.2670   61.3070 C.2    12  GLU12       0.3649
     20  OE1       19.9510   16.0730   60.3510 O.co2  12  GLU12      -0.2457
     21  OE2       19.0390   14.4430   61.5120 O.co2  12  GLU12      -0.2457
     22  N         21.2270   12.7330   59.3980 N.am   13  GLY13      -0.1955
     23  CA        20.8950   12.5970   57.9860 C.3    13  GLY13       0.1869
     24  C         19.5170   13.1550   57.6780 C.2    13  GLY13       0.2309
     25  O         18.8830   13.7750   58.5430 O.2    13  GLY13      -0.2863
     26  N         16.8680   11.0460   59.8990 N.3    16  GLY16      -0.1225
     27  CA        16.9670   11.1400   61.3510 C.3    16  GLY16       0.1811
     28  C         18.2740   11.5800   61.9760 C.2    16  GLY16       0.2280
     29  O         19.2030   12.0030   61.2910 O.2    16  GLY16      -0.2866
     30  N         21.3550   10.3380   64.8180 N.3    18  VAL18      -0.1245
     31  CA        22.0500    9.1520   65.2950 C.3    18  VAL18       0.1561
     32  C         22.8330    9.5000   66.5580 C.2    18  VAL18       0.2260
     33  O         23.6280   10.4300   66.5450 O.2    18  VAL18      -0.2867
     34  CB        22.9520    8.5320   64.1910 C.3    18  VAL18       0.0252
     35  CG1       23.6130    7.2410   64.6760 C.3    18  VAL18       0.0019
     36  CG2       22.1390    8.2730   62.9110 C.3    18  VAL18       0.0019
     37  N         24.7530    2.4020   68.2010 N.3    31  ALA31      -0.1245
     38  CA        24.3090    3.6160   67.5330 C.3    31  ALA31       0.1562
     39  C         22.8000    3.5540   67.3740 C.2    31  ALA31       0.2260
     40  O         22.2590    2.5940   66.8300 O.2    31  ALA31      -0.2867
     41  CB        24.9940    3.7820   66.1950 C.3    31  ALA31       0.0290
     42  N         19.5160    5.2270   65.7790 N.3    33  LYS33      -0.1245
     43  CA        19.0020    6.1190   64.7590 C.3    33  LYS33       0.1561
     44  C         17.5120    6.3390   65.0450 C.2    33  LYS33       0.2260
     45  O         16.7410    5.3740   65.0480 O.2    33  LYS33      -0.2867
     46  CB        19.2840    5.5480   63.3470 C.3    33  LYS33       0.0271
     47  CG        18.8020    6.4470   62.2030 C.3    33  LYS33       0.0035
     48  CD        19.2000    5.8560   60.8760 C.3    33  LYS33       0.0206
     49  CE        19.3150    6.9140   59.8220 C.3    33  LYS33       0.1093
     50  NZ        19.1640    6.3570   58.4560 N.3    33  LYS33      -0.1314
     51  N         27.7530   -2.7340   58.8080 N.3    64  VAL64      -0.1245
     52  CA        27.3120   -2.3720   60.1500 C.3    64  VAL64       0.1561
     53  C         25.9920   -3.1470   60.4400 C.2    64  VAL64       0.2260
     54  O         25.0170   -3.0410   59.6860 O.2    64  VAL64      -0.2867
     55  CB        27.1920   -0.8180   60.3420 C.3    64  VAL64       0.0252
     56  CG1       26.3570   -0.4440   61.5760 C.3    64  VAL64       0.0019
     57  CG2       28.5790   -0.1860   60.4590 C.3    64  VAL64       0.0019
     58  N         21.8910    0.0610   65.7560 N.3    80  PHE80      -0.1227
     59  CA        23.0650   -0.4510   65.0530 C.3    80  PHE80       0.1736
     60  C         24.2260   -0.7650   65.9480 C.2    80  PHE80       0.2598
     61  O         24.3920   -0.1620   67.0070 O.2    80  PHE80      -0.2717
     62  CB        23.5480    0.5620   63.9910 C.3    80  PHE80       0.0547
     63  CG        22.5790    0.7840   62.8670 C.ar   80  PHE80      -0.0202
     64  CD1       22.4700   -0.1360   61.8260 C.ar   80  PHE80      -0.0042
     65  CD2       21.7620    1.9090   62.8470 C.ar   80  PHE80      -0.0042
     66  CE1       21.5650    0.0760   60.7810 C.ar   80  PHE80      -0.0003
     67  CE2       20.8610    2.1200   61.8040 C.ar   80  PHE80      -0.0003
     68  CZ        20.7620    1.2000   60.7740 C.ar   80  PHE80      -0.0000
     69  N         25.0660   -1.7070   65.5080 N.am   81  GLU81      -0.1920
     70  CA        26.3580   -1.9030   66.1450 C.3    81  GLU81       0.1949
     71  C         27.1120   -0.5500   66.0720 C.2    81  GLU81       0.2659
     72  O         26.8870    0.2540   65.1400 O.2    81  GLU81      -0.2711
     73  CB        27.1050   -3.0740   65.4790 C.2    81  GLU81       0.0111
     74  CG        28.3400   -2.6850   64.7040 C.2    81  GLU81       0.0838
     75  CD        29.0310   -3.7470   63.8770 C.2    81  GLU81       0.3877
     76  OE1       28.3900   -4.3350   62.9730 O.co2  81  GLU81      -0.2406
     77  OE2       30.2500   -3.9260   64.0870 O.co2  81  GLU81      -0.2406
     78  N         27.9640   -0.2940   67.0580 N.am   82  PHE82      -0.1957
     79  CA        28.6830    0.9810   67.1420 C.3    82  PHE82       0.1771
     80  C         30.1320    0.8230   66.7380 C.2    82  PHE82       0.2619
     81  O         30.8020   -0.1170   67.1840 O.2    82  PHE82      -0.2715
     82  CB        28.5750    1.5910   68.5710 C.3    82  PHE82       0.0574
     83  CG        29.4350    2.8250   68.7780 C.ar   82  PHE82      -0.0200
     84  CD1       28.9880    4.0800   68.3700 C.ar   82  PHE82      -0.0042
     85  CD2       30.6870    2.7280   69.3730 C.ar   82  PHE82      -0.0042
     86  CE1       29.7860    5.2260   68.5590 C.ar   82  PHE82      -0.0003
     87  CE2       31.4930    3.8730   69.5510 C.ar   82  PHE82      -0.0003
     88  CZ        31.0330    5.1160   69.1510 C.ar   82  PHE82      -0.0000
     89  N         30.6260    1.7560   65.8990 N.am   83  LEU83      -0.1977
     90  CA        32.0680    1.8890   65.6840 C.3    83  LEU83       0.1596
     91  C         32.4870    3.3390   65.9670 C.2    83  LEU83       0.2287
     92  O         31.7110    4.2570   65.7170 O.2    83  LEU83      -0.2864
     93  CB        32.4840    1.4590   64.2740 C.3    83  LEU83       0.0297
     94  CG        32.5450   -0.0450   63.9490 C.3    83  LEU83       0.0022
     95  CD1       31.1480   -0.6190   63.6900 C.3    83  LEU83       0.0001
     96  CD2       33.3310   -0.2670   62.6670 C.3    83  LEU83       0.0001
     97  N         34.7400    7.3630   61.6450 N.3    86  ASP86      -0.1239
     98  CA        34.3480    7.2440   60.2470 C.3    86  ASP86       0.1674
     99  C         35.5260    7.5700   59.3420 C.2    86  ASP86       0.2266
    100  O         36.5010    8.1850   59.7920 O.2    86  ASP86      -0.2867
    101  CB        33.0910    8.0640   59.9140 C.3    86  ASP86       0.1410
    102  CG        33.2570    9.5710   60.1090 C.2    86  ASP86       0.3668
    103  OD1       33.9840   10.1940   59.3250 O.co2  86  ASP86      -0.2456
    104  OD2       32.6440   10.1140   61.0210 O.co2  86  ASP86      -0.2456
    105  N         29.3320    7.6390   51.1560 N.3   129  LYS129     -0.1245
    106  CA        30.1950    8.7860   51.3310 C.3   129  LYS129      0.1561
    107  C         31.1540    8.4480   52.4740 C.2   129  LYS129      0.2260
    108  O         30.8170    7.5730   53.2850 O.2   129  LYS129     -0.2867
    109  CB        29.4030   10.0720   51.6000 C.3   129  LYS129      0.0271
    110  CG        28.2430    9.9150   52.5460 C.3   129  LYS129      0.0035
    111  CD        27.3460   11.1420   52.5260 C.3   129  LYS129      0.0206
    112  CE        26.1770   10.8760   53.4230 C.3   129  LYS129      0.1093
    113  NZ        25.1010   11.8550   53.2060 N.3   129  LYS129     -0.1314
    114  N         31.7310    9.6740   55.3210 N.3   131  GLN131     -0.1231
    115  CA        31.1080    9.8040   56.6560 C.3   131  GLN131      0.1698
    116  C         30.2750    8.5630   57.0130 C.2   131  GLN131      0.2592
    117  O         30.0940    8.2870   58.1900 O.2   131  GLN131     -0.2718
    118  CB        30.2150   11.0710   56.7330 C.3   131  GLN131      0.0381
    119  CG        30.9070   12.3390   56.2270 C.3   131  GLN131      0.0905
    120  CD        30.4810   12.7120   54.8260 C.2   131  GLN131      0.2608
    121  OE1       29.5140   13.4720   54.6530 O.2   131  GLN131     -0.2717
    122  NE2       31.1920   12.1950   53.7910 N.am  131  GLN131     -0.0878
    123  N         29.7700    7.8000   56.0160 N.am  132  ASN132     -0.1974
    124  CA        29.0560    6.5950   56.4320 C.3   132  ASN132      0.1688
    125  C         29.8550    5.2810   56.2470 C.2   132  ASN132      0.2292
    126  O         29.2770    4.1880   56.2620 O.2   132  ASN132     -0.2864
    127  CB        27.6650    6.4920   55.8540 C.3   132  ASN132      0.1181
    128  CG        27.5140    6.6090   54.3930 C.2   132  ASN132      0.2629
    129  OD1       28.1760    5.9030   53.6250 O.2   132  ASN132     -0.2716
    130  ND2       26.4840    7.3640   54.0010 N.am  132  ASN132     -0.0877
    131  N         32.5210    3.2580   58.3230 N.3   134  LEU134     -0.1245
    132  CA        33.0160    3.2230   59.6900 C.3   134  LEU134      0.1561
    133  C         34.1900    2.2650   59.8200 C.2   134  LEU134      0.2260
    134  O         34.1670    1.1800   59.2300 O.2   134  LEU134     -0.2867
    135  CB        31.8880    2.7910   60.6240 C.3   134  LEU134      0.0270
    136  CG        30.6490    3.6910   60.5940 C.3   134  LEU134      0.0019
    137  CD1       29.6620    3.1770   61.5610 C.3   134  LEU134      0.0001
    138  CD2       30.9980    5.1700   60.9740 C.3   134  LEU134      0.0001
    139  N         27.7390    1.6800   56.3930 N.3   144  ALA144     -0.1231
    140  CA        26.7390    2.0730   57.3840 C.3   144  ALA144      0.1694
    141  C         25.7790    3.0870   56.7910 C.2   144  ALA144      0.2592
    142  O         26.0480    3.6820   55.7430 O.2   144  ALA144     -0.2718
    143  CB        27.4060    2.6420   58.6100 C.3   144  ALA144      0.0304
    144  N         24.6370    3.2810   57.4650 N.am  145  ASP145     -0.1974
    145  CA        23.6950    4.3370   57.1270 C.3   145  ASP145      0.1709
    146  C         23.2190    4.2240   55.6750 C.2   145  ASP145      0.2293
    147  O         23.3510    5.1640   54.8570 O.2   145  ASP145     -0.2864
    148  CB        24.2690    5.7260   57.4740 C.3   145  ASP145      0.1436
    149  CG        23.1670    6.7700   57.6210 C.2   145  ASP145      0.3671
    150  OD1       22.1600    6.4660   58.2400 O.co2 145  ASP145     -0.2456
    151  OD2       23.2900    7.8350   57.0280 O.co2 145  ASP145     -0.2456
@<TRIPOS>BOND
     1   105   106    1
     2   106   109    1
     3   106   107    1
     4   109   110    1
     5   107   108    2
     6   111   110    1
     7   111   112    1
     8   113   112    1
     9   129   128    2
    10   122   120   am
    11   130   128   am
    12   128   127    1
    13   121   120    2
    14   120   119    1
    15   147   146    2
    16   114   115    1
    17   146   145    1
    18   142   141    2
    19   127   124    1
    20   123   124    1
    21   123   116   am
    22   119   118    1
    23   125   126    2
    24   125   124    1
    25   139   140    1
    26   115   118    1
    27   115   116    1
    28   141   140    1
    29   141   144   am
    30   116   117    2
    31   151   149   ar
    32   145   144    1
    33   145   148    1
    34   140   143    1
    35   148   149    1
    36   149   150   ar
    37    24    23    1
    38    24    25    2
    39    23    22    1
    40   131   132    1
    41    50    49    1
    42    51    52    1
    43    16    15    2
    44   134   133    2
    45   103   102   ar
    46    99   100    2
    47    99    98    1
    48    22    15   am
    49    54    53    2
    50   132   133    1
    51   132   135    1
    52    49    48    1
    53    15    14    1
    54    26    27    1
    55   101   102    1
    56   101    98    1
    57   102   104   ar
    58    52    55    1
    59    52    53    1
    60    98    97    1
    61    55    57    1
    62    55    56    1
    63    20    19   ar
    64   136   135    1
    65   136   138    1
    66   136   137    1
    67    68    66   ar
    68    68    67   ar
    69    66    64   ar
    70    48    47    1
    71    29    28    2
    72    19    21   ar
    73    19    18    1
    74    14    17    1
    75    14    13    1
    76    27    28    1
    77    17    18    1
    78    13    11   am
    79    67    65   ar
    80    64    63   ar
    81    47    46    1
    82    96    94    1
    83    65    63   ar
    84    63    62    1
    85    36    34    1
    86    11    10    1
    87    11    12    2
    88    76    75   ar
    89    10     9    1
    90    46    43    1
    91    95    94    1
    92    75    77   ar
    93    75    74    1
    94    94    93    1
    95    62    59    1
    96     4     3    2
    97    34    35    1
    98    34    31    1
    99    93    90    1
   100     9     3   am
   101    74    73    2
   102    43    44    1
   103    43    42    1
   104    30    31    1
   105     3     2    1
   106    44    45    2
   107    59    58    1
   108    59    60    1
   109    72    71    2
   110    31    32    1
   111    73    70    1
   112    69    60   am
   113    69    70    1
   114    90    89    1
   115    90    91    1
   116    92    91    2
   117    89    80   am
   118    60    61    2
   119    71    70    1
   120    71    78   am
   121    41    38    1
   122     2     5    1
   123     2     1    1
   124     6     8    1
   125     6     5    1
   126    33    32    2
   127     5     7    1
   128    80    79    1
   129    80    81    2
   130    40    39    2
   131    78    79    1
   132    79    82    1
   133    39    38    1
   134    38    37    1
   135    84    86   ar
   136    84    83   ar
   137    86    88   ar
   138    82    83    1
   139    83    85   ar
   140    88    87   ar
   141    85    87   ar
