@<TRIPOS>MOLECULE
tmp/5fp8A00.pdb
 182 173 0 0 0
SMALL
GASTEIGER

@<TRIPOS>ATOM
      1  N         22.3630    4.6600   11.9070 N.3    65  LEU65      -0.1245
      2  CA        22.5230    5.8000   12.7990 C.3    65  LEU65       0.1561
      3  C         23.1570    5.3930   14.1210 C.2    65  LEU65       0.2260
      4  O         22.6050    4.5740   14.8560 O.2    65  LEU65      -0.2867
      5  CB        21.1690    6.4450   13.0840 C.3    65  LEU65       0.0270
      6  CG        20.3520    6.9220   11.8780 C.3    65  LEU65       0.0019
      7  CD1       19.0070    7.4340   12.3590 C.3    65  LEU65       0.0001
      8  CD2       21.0680    7.9960   11.0890 C.3    65  LEU65       0.0001
      9  N         23.8230    6.2250   17.8080 N.3    67  GLN67      -0.1245
     10  CA        23.0960    7.0020   18.7930 C.3    67  GLN67       0.1566
     11  C         24.0090    7.4310   19.9360 C.2    67  GLN67       0.2260
     12  O         24.2600    6.6670   20.8600 O.2    67  GLN67      -0.2867
     13  CB        21.9190    6.1880   19.3290 C.3    67  GLN67       0.0367
     14  CG        21.0170    5.6390   18.2430 C.3    67  GLN67       0.0905
     15  CD        19.7860    4.9770   18.8120 C.2    67  GLN67       0.2608
     16  OE1       19.8680    3.9340   19.4500 O.2    67  GLN67      -0.2717
     17  NE2       18.6390    5.6010   18.6130 N.am   67  GLN67      -0.0878
     18  N         20.0250   12.1190   22.9850 N.3    78  GLN78      -0.1245
     19  CA        20.8710   11.4130   22.0260 C.3    78  GLN78       0.1566
     20  C         20.7930   12.0820   20.6660 C.2    78  GLN78       0.2260
     21  O         19.7360   12.5830   20.2780 O.2    78  GLN78      -0.2867
     22  CB        20.5080    9.9240   21.9400 C.3    78  GLN78       0.0367
     23  CG        19.1230    9.6160   21.4040 C.3    78  GLN78       0.0905
     24  CD        18.7740    8.1280   21.4480 C.2    78  GLN78       0.2608
     25  OE1       19.5450    7.3000   21.9410 O.2    78  GLN78      -0.2717
     26  NE2       17.6040    7.7850   20.9280 N.am   78  GLN78      -0.0878
     27  N         21.9410   11.4720   16.4150 N.3    80  HIS80      -0.1241
     28  CA        22.1510   10.4080   15.4530 C.3    80  HIS80       0.1621
     29  C         23.2330   10.7990   14.4680 C.2    80  HIS80       0.2264
     30  O         23.0660   11.7220   13.6750 O.2    80  HIS80      -0.2867
     31  CB        20.8480   10.1050   14.7180 C.3    80  HIS80       0.0745
     32  CG        19.7820    9.5510   15.6060 C.ar   80  HIS80       0.0817
     33  ND1       18.8370   10.3450   16.2110 N.ar   80  HIS80      -0.2268
     34  CD2       19.5300    8.2850   16.0200 C.ar   80  HIS80       0.1154
     35  CE1       18.0360    9.5950   16.9450 C.ar   80  HIS80       0.1986
     36  NE2       18.4360    8.3400   16.8490 N.ar   80  HIS80      -0.2212
     37  N         21.7580    1.9750   15.0730 N.3   126  TYR126     -0.1241
     38  CA        20.3650    1.5960   14.8210 C.3   126  TYR126      0.1605
     39  C         20.0570    1.7280   13.3330 C.2   126  TYR126      0.2264
     40  O         20.3160    2.7670   12.7360 O.2   126  TYR126     -0.2867
     41  CB        19.4060    2.4990   15.6320 C.3   126  TYR126      0.0534
     42  CG        18.0340    1.9140   15.9990 C.ar  126  TYR126     -0.0201
     43  CD1       17.6920    0.5960   15.7040 C.ar  126  TYR126     -0.0009
     44  CD2       17.0980    2.6790   16.6970 C.ar  126  TYR126     -0.0009
     45  CE1       16.4560    0.0660   16.0580 C.ar  126  TYR126      0.0417
     46  CE2       15.8580    2.1570   17.0630 C.ar  126  TYR126      0.0417
     47  CZ        15.5410    0.8480   16.7390 C.ar  126  TYR126      0.1957
     48  OH        14.3170    0.3090   17.1040 O.3   126  TYR126     -0.2866
     49  N         17.2520    2.3530   11.6110 N.3   128  ALA128     -0.1231
     50  CA        15.8880    2.8410   11.8340 C.3   128  ALA128      0.1694
     51  C         15.2570    3.4800   10.6040 C.2   128  ALA128      0.2592
     52  O         15.9550    3.9520    9.7090 O.2   128  ALA128     -0.2718
     53  CB        15.8830    3.8370   12.9810 C.3   128  ALA128      0.0304
     54  N         13.9230    3.4820   10.5880 N.am  129  ASP129     -0.1974
     55  CA        13.1050    4.1900    9.5880 C.3   129  ASP129      0.1709
     56  C         13.4150    3.7750    8.1460 C.2   129  ASP129      0.2293
     57  O         13.5690    4.6240    7.2580 O.2   129  ASP129     -0.2864
     58  CB        13.2490    5.7130    9.7420 C.3   129  ASP129      0.1436
     59  CG        12.6800    6.2380   11.0550 C.2   129  ASP129      0.3671
     60  OD1       11.6810    5.6860   11.5700 O.co2 129  ASP129     -0.2456
     61  OD2       13.2360    7.2290   11.5660 O.co2 129  ASP129     -0.2456
     62  N         12.7890   -1.5190   11.3700 N.3   171  TYR171     -0.1241
     63  CA        13.7450   -1.0950   12.3870 C.3   171  TYR171      0.1605
     64  C         14.6200   -2.2740   12.7680 C.2   171  TYR171      0.2264
     65  O         14.1580   -3.2200   13.4100 O.2   171  TYR171     -0.2867
     66  CB        13.0220   -0.5680   13.6260 C.3   171  TYR171      0.0534
     67  CG        12.1820    0.6490   13.3360 C.ar  171  TYR171     -0.0201
     68  CD1       10.9390    0.5240   12.7330 C.ar  171  TYR171     -0.0009
     69  CD2       12.6430    1.9290   13.6380 C.ar  171  TYR171     -0.0009
     70  CE1       10.1730    1.6310   12.4340 C.ar  171  TYR171      0.0417
     71  CE2       11.8710    3.0470   13.3570 C.ar  171  TYR171      0.0417
     72  CZ        10.6410    2.8860   12.7500 C.ar  171  TYR171      0.1957
     73  OH         9.8660    3.9750   12.4450 O.3   171  TYR171     -0.2866
     74  N         17.9560    2.7850   21.0990 N.3   178  THR178     -0.1203
     75  CA        17.0300    3.5070   21.9610 C.3   178  THR178      0.1994
     76  C         16.0340    4.3240   21.1520 C.2   178  THR178      0.2618
     77  O         16.4150    5.0070   20.2000 O.2   178  THR178     -0.2717
     78  CB        17.8330    4.4590   22.8770 C.3   178  THR178      0.1784
     79  OG1       18.7720    3.7060   23.6580 O.3   178  THR178     -0.2211
     80  CG2       16.9280    5.2540   23.8130 C.3   178  THR178      0.0376
     81  N         14.7600    4.2630   21.5340 N.am  179  PHE179     -0.1961
     82  CA        13.7860    5.2290   21.0390 C.3   179  PHE179      0.1771
     83  C         13.3920    6.2010   22.1530 C.2   179  PHE179      0.2619
     84  O         12.9900    5.8050   23.2490 O.2   179  PHE179     -0.2715
     85  CB        12.5820    4.5950   20.3110 C.3   179  PHE179      0.0574
     86  CG        11.8580    3.5190   21.0710 C.ar  179  PHE179     -0.0200
     87  CD1       12.3820    2.2310   21.1680 C.ar  179  PHE179     -0.0042
     88  CD2       10.5970    3.7640   21.6070 C.ar  179  PHE179     -0.0042
     89  CE1       11.6890    1.2280   21.8330 C.ar  179  PHE179     -0.0003
     90  CE2        9.8970    2.7650   22.2680 C.ar  179  PHE179     -0.0003
     91  CZ        10.4430    1.4910   22.3800 C.ar  179  PHE179     -0.0000
     92  N         13.5730    7.4860   21.8660 N.am  180  ALA180     -0.1977
     93  CA        13.3640    8.5400   22.8460 C.3   180  ALA180      0.1597
     94  C         11.8810    8.7690   23.1220 C.2   180  ALA180      0.2287
     95  O         11.0180    8.2980   22.3690 O.2   180  ALA180     -0.2864
     96  CB        14.0170    9.8260   22.3610 C.3   180  ALA180      0.0319
     97  N          8.3660   10.1610   23.0270 N.3   182  HIS182     -0.1241
     98  CA         7.6150   10.8480   21.9830 C.3   182  HIS182      0.1621
     99  C          6.1760   10.3380   21.8870 C.2   182  HIS182      0.2264
    100  O          5.8660    9.2610   22.3700 O.2   182  HIS182     -0.2867
    101  CB         8.3040   10.6390   20.6310 C.3   182  HIS182      0.0745
    102  CG         8.1780    9.2420   20.1050 C.ar  182  HIS182      0.0817
    103  ND1        8.9000    8.1850   20.6150 N.ar  182  HIS182     -0.2268
    104  CD2        7.4040    8.7270   19.1200 C.ar  182  HIS182      0.1154
    105  CE1        8.5770    7.0800   19.9680 C.ar  182  HIS182      0.1986
    106  NE2        7.6740    7.3840   19.0520 N.ar  182  HIS182     -0.2212
    107  N          3.2740    9.9380   18.5380 N.3   184  GLU184     -0.1245
    108  CA         3.3650    9.8250   17.0870 C.3   184  GLU184      0.1567
    109  C          3.0960   11.1780   16.4260 C.2   184  GLU184      0.2260
    110  O          2.5430   12.0950   17.0530 O.2   184  GLU184     -0.2867
    111  CB         2.3990    8.7610   16.5570 C.3   184  GLU184      0.0388
    112  CG         2.6200    7.3680   17.1230 C.3   184  GLU184      0.1160
    113  CD         4.0480    6.8670   16.9250 C.2   184  GLU184      0.3649
    114  OE1        4.4940    6.7530   15.7670 O.co2 184  GLU184     -0.2457
    115  OE2        4.7270    6.5880   17.9290 O.co2 184  GLU184     -0.2457
    116  N          0.0490    3.9890   16.5300 N.3   190  SER190     -0.1217
    117  CA         1.0660    3.2030   15.8360 C.3   190  SER190      0.1889
    118  C          0.8560    1.7350   16.1530 C.2   190  SER190      0.2288
    119  O          0.3390    1.3890   17.2140 O.2   190  SER190     -0.2866
    120  CB         2.4860    3.6400   16.2260 C.3   190  SER190      0.2089
    121  OG         2.8170    3.2790   17.5580 O.3   190  SER190     -0.2183
    122  N          3.2130   -1.9190   15.9580 N.3   192  ASN192     -0.1240
    123  CA         4.6000   -2.3780   15.8750 C.3   192  ASN192      0.1653
    124  C          4.5930   -3.8890   16.0110 C.2   192  ASN192      0.2266
    125  O          4.0430   -4.4160   16.9910 O.2   192  ASN192     -0.2867
    126  CB         5.4300   -1.7500   17.0200 C.3   192  ASN192      0.1155
    127  CG         6.9290   -2.1080   16.9770 C.2   192  ASN192      0.2627
    128  OD1        7.3380   -3.2680   17.2160 O.2   192  ASN192     -0.2716
    129  ND2        7.7680   -1.0880   16.7490 N.am  192  ASN192     -0.0877
    130  N         12.2000   -6.0720   23.0150 N.3   200  LYS200     -0.1245
    131  CA        12.1600   -4.6240   23.0090 C.3   200  LYS200      0.1561
    132  C         11.3550   -4.2160   24.2360 C.2   200  LYS200      0.2260
    133  O         10.1990   -4.6200   24.3720 O.2   200  LYS200     -0.2867
    134  CB        11.4790   -4.1410   21.7190 C.3   200  LYS200      0.0271
    135  CG        11.4050   -2.6320   21.5280 C.3   200  LYS200      0.0035
    136  CD        10.5110   -2.2210   20.3540 C.3   200  LYS200      0.0206
    137  CE        10.9600   -2.7750   19.0010 C.3   200  LYS200      0.1093
    138  NZ        12.2270   -2.1560   18.5130 N.3   200  LYS200     -0.1314
    139  N          9.4650   -1.4230   26.5540 N.3   202  TRP202     -0.1241
    140  CA         8.7080   -0.1940   26.3280 C.3   202  TRP202      0.1605
    141  C          8.3580    0.4540   27.6580 C.2   202  TRP202      0.2264
    142  O          8.0440   -0.2410   28.6320 O.2   202  TRP202     -0.2867
    143  CB         7.3730   -0.4860   25.6300 C.3   202  TRP202      0.0550
    144  CG         7.4370   -1.0580   24.2490 C.ar  202  TRP202      0.0003
    145  CD1        7.8510   -2.3070   23.8960 C.ar  202  TRP202      0.0946
    146  CD2        7.0150   -0.4190   23.0360 C.ar  202  TRP202      0.0152
    147  NE1        7.7410   -2.4770   22.5350 N.ar  202  TRP202     -0.2442
    148  CE2        7.2270   -1.3350   21.9840 C.ar  202  TRP202      0.0810
    149  CE3        6.4810    0.8420   22.7360 C.ar  202  TRP202      0.0012
    150  CZ2        6.9330   -1.0280   20.6510 C.ar  202  TRP202      0.0191
    151  CZ3        6.1840    1.1430   21.4100 C.ar  202  TRP202      0.0001
    152  CH2        6.4090    0.2130   20.3870 C.ar  202  TRP202      0.0015
    153  N         12.4890   13.7780   19.1560 N.3   235  LYS235     -0.1245
    154  CA        12.7690   12.4040   19.5470 C.3   235  LYS235      0.1561
    155  C         14.2250   12.2710   19.9760 C.2   235  LYS235      0.2260
    156  O         14.9750   11.4750   19.4190 O.2   235  LYS235     -0.2867
    157  CB        12.4400   11.4280   18.4160 C.3   235  LYS235      0.0271
    158  CG        11.0060   11.5120   17.9160 C.3   235  LYS235      0.0035
    159  CD        10.7200   10.3980   16.9220 C.3   235  LYS235      0.0206
    160  CE         9.4720   10.6770   16.1070 C.3   235  LYS235      0.1093
    161  NZ         9.2620    9.6150   15.0860 N.3   235  LYS235     -0.1314
    162  N          5.7960    7.3610   24.7000 N.3   270  HIS270     -0.1241
    163  CA         6.5210    6.1200   24.9240 C.3   270  HIS270      0.1621
    164  C          7.9860    6.2430   24.5670 C.2   270  HIS270      0.2264
    165  O          8.3940    7.1390   23.8390 O.2   270  HIS270     -0.2867
    166  CB         5.8920    4.9680   24.1410 C.3   270  HIS270      0.0745
    167  CG         5.6720    5.2780   22.6990 C.ar  270  HIS270      0.0817
    168  ND1        4.6440    6.0920   22.2640 N.ar  270  HIS270     -0.2268
    169  CD2        6.3490    4.9000   21.5900 C.ar  270  HIS270      0.1154
    170  CE1        4.6970    6.1990   20.9520 C.ar  270  HIS270      0.1986
    171  NE2        5.7210    5.4880   20.5180 N.ar  270  HIS270     -0.2212
    172  N         11.6020   15.7030   12.0410 N.3   306  ARG306     -0.1245
    173  CA        11.5740   15.0990   10.7090 C.3   306  ARG306      0.1563
    174  C         10.1770   15.2100   10.1010 C.2   306  ARG306      0.2260
    175  O          9.2290   14.5950   10.5940 O.2   306  ARG306     -0.2867
    176  CB        11.9910   13.6270   10.7830 C.3   306  ARG306      0.0307
    177  CG        12.1880   13.0140    9.3930 C.3   306  ARG306      0.0489
    178  CD        12.3160   11.5210    9.3830 C.3   306  ARG306      0.2205
    179  NE        11.2110   10.8480   10.0420 N.pl3 306  ARG306     -0.0865
    180  CZ        11.2720   10.3320   11.2660 C.cat 306  ARG306      0.5346
    181  NH1       12.4070   10.3160   11.9710 N.pl3 306  ARG306      0.1354
    182  NH2       10.1710    9.8840   11.8770 N.pl3 306  ARG306      0.1354
@<TRIPOS>BOND
     1    57    56    2
     2    56    55    1
     3   178   177    1
     4   178   179    1
     5   177   176    1
     6    55    58    1
     7    55    54    1
     8    52    51    2
     9    58    59    1
    10   179   180    2
    11   174   175    2
    12   174   173    1
    13    54    51   am
    14    51    50    1
    15   173   176    1
    16   173   172    1
    17    59    61   ar
    18    59    60   ar
    19     8     6    1
    20   180   182    1
    21   180   181    1
    22    62    63    1
    23    49    50    1
    24    50    53    1
    25     6     7    1
    26     6     5    1
    27     1     2    1
    28    63    64    1
    29    63    66    1
    30    70    68   ar
    31    70    72   ar
    32    73    72    1
    33    68    67   ar
    34    40    39    2
    35    72    71   ar
    36    64    65    2
    37     2     5    1
    38     2     3    1
    39    39    38    1
    40    67    66    1
    41    67    69   ar
    42    71    69   ar
    43    30    29    2
    44     3     4    2
    45    29    28    1
    46    31    28    1
    47    31    32    1
    48    38    37    1
    49    38    41    1
    50   161   160    1
    51    28    27    1
    52    32    34   ar
    53    32    33   ar
    54    41    42    1
    55    43    42   ar
    56    43    45   ar
    57   114   113   ar
    58   117   118    1
    59   117   120    1
    60   117   116    1
    61   123   122    1
    62   123   124    1
    63   123   126    1
    64    42    44   ar
    65   124   125    2
    66    34    36   ar
    67    45    47   ar
    68   160   159    1
    69   118   119    2
    70    33    35   ar
    71   120   121    1
    72   109   110    2
    73   109   108    1
    74   111   108    1
    75   111   112    1
    76    44    46   ar
    77    47    46   ar
    78    47    48    1
    79   129   127   am
    80    36    35   ar
    81   159   158    1
    82   113   112    1
    83   113   115   ar
    84   127   126    1
    85   127   128    2
    86   108   107    1
    87     9    10    1
    88   158   157    1
    89    14    15    1
    90    14    13    1
    91   157   154    1
    92   138   137    1
    93    17    15   am
    94    10    13    1
    95    10    11    1
    96    15    16    2
    97   137   136    1
    98   106   104   ar
    99   106   105   ar
   100   104   102   ar
   101   153   154    1
   102   156   155    2
   103   154   155    1
   104    11    12    2
   105   105   103   ar
   106   102   103   ar
   107   102   101    1
   108    77    76    2
   109    21    20    2
   110    85    82    1
   111    85    86    1
   112   136   135    1
   113   152   150   ar
   114   152   151   ar
   115   171   170   ar
   116   171   169   ar
   117   101    98    1
   118   150   148   ar
   119    20    19    1
   120    26    24   am
   121   170   168   ar
   122    82    81    1
   123    82    83    1
   124    86    87   ar
   125    86    88   ar
   126    74    75    1
   127    76    81   am
   128    76    75    1
   129    87    89   ar
   130    23    24    1
   131    23    22    1
   132   151   149   ar
   133    24    25    2
   134   135   134    1
   135   169   167   ar
   136    88    90   ar
   137   134   131    1
   138    89    91   ar
   139    92    83   am
   140    92    93    1
   141    99    98    1
   142    99   100    2
   143    22    19    1
   144    75    78    1
   145    98    97    1
   146   148   147   ar
   147   148   146   ar
   148    19    18    1
   149    83    84    2
   150   168   167   ar
   151    90    91   ar
   152    96    93    1
   153    95    94    2
   154   147   145   ar
   155   167   166    1
   156   149   146   ar
   157    93    94    1
   158    78    79    1
   159    78    80    1
   160   131   130    1
   161   131   132    1
   162   146   144   ar
   163   165   164    2
   164   145   144   ar
   165   166   163    1
   166   132   133    2
   167   144   143    1
   168   164   163    1
   169   162   163    1
   170   143   140    1
   171   140   139    1
   172   140   141    1
   173   141   142    2
