@<TRIPOS>MOLECULE
tmp/5fp9A00.pdb
 123 118 0 0 0
SMALL
GASTEIGER

@<TRIPOS>ATOM
      1  N         21.8050    1.9800   15.0130 N.3   126  TYR126     -0.1241
      2  CA        20.4050    1.6220   14.8070 C.3   126  TYR126      0.1605
      3  C         20.0660    1.7350   13.3330 C.2   126  TYR126      0.2264
      4  O         20.3050    2.7740   12.7220 O.2   126  TYR126     -0.2867
      5  CB        19.4840    2.5610   15.6120 C.3   126  TYR126      0.0534
      6  CG        18.0990    2.0200   15.9590 C.ar  126  TYR126     -0.0201
      7  CD1       17.7580    0.6910   15.7300 C.ar  126  TYR126     -0.0009
      8  CD2       17.1460    2.8330   16.5850 C.ar  126  TYR126     -0.0009
      9  CE1       16.5110    0.1910   16.0750 C.ar  126  TYR126      0.0417
     10  CE2       15.8880    2.3380   16.9340 C.ar  126  TYR126      0.0417
     11  CZ        15.5780    1.0100   16.6760 C.ar  126  TYR126      0.1957
     12  OH        14.3460    0.4630   17.0200 O.3   126  TYR126     -0.2866
     13  N         17.2320    2.3060   11.6370 N.3   128  ALA128     -0.1231
     14  CA        15.8560    2.7570   11.8420 C.3   128  ALA128      0.1694
     15  C         15.2350    3.3900   10.5990 C.2   128  ALA128      0.2592
     16  O         15.9430    3.8770    9.7180 O.2   128  ALA128     -0.2718
     17  CB        15.8030    3.7380   13.0030 C.3   128  ALA128      0.0304
     18  N         13.9030    3.3550   10.5450 N.am  129  ASP129     -0.1974
     19  CA        13.1000    4.0930    9.5630 C.3   129  ASP129      0.1709
     20  C         13.4130    3.7110    8.1100 C.2   129  ASP129      0.2293
     21  O         13.5070    4.5720    7.2230 O.2   129  ASP129     -0.2864
     22  CB        13.2460    5.6060    9.7810 C.3   129  ASP129      0.1436
     23  CG        12.7930    6.0460   11.1740 C.2   129  ASP129      0.3671
     24  OD1       11.6820    5.6710   11.5940 O.co2 129  ASP129     -0.2456
     25  OD2       13.5500    6.7670   11.8490 O.co2 129  ASP129     -0.2456
     26  N         12.7950   -1.4980   11.3410 N.3   170  TYR170     -0.1241
     27  CA        13.7470   -1.0720   12.3580 C.3   170  TYR170      0.1605
     28  C         14.6430   -2.2440   12.7230 C.2   170  TYR170      0.2264
     29  O         14.1810   -3.2030   13.3380 O.2   170  TYR170     -0.2867
     30  CB        12.9980   -0.5810   13.6040 C.3   170  TYR170      0.0534
     31  CG        12.1680    0.6340   13.3070 C.ar  170  TYR170     -0.0201
     32  CD1       10.9340    0.5180   12.6860 C.ar  170  TYR170     -0.0009
     33  CD2       12.6460    1.9080   13.5890 C.ar  170  TYR170     -0.0009
     34  CE1       10.1840    1.6350   12.3680 C.ar  170  TYR170      0.0417
     35  CE2       11.9010    3.0340   13.2820 C.ar  170  TYR170      0.0417
     36  CZ        10.6720    2.8910   12.6740 C.ar  170  TYR170      0.1957
     37  OH         9.9370    4.0080   12.3530 O.3   170  TYR170     -0.2866
     38  N         14.7190    4.2600   21.4530 N.3   178  PHE178     -0.1241
     39  CA        13.7500    5.2290   20.9610 C.3   178  PHE178      0.1605
     40  C         13.3710    6.2050   22.0770 C.2   178  PHE178      0.2264
     41  O         12.9660    5.8130   23.1790 O.2   178  PHE178     -0.2867
     42  CB        12.5390    4.6040   20.2390 C.3   178  PHE178      0.0534
     43  CG        11.7950    3.5480   21.0080 C.ar  178  PHE178     -0.0203
     44  CD1       12.2940    2.2520   21.1130 C.ar  178  PHE178     -0.0042
     45  CD2       10.5350    3.8170   21.5340 C.ar  178  PHE178     -0.0042
     46  CE1       11.5820    1.2680   21.7840 C.ar  178  PHE178     -0.0003
     47  CE2        9.8210    2.8420   22.2060 C.ar  178  PHE178     -0.0003
     48  CZ        10.3420    1.5610   22.3260 C.ar  178  PHE178     -0.0000
     49  N          8.4020   10.1770   22.9110 N.3   181  HIS181     -0.1241
     50  CA         7.6150   10.8790   21.9030 C.3   181  HIS181      0.1621
     51  C          6.1900   10.3480   21.8060 C.2   181  HIS181      0.2264
     52  O          5.8900    9.2560   22.2730 O.2   181  HIS181     -0.2867
     53  CB         8.2670   10.7070   20.5320 C.3   181  HIS181      0.0745
     54  CG         8.1980    9.3070   20.0210 C.ar  181  HIS181      0.0817
     55  ND1        9.0030    8.3020   20.5090 N.ar  181  HIS181     -0.2268
     56  CD2        7.4030    8.7340   19.0870 C.ar  181  HIS181      0.1154
     57  CE1        8.7170    7.1730   19.8880 C.ar  181  HIS181      0.1986
     58  NE2        7.7490    7.4080   19.0210 N.ar  181  HIS181     -0.2212
     59  N          3.3440    9.9560   18.4280 N.3   183  GLU183     -0.1245
     60  CA         3.4350    9.8460   16.9780 C.3   183  GLU183      0.1567
     61  C          3.1560   11.1880   16.3240 C.2   183  GLU183      0.2260
     62  O          2.5660   12.0780   16.9430 O.2   183  GLU183     -0.2867
     63  CB         2.4410    8.8080   16.4520 C.3   183  GLU183      0.0388
     64  CG         2.6370    7.4150   17.0270 C.3   183  GLU183      0.1160
     65  CD         4.0580    6.9300   16.8340 C.2   183  GLU183      0.3649
     66  OE1        4.4850    6.8040   15.6690 O.co2 183  GLU183     -0.2457
     67  OE2        4.7500    6.6920   17.8410 O.co2 183  GLU183     -0.2457
     68  N          0.0780    4.0440   16.4630 N.3   189  SER189     -0.1217
     69  CA         1.0880    3.2640   15.7590 C.3   189  SER189      0.1889
     70  C          0.8840    1.7960   16.0840 C.2   189  SER189      0.2288
     71  O          0.3620    1.4520   17.1450 O.2   189  SER189     -0.2866
     72  CB         2.5120    3.7130   16.1220 C.3   189  SER189      0.2089
     73  OG         2.8810    3.3470   17.4430 O.3   189  SER189     -0.2183
     74  N          3.2240   -1.8500   15.8850 N.3   191  ASN191     -0.1240
     75  CA         4.6020   -2.3280   15.7980 C.3   191  ASN191      0.1653
     76  C          4.5960   -3.8430   15.9510 C.2   191  ASN191      0.2266
     77  O          4.0750   -4.3640   16.9470 O.2   191  ASN191     -0.2867
     78  CB         5.4410   -1.6870   16.9210 C.3   191  ASN191      0.1155
     79  CG         6.9310   -2.0580   16.8690 C.2   191  ASN191      0.2627
     80  OD1        7.3160   -3.2230   17.0710 O.2   191  ASN191     -0.2716
     81  ND2        7.7860   -1.0470   16.6690 N.am  191  ASN191     -0.0877
     82  N         12.1680   -6.0240   22.9100 N.3   199  LYS199     -0.1245
     83  CA        12.1320   -4.5730   22.9140 C.3   199  LYS199      0.1561
     84  C         11.3510   -4.1730   24.1580 C.2   199  LYS199      0.2260
     85  O         10.2060   -4.5940   24.3270 O.2   199  LYS199     -0.2867
     86  CB        11.4310   -4.0620   21.6450 C.3   199  LYS199      0.0271
     87  CG        11.4390   -2.5470   21.4680 C.3   199  LYS199      0.0035
     88  CD        10.5760   -2.0720   20.2990 C.3   199  LYS199      0.0206
     89  CE        10.9910   -2.6400   18.9410 C.3   199  LYS199      0.1093
     90  NZ        12.1840   -1.9610   18.3580 N.3   199  LYS199     -0.1314
     91  N          9.4490   -1.3690   26.4240 N.3   201  TRP201     -0.1241
     92  CA         8.6840   -0.1470   26.2100 C.3   201  TRP201      0.1605
     93  C          8.3390    0.5050   27.5420 C.2   201  TRP201      0.2264
     94  O          8.0340   -0.1860   28.5160 O.2   201  TRP201     -0.2867
     95  CB         7.3520   -0.4580   25.5180 C.3   201  TRP201      0.0550
     96  CG         7.4390   -1.0170   24.1360 C.ar  201  TRP201      0.0003
     97  CD1        7.9040   -2.2480   23.7750 C.ar  201  TRP201      0.0946
     98  CD2        7.0070   -0.3800   22.9280 C.ar  201  TRP201      0.0152
     99  NE1        7.8040   -2.4110   22.4160 N.ar  201  TRP201     -0.2442
    100  CE2        7.2550   -1.2800   21.8710 C.ar  201  TRP201      0.0810
    101  CE3        6.4380    0.8680   22.6360 C.ar  201  TRP201      0.0012
    102  CZ2        6.9590   -0.9740   20.5400 C.ar  201  TRP201      0.0191
    103  CZ3        6.1420    1.1750   21.3120 C.ar  201  TRP201      0.0001
    104  CH2        6.4050    0.2560   20.2780 C.ar  201  TRP201      0.0015
    105  N         12.4700   13.9360   19.0650 N.3   234  LYS234     -0.1245
    106  CA        12.7160   12.5400   19.4060 C.3   234  LYS234      0.1561
    107  C         14.1720   12.3140   19.7940 C.2   234  LYS234      0.2260
    108  O         14.8680   11.4900   19.2050 O.2   234  LYS234     -0.2867
    109  CB        12.2680   11.6130   18.2690 C.3   234  LYS234      0.0271
    110  CG        10.7820   11.7590   17.9730 C.3   234  LYS234      0.0035
    111  CD        10.1900   10.5660   17.2410 C.3   234  LYS234      0.0206
    112  CE        10.1210   10.7900   15.7450 C.3   234  LYS234      0.1093
    113  NZ         9.1890    9.8150   15.1150 N.3   234  LYS234     -0.1314
    114  N          5.8100    7.4370   24.5590 N.3   269  HIS269     -0.1241
    115  CA         6.5350    6.1940   24.7600 C.3   269  HIS269      0.1621
    116  C          8.0100    6.3030   24.4070 C.2   269  HIS269      0.2264
    117  O          8.4340    7.1880   23.6580 O.2   269  HIS269     -0.2867
    118  CB         5.8770    5.0580   23.9780 C.3   269  HIS269      0.0745
    119  CG         5.6810    5.3650   22.5310 C.ar  269  HIS269      0.0817
    120  ND1        4.6860    6.2040   22.0790 N.ar  269  HIS269     -0.2268
    121  CD2        6.3550    4.9520   21.4330 C.ar  269  HIS269      0.1154
    122  CE1        4.7600    6.3050   20.7660 C.ar  269  HIS269      0.1986
    123  NE2        5.7630    5.5550   20.3500 N.ar  269  HIS269     -0.2212
@<TRIPOS>BOND
     1    21    20    2
     2    20    19    1
     3    19    22    1
     4    19    18    1
     5    16    15    2
     6    22    23    1
     7    18    15   am
     8    15    14    1
     9    23    24   ar
    10    23    25   ar
    11    26    27    1
    12    13    14    1
    13    14    17    1
    14    37    36    1
    15    27    28    1
    16    27    30    1
    17    34    36   ar
    18    34    32   ar
    19    36    35   ar
    20    32    31   ar
    21     4     3    2
    22    28    29    2
    23    35    33   ar
    24    31    33   ar
    25    31    30    1
    26     3     2    1
    27     2     1    1
    28     2     5    1
    29   113   112    1
    30     5     6    1
    31    66    65   ar
    32     7     6   ar
    33     7     9   ar
    34   112   111    1
    35    69    70    1
    36    69    72    1
    37    69    68    1
    38    75    74    1
    39    75    76    1
    40    75    78    1
    41    76    77    2
    42     6     8   ar
    43     9    11   ar
    44    70    71    2
    45    72    73    1
    46    61    62    2
    47    61    60    1
    48    63    60    1
    49    63    64    1
    50     8    10   ar
    51    81    79   am
    52    11    10   ar
    53    11    12    1
    54    65    64    1
    55    65    67   ar
    56    79    78    1
    57    79    80    2
    58    60    59    1
    59   111   110    1
    60   110   109    1
    61   109   106    1
    62    90    89    1
    63    89    88    1
    64    58    56   ar
    65    58    57   ar
    66   105   106    1
    67    56    54   ar
    68   108   107    2
    69   106   107    1
    70    57    55   ar
    71    54    55   ar
    72    54    53    1
    73    42    39    1
    74    42    43    1
    75   104   102   ar
    76   104   103   ar
    77    88    87    1
    78   123   122   ar
    79   123   121   ar
    80    53    50    1
    81   102   100   ar
    82   122   120   ar
    83    39    38    1
    84    39    40    1
    85    43    44   ar
    86    43    45   ar
    87    44    46   ar
    88   103   101   ar
    89   121   119   ar
    90    87    86    1
    91    45    47   ar
    92    86    83    1
    93    46    48   ar
    94    51    50    1
    95    51    52    2
    96   100    99   ar
    97   100    98   ar
    98    50    49    1
    99    40    41    2
   100   120   119   ar
   101    47    48   ar
   102    99    97   ar
   103   119   118    1
   104   101    98   ar
   105    82    83    1
   106    83    84    1
   107    98    96   ar
   108   117   116    2
   109    97    96   ar
   110   118   115    1
   111    96    95    1
   112    84    85    2
   113   116   115    1
   114   114   115    1
   115    95    92    1
   116    92    91    1
   117    92    93    1
   118    93    94    2
