@<TRIPOS>MOLECULE
tmp/5fpaA00.pdb
 120 114 0 0 0
SMALL
GASTEIGER

@<TRIPOS>ATOM
      1  N         21.7790    1.9160   14.9590 N.3   126  TYR126     -0.1241
      2  CA        20.3760    1.5680   14.7620 C.3   126  TYR126      0.1605
      3  C         20.0180    1.6970   13.2900 C.2   126  TYR126      0.2264
      4  O         20.3340    2.7070   12.6610 O.2   126  TYR126     -0.2867
      5  CB        19.4810    2.5090   15.5950 C.3   126  TYR126      0.0534
      6  CG        18.0770    2.0030   15.9140 C.ar  126  TYR126     -0.0201
      7  CD1       17.7560    0.6510   15.8400 C.ar  126  TYR126     -0.0009
      8  CD2       17.0850    2.8800   16.3540 C.ar  126  TYR126     -0.0009
      9  CE1       16.4920    0.1880   16.1560 C.ar  126  TYR126      0.0417
     10  CE2       15.8120    2.4230   16.6750 C.ar  126  TYR126      0.0417
     11  CZ        15.5210    1.0720   16.5740 C.ar  126  TYR126      0.1957
     12  OH        14.2710    0.5760   16.8960 O.3   126  TYR126     -0.2866
     13  N         17.0940    2.3480   11.5100 N.3   128  ALA128     -0.1245
     14  CA        15.7240    2.8250   11.7160 C.3   128  ALA128      0.1562
     15  C         15.1070    3.4320   10.4650 C.2   128  ALA128      0.2260
     16  O         15.8160    3.8910    9.5670 O.2   128  ALA128     -0.2867
     17  CB        15.6910    3.8450   12.8470 C.3   128  ALA128      0.0290
     18  N         12.7350   -1.5390   11.3060 N.3   170  TYR170     -0.1241
     19  CA        13.6750   -1.0890   12.3270 C.3   170  TYR170      0.1605
     20  C         14.5560   -2.2670   12.7250 C.2   170  TYR170      0.2264
     21  O         14.0700   -3.2450   13.2870 O.2   170  TYR170     -0.2867
     22  CB        12.9210   -0.5470   13.5480 C.3   170  TYR170      0.0534
     23  CG        12.0580    0.6360   13.2000 C.ar  170  TYR170     -0.0201
     24  CD1       10.8280    0.4580   12.5820 C.ar  170  TYR170     -0.0009
     25  CD2       12.4900    1.9390   13.4390 C.ar  170  TYR170     -0.0009
     26  CE1       10.0410    1.5370   12.2260 C.ar  170  TYR170      0.0417
     27  CE2       11.7060    3.0260   13.0920 C.ar  170  TYR170      0.0417
     28  CZ        10.4830    2.8200   12.4840 C.ar  170  TYR170      0.1957
     29  OH         9.6910    3.8860   12.1140 O.3   170  TYR170     -0.2866
     30  N         14.6970    4.2600   21.4790 N.3   178  PHE178     -0.1241
     31  CA        13.7300    5.2360   20.9850 C.3   178  PHE178      0.1605
     32  C         13.3370    6.2190   22.0940 C.2   178  PHE178      0.2264
     33  O         12.9450    5.8350   23.1990 O.2   178  PHE178     -0.2867
     34  CB        12.5200    4.6190   20.2440 C.3   178  PHE178      0.0534
     35  CG        11.7680    3.5550   20.9960 C.ar  178  PHE178     -0.0203
     36  CD1       12.2710    2.2650   21.1020 C.ar  178  PHE178     -0.0042
     37  CD2       10.4980    3.8170   21.5050 C.ar  178  PHE178     -0.0042
     38  CE1       11.5540    1.2740   21.7580 C.ar  178  PHE178     -0.0003
     39  CE2        9.7720    2.8340   22.1530 C.ar  178  PHE178     -0.0003
     40  CZ        10.3040    1.5580   22.2840 C.ar  178  PHE178     -0.0000
     41  N          8.3270   10.1970   22.9390 N.3   181  HIS181     -0.1241
     42  CA         7.5600   10.8860   21.9030 C.3   181  HIS181      0.1621
     43  C          6.1570   10.3550   21.7880 C.2   181  HIS181      0.2264
     44  O          5.8620    9.2540   22.2350 O.2   181  HIS181     -0.2867
     45  CB         8.2360   10.6980   20.5510 C.3   181  HIS181      0.0745
     46  CG         8.1840    9.2770   20.0550 C.ar  181  HIS181      0.0817
     47  ND1        8.9350    8.2980   20.5950 N.ar  181  HIS181     -0.2268
     48  CD2        7.4090    8.6780   19.0650 C.ar  181  HIS181      0.1154
     49  CE1        8.6720    7.1420   19.9690 C.ar  181  HIS181      0.1986
     50  NE2        7.7390    7.3730   19.0330 N.ar  181  HIS181     -0.2212
     51  N          3.2470    9.9440   18.4320 N.3   183  GLU183     -0.1245
     52  CA         3.3300    9.8560   16.9750 C.3   183  GLU183      0.1567
     53  C          3.0810   11.2150   16.3190 C.2   183  GLU183      0.2260
     54  O          2.5240   12.1270   16.9380 O.2   183  GLU183     -0.2867
     55  CB         2.3330    8.8240   16.4340 C.3   183  GLU183      0.0388
     56  CG         2.5390    7.4230   16.9830 C.3   183  GLU183      0.1160
     57  CD         3.9600    6.9330   16.7820 C.2   183  GLU183      0.3649
     58  OE1        4.3860    6.7680   15.6260 O.co2 183  GLU183     -0.2457
     59  OE2        4.6600    6.7240   17.7850 O.co2 183  GLU183     -0.2457
     60  N          0.0420    4.0420   16.4360 N.3   189  SER189     -0.1217
     61  CA         1.0370    3.2490   15.7300 C.3   189  SER189      0.1889
     62  C          0.8250    1.7890   16.0820 C.2   189  SER189      0.2288
     63  O          0.2950    1.4680   17.1470 O.2   189  SER189     -0.2866
     64  CB         2.4670    3.6940   16.0660 C.3   189  SER189      0.2089
     65  OG         2.8380    3.3510   17.3920 O.3   189  SER189     -0.2183
     66  N          3.1560   -1.8820   15.9240 N.3   191  ASN191     -0.1240
     67  CA         4.5360   -2.3400   15.8370 C.3   191  ASN191      0.1653
     68  C          4.5430   -3.8600   15.9880 C.2   191  ASN191      0.2266
     69  O          4.0150   -4.3790   16.9690 O.2   191  ASN191     -0.2867
     70  CB         5.3590   -1.6580   16.9530 C.3   191  ASN191      0.1155
     71  CG         6.8520   -1.9890   16.9060 C.2   191  ASN191      0.2627
     72  OD1        7.2530   -3.1470   17.0610 O.2   191  ASN191     -0.2716
     73  ND2        7.6900   -0.9520   16.7610 N.am  191  ASN191     -0.0877
     74  N         12.0830   -6.0440   22.9730 N.3   199  LYS199     -0.1245
     75  CA        12.0420   -4.5940   23.0070 C.3   199  LYS199      0.1561
     76  C         11.2490   -4.1940   24.2480 C.2   199  LYS199      0.2260
     77  O         10.1040   -4.6310   24.4260 O.2   199  LYS199     -0.2867
     78  CB        11.3600   -4.0500   21.7440 C.3   199  LYS199      0.0271
     79  CG        11.4190   -2.5330   21.5910 C.3   199  LYS199      0.0035
     80  CD        10.5640   -2.0120   20.4360 C.3   199  LYS199      0.0206
     81  CE        10.9740   -2.5540   19.0690 C.3   199  LYS199      0.1093
     82  NZ        12.2550   -2.0350   18.5250 N.3   199  LYS199     -0.1314
     83  N          9.3700   -1.3670   26.4960 N.3   201  TRP201     -0.1241
     84  CA         8.6060   -0.1500   26.2660 C.3   201  TRP201      0.1605
     85  C          8.2790    0.5120   27.5690 C.2   201  TRP201      0.2264
     86  O          8.0210   -0.1640   28.5590 O.2   201  TRP201     -0.2867
     87  CB         7.2710   -0.4740   25.6110 C.3   201  TRP201      0.0550
     88  CG         7.3410   -1.0090   24.2070 C.ar  201  TRP201      0.0003
     89  CD1        7.7920   -2.2560   23.7930 C.ar  201  TRP201      0.0946
     90  CD2        6.8950   -0.3400   22.9860 C.ar  201  TRP201      0.0152
     91  NE1        7.6730   -2.3920   22.4320 N.ar  201  TRP201     -0.2442
     92  CE2        7.1440   -1.2780   21.8890 C.ar  201  TRP201      0.0810
     93  CE3        6.3370    0.9040   22.6980 C.ar  201  TRP201      0.0012
     94  CZ2        6.8470   -0.9600   20.5710 C.ar  201  TRP201      0.0191
     95  CZ3        6.0400    1.2110   21.3670 C.ar  201  TRP201      0.0001
     96  CH2        6.2860    0.2980   20.3270 C.ar  201  TRP201      0.0015
     97  N         12.4330   13.8610   19.0580 N.3   234  LYS234     -0.1245
     98  CA        12.7160   12.4800   19.4350 C.3   234  LYS234      0.1561
     99  C         14.1770   12.3200   19.8400 C.2   234  LYS234      0.2260
    100  O         14.9160   11.5420   19.2420 O.2   234  LYS234     -0.2867
    101  CB        12.3120   11.5070   18.3190 C.3   234  LYS234      0.0271
    102  CG        10.8400   11.6300   17.9510 C.3   234  LYS234      0.0035
    103  CD        10.2880   10.4100   17.2290 C.3   234  LYS234      0.0206
    104  CE        10.3800   10.5460   15.7210 C.3   234  LYS234      0.1093
    105  NZ         9.7410    9.3840   15.0410 N.3   234  LYS234     -0.1314
    106  N          5.7330    7.4820   24.5670 N.3   269  HIS269     -0.1241
    107  CA         6.4450    6.2220   24.7730 C.3   269  HIS269      0.1621
    108  C          7.9030    6.3030   24.4220 C.2   269  HIS269      0.2264
    109  O          8.3370    7.1950   23.7000 O.2   269  HIS269     -0.2867
    110  CB         5.7730    5.0920   23.9980 C.3   269  HIS269      0.0745
    111  CG         5.5630    5.4000   22.5420 C.ar  269  HIS269      0.0817
    112  ND1        4.5760    6.2120   22.1120 N.ar  269  HIS269     -0.2268
    113  CD2        6.2540    4.9790   21.4040 C.ar  269  HIS269      0.1154
    114  CE1        4.6370    6.3170   20.7740 C.ar  269  HIS269      0.1986
    115  NE2        5.6590    5.5580   20.3390 N.ar  269  HIS269     -0.2212
    116  N          6.7850   -1.1990   11.7350 N.3   281  ALA281     -0.1245
    117  CA         5.7640   -0.3220   12.2810 C.3   281  ALA281      0.1562
    118  C          5.1370    0.5790   11.2180 C.2   281  ALA281      0.2260
    119  O          5.7350    0.8520   10.1710 O.2   281  ALA281     -0.2867
    120  CB         6.3420    0.5200   13.4200 C.3   281  ALA281      0.0290
@<TRIPOS>BOND
     1    16    15    2
     2   119   118    2
     3    15    14    1
     4   118   117    1
     5    18    19    1
     6    13    14    1
     7    14    17    1
     8   116   117    1
     9    29    28    1
    10    26    28   ar
    11    26    24   ar
    12   117   120    1
    13    19    20    1
    14    19    22    1
    15    28    27   ar
    16    24    23   ar
    17     4     3    2
    18    20    21    2
    19    27    25   ar
    20    23    25   ar
    21    23    22    1
    22     3     2    1
    23     2     1    1
    24     2     5    1
    25   105   104    1
    26     5     6    1
    27    58    57   ar
    28   104   103    1
    29    61    64    1
    30    61    62    1
    31    61    60    1
    32    67    66    1
    33    67    68    1
    34    67    70    1
    35     7     6   ar
    36     7     9   ar
    37     6     8   ar
    38    68    69    2
    39    64    65    1
    40    62    63    2
    41     9    11   ar
    42    53    54    2
    43    53    52    1
    44     8    10   ar
    45    55    52    1
    46    55    56    1
    47    11    10   ar
    48    11    12    1
    49    73    71   am
    50    57    56    1
    51    57    59   ar
    52    71    70    1
    53    71    72    2
    54    52    51    1
    55   103   102    1
    56   102   101    1
    57   101    98    1
    58    82    81    1
    59    50    48   ar
    60    50    49   ar
    61    97    98    1
    62    48    46   ar
    63    81    80    1
    64   100    99    2
    65    98    99    1
    66    49    47   ar
    67    46    45    1
    68    46    47   ar
    69    34    31    1
    70    34    35    1
    71    96    94   ar
    72    96    95   ar
    73   115   114   ar
    74   115   113   ar
    75    80    79    1
    76    45    42    1
    77    94    92   ar
    78   114   112   ar
    79    31    30    1
    80    31    32    1
    81    35    36   ar
    82    35    37   ar
    83    36    38   ar
    84    95    93   ar
    85   113   111   ar
    86    37    39   ar
    87    79    78    1
    88    78    75    1
    89    38    40   ar
    90    43    42    1
    91    43    44    2
    92    92    91   ar
    93    92    90   ar
    94    42    41    1
    95    32    33    2
    96   112   111   ar
    97    39    40   ar
    98    91    89   ar
    99   111   110    1
   100    93    90   ar
   101    74    75    1
   102    90    88   ar
   103    75    76    1
   104   109   108    2
   105    89    88   ar
   106   110   107    1
   107    88    87    1
   108    76    77    2
   109   108   107    1
   110   106   107    1
   111    87    84    1
   112    84    83    1
   113    84    85    1
   114    85    86    2
