@<TRIPOS>MOLECULE
tmp/5fpbA00.pdb
 171 162 0 0 0
SMALL
GASTEIGER

@<TRIPOS>ATOM
      1  N         22.3520    4.5950   11.9400 N.3    65  LEU65      -0.1245
      2  CA        22.4600    5.7550   12.8150 C.3    65  LEU65       0.1561
      3  C         23.1510    5.3710   14.1090 C.2    65  LEU65       0.2260
      4  O         22.6470    4.5290   14.8610 O.2    65  LEU65      -0.2867
      5  CB        21.0690    6.3090   13.1260 C.3    65  LEU65       0.0270
      6  CG        20.2080    6.6720   11.9100 C.3    65  LEU65       0.0019
      7  CD1       18.7800    6.9440   12.3510 C.3    65  LEU65       0.0001
      8  CD2       20.7780    7.8680   11.1650 C.3    65  LEU65       0.0001
      9  N         23.9070    6.1840   17.7680 N.3    67  GLN67      -0.1245
     10  CA        23.1590    6.9390   18.7580 C.3    67  GLN67       0.1566
     11  C         24.0590    7.3930   19.9050 C.2    67  GLN67       0.2260
     12  O         24.3140    6.6370   20.8420 O.2    67  GLN67      -0.2867
     13  CB        22.0000    6.0980   19.2850 C.3    67  GLN67       0.0367
     14  CG        21.0280    5.6870   18.2010 C.3    67  GLN67       0.0905
     15  CD        19.8180    4.9730   18.7550 C.2    67  GLN67       0.2608
     16  OE1       19.9410    3.9360   19.3930 O.2    67  GLN67      -0.2717
     17  NE2       18.6400    5.5270   18.5120 N.am   67  GLN67      -0.0878
     18  N         20.0510   12.1000   22.9190 N.3    78  GLN78      -0.1245
     19  CA        20.8840   11.3890   21.9630 C.3    78  GLN78       0.1566
     20  C         20.7880   12.0720   20.6100 C.2    78  GLN78       0.2260
     21  O         19.7290   12.5770   20.2350 O.2    78  GLN78      -0.2867
     22  CB        20.5170    9.8970   21.8810 C.3    78  GLN78       0.0367
     23  CG        19.1190    9.5900   21.3640 C.3    78  GLN78       0.0905
     24  CD        18.7650    8.1030   21.4040 C.2    78  GLN78       0.2608
     25  OE1       19.5230    7.2710   21.9120 O.2    78  GLN78      -0.2717
     26  NE2       17.5980    7.7650   20.8660 N.am   78  GLN78      -0.0878
     27  N         21.9260   11.5170   16.3620 N.3    80  HIS80      -0.1241
     28  CA        22.1980   10.4550   15.4080 C.3    80  HIS80       0.1621
     29  C         23.3060   10.8560   14.4480 C.2    80  HIS80       0.2264
     30  O         23.1730   11.8170   13.6920 O.2    80  HIS80      -0.2867
     31  CB        20.9280   10.0840   14.6380 C.3    80  HIS80       0.0745
     32  CG        19.8870    9.4160   15.4840 C.ar   80  HIS80       0.0817
     33  ND1       18.5850    9.2430   15.0670 N.ar   80  HIS80      -0.2268
     34  CD2       19.9540    8.8850   16.7280 C.ar   80  HIS80       0.1154
     35  CE1       17.8980    8.6270   16.0140 C.ar   80  HIS80       0.1986
     36  NE2       18.7060    8.3970   17.0320 N.ar   80  HIS80      -0.2212
     37  N         21.7750    1.9490   15.0560 N.3   126  TYR126     -0.1241
     38  CA        20.3750    1.5660   14.8550 C.3   126  TYR126      0.1605
     39  C         20.0390    1.6660   13.3670 C.2   126  TYR126      0.2264
     40  O         20.2550    2.7060   12.7530 O.2   126  TYR126     -0.2867
     41  CB        19.4410    2.5020   15.6550 C.3   126  TYR126      0.0534
     42  CG        18.0760    1.9290   16.0530 C.ar  126  TYR126     -0.0201
     43  CD1       17.6370    0.6910   15.5900 C.ar  126  TYR126     -0.0009
     44  CD2       17.2200    2.6400   16.8960 C.ar  126  TYR126     -0.0009
     45  CE1       16.4070    0.1710   15.9550 C.ar  126  TYR126      0.0417
     46  CE2       15.9760    2.1270   17.2650 C.ar  126  TYR126      0.0417
     47  CZ        15.5730    0.8910   16.7860 C.ar  126  TYR126      0.1957
     48  OH        14.3460    0.3510   17.1460 O.3   126  TYR126     -0.2866
     49  N         17.2400    2.2110   11.7390 N.3   128  ALA128     -0.1231
     50  CA        15.8650    2.6570   11.9400 C.3   128  ALA128      0.1694
     51  C         15.2920    3.3210   10.7000 C.2   128  ALA128      0.2592
     52  O         16.0330    3.8190    9.8600 O.2   128  ALA128     -0.2718
     53  CB        15.8020    3.6190   13.1150 C.3   128  ALA128      0.0304
     54  N         13.9620    3.3040   10.5980 N.am  129  ASP129     -0.1974
     55  CA        13.2060    4.0950    9.6190 C.3   129  ASP129      0.1709
     56  C         13.4750    3.6980    8.1650 C.2   129  ASP129      0.2293
     57  O         13.6360    4.5590    7.2960 O.2   129  ASP129     -0.2864
     58  CB        13.4730    5.5980    9.8140 C.3   129  ASP129      0.1436
     59  CG        12.9760    6.1160   11.1550 C.2   129  ASP129      0.3671
     60  OD1       12.0300    5.5330   11.7060 O.co2 129  ASP129     -0.2456
     61  OD2       13.5180    7.1220   11.6490 O.co2 129  ASP129     -0.2456
     62  N         12.7700   -1.5820   11.3370 N.3   171  TYR171     -0.1241
     63  CA        13.7250   -1.1580   12.3510 C.3   171  TYR171      0.1605
     64  C         14.6080   -2.3390   12.7100 C.2   171  TYR171      0.2264
     65  O         14.1310   -3.3220   13.2770 O.2   171  TYR171     -0.2867
     66  CB        12.9900   -0.6620   13.6030 C.3   171  TYR171      0.0534
     67  CG        12.0980    0.5130   13.3190 C.ar  171  TYR171     -0.0201
     68  CD1       10.8410    0.3350   12.7450 C.ar  171  TYR171     -0.0009
     69  CD2       12.5200    1.8070   13.5860 C.ar  171  TYR171     -0.0009
     70  CE1       10.0260    1.4160   12.4540 C.ar  171  TYR171      0.0417
     71  CE2       11.7110    2.8950   13.3040 C.ar  171  TYR171      0.0417
     72  CZ        10.4670    2.6950   12.7390 C.ar  171  TYR171      0.1957
     73  OH         9.6660    3.7770   12.4460 O.3   171  TYR171     -0.2866
     74  N         17.9190    2.7680   21.0720 N.3   178  THR178     -0.1203
     75  CA        17.0100    3.4930   21.9450 C.3   178  THR178      0.1994
     76  C         16.0090    4.2860   21.1160 C.2   178  THR178      0.2617
     77  O         16.3870    4.9250   20.1320 O.2   178  THR178     -0.2717
     78  CB        17.8250    4.4790   22.8180 C.3   178  THR178      0.1784
     79  OG1       18.7690    3.7580   23.6260 O.3   178  THR178     -0.2211
     80  CG2       16.9300    5.3310   23.7150 C.3   178  THR178      0.0376
     81  N         14.7380    4.2410   21.5050 N.am  179  PHE179     -0.1975
     82  CA        13.7760    5.2250   21.0120 C.3   179  PHE179      0.1639
     83  C         13.3770    6.1930   22.1210 C.2   179  PHE179      0.2290
     84  O         12.9820    5.7960   23.2170 O.2   179  PHE179     -0.2864
     85  CB        12.5720    4.6170   20.2590 C.3   179  PHE179      0.0560
     86  CG        11.8270    3.5360   20.9900 C.ar  179  PHE179     -0.0200
     87  CD1       12.3360    2.2430   21.0660 C.ar  179  PHE179     -0.0042
     88  CD2       10.5630    3.7860   21.5120 C.ar  179  PHE179     -0.0042
     89  CE1       11.6210    1.2350   21.7020 C.ar  179  PHE179     -0.0003
     90  CE2        9.8410    2.7870   22.1420 C.ar  179  PHE179     -0.0003
     91  CZ        10.3730    1.5060   22.2400 C.ar  179  PHE179     -0.0000
     92  N          8.3680   10.1820   22.9520 N.3   182  HIS182     -0.1241
     93  CA         7.5970   10.8930   21.9400 C.3   182  HIS182      0.1621
     94  C          6.1750   10.3480   21.8350 C.2   182  HIS182      0.2264
     95  O          5.8830    9.2450   22.3050 O.2   182  HIS182     -0.2867
     96  CB         8.2730   10.7300   20.5790 C.3   182  HIS182      0.0745
     97  CG         8.1900    9.3380   20.0400 C.ar  182  HIS182      0.0817
     98  ND1        8.9070    8.2890   20.5750 N.ar  182  HIS182     -0.2268
     99  CD2        7.4510    8.8150   19.0330 C.ar  182  HIS182      0.1154
    100  CE1        8.6220    7.1820   19.9140 C.ar  182  HIS182      0.1986
    101  NE2        7.7440    7.4740   18.9710 N.ar  182  HIS182     -0.2212
    102  N          3.2830    9.9200   18.4670 N.3   184  GLU184     -0.1245
    103  CA         3.3580    9.8060   17.0110 C.3   184  GLU184      0.1567
    104  C          3.0710   11.1430   16.3410 C.2   184  GLU184      0.2260
    105  O          2.4790   12.0390   16.9490 O.2   184  GLU184     -0.2867
    106  CB         2.3800    8.7480   16.4990 C.3   184  GLU184      0.0388
    107  CG         2.6050    7.3680   17.0890 C.3   184  GLU184      0.1160
    108  CD         4.0250    6.8760   16.8800 C.2   184  GLU184      0.3649
    109  OE1        4.4310    6.7280   15.7120 O.co2 184  GLU184     -0.2457
    110  OE2        4.7340    6.6490   17.8800 O.co2 184  GLU184     -0.2457
    111  N          0.0540    3.9750   16.4760 N.3   190  SER190     -0.1217
    112  CA         1.0290    3.1680   15.7530 C.3   190  SER190      0.1889
    113  C          0.8300    1.7030   16.1030 C.2   190  SER190      0.2288
    114  O          0.2960    1.3680   17.1650 O.2   190  SER190     -0.2866
    115  CB         2.4690    3.6150   16.0430 C.3   190  SER190      0.2089
    116  OG         2.8560    3.3440   17.3790 O.3   190  SER190     -0.2183
    117  N          3.2160   -1.9050   15.9350 N.3   192  ASN192     -0.1240
    118  CA         4.5940   -2.3770   15.8360 C.3   192  ASN192      0.1653
    119  C          4.5700   -3.8890   15.9620 C.2   192  ASN192      0.2266
    120  O          4.0190   -4.4160   16.9330 O.2   192  ASN192     -0.2867
    121  CB         5.4330   -1.7790   16.9840 C.3   192  ASN192      0.1155
    122  CG         6.9270   -2.1460   16.9230 C.2   192  ASN192      0.2627
    123  OD1        7.3160   -3.3150   17.0750 O.2   192  ASN192     -0.2716
    124  ND2        7.7830   -1.1240   16.7810 N.am  192  ASN192     -0.0877
    125  N         12.1880   -6.0780   22.9700 N.3   200  LYS200     -0.1245
    126  CA        12.1490   -4.6320   22.9800 C.3   200  LYS200      0.1561
    127  C         11.3490   -4.2200   24.2060 C.2   200  LYS200      0.2260
    128  O         10.1910   -4.6210   24.3580 O.2   200  LYS200     -0.2867
    129  CB        11.4640   -4.1310   21.7080 C.3   200  LYS200      0.0271
    130  CG        11.4780   -2.6200   21.5200 C.3   200  LYS200      0.0035
    131  CD        10.5730   -2.1600   20.3770 C.3   200  LYS200      0.0206
    132  CE        10.9230   -2.7580   19.0120 C.3   200  LYS200      0.1093
    133  NZ        12.1500   -2.1600   18.4120 N.3   200  LYS200     -0.1314
    134  N          9.4730   -1.3910   26.4970 N.3   202  TRP202     -0.1241
    135  CA         8.7080   -0.1630   26.2870 C.3   202  TRP202      0.1605
    136  C          8.3610    0.4850   27.6190 C.2   202  TRP202      0.2264
    137  O          8.0550   -0.2080   28.5960 O.2   202  TRP202     -0.2867
    138  CB         7.3760   -0.4640   25.5910 C.3   202  TRP202      0.0550
    139  CG         7.4570   -1.0340   24.2140 C.ar  202  TRP202      0.0003
    140  CD1        7.9090   -2.2690   23.8640 C.ar  202  TRP202      0.0946
    141  CD2        7.0200   -0.4070   23.0000 C.ar  202  TRP202      0.0152
    142  NE1        7.8070   -2.4430   22.5030 N.ar  202  TRP202     -0.2442
    143  CE2        7.2630   -1.3130   21.9490 C.ar  202  TRP202      0.0810
    144  CE3        6.4550    0.8420   22.6990 C.ar  202  TRP202      0.0012
    145  CZ2        6.9580   -1.0160   20.6170 C.ar  202  TRP202      0.0191
    146  CZ3        6.1480    1.1370   21.3730 C.ar  202  TRP202      0.0001
    147  CH2        6.4020    0.2120   20.3490 C.ar  202  TRP202      0.0015
    148  N         12.4020   13.8220   19.1730 N.3   235  LYS235     -0.1245
    149  CA        12.6130   12.4130   19.4560 C.3   235  LYS235      0.1561
    150  C         14.0720   12.2020   19.8630 C.2   235  LYS235      0.2260
    151  O         14.7750   11.3600   19.2990 O.2   235  LYS235     -0.2867
    152  CB        12.2120   11.5670   18.2340 C.3   235  LYS235      0.0271
    153  CG        11.9200   10.1080   18.5260 C.3   235  LYS235      0.0035
    154  CD        11.4050    9.4100   17.2730 C.3   235  LYS235      0.0206
    155  CE        11.4520    7.8970   17.4000 C.3   235  LYS235      0.1093
    156  NZ        11.0870    7.2370   16.1160 N.3   235  LYS235     -0.1314
    157  N          5.7700    7.4230   24.6260 N.3   270  HIS270     -0.1241
    158  CA         6.5030    6.1830   24.8480 C.3   270  HIS270      0.1621
    159  C          7.9710    6.2960   24.4890 C.2   270  HIS270      0.2264
    160  O          8.3820    7.1780   23.7390 O.2   270  HIS270     -0.2867
    161  CB         5.8650    5.0270   24.0740 C.3   270  HIS270      0.0745
    162  CG         5.6610    5.3180   22.6220 C.ar  270  HIS270      0.0817
    163  ND1        4.6310    6.1100   22.1640 N.ar  270  HIS270     -0.2268
    164  CD2        6.3560    4.9310   21.5270 C.ar  270  HIS270      0.1154
    165  CE1        4.7010    6.2040   20.8500 C.ar  270  HIS270      0.1986
    166  NE2        5.7360    5.4930   20.4380 N.ar  270  HIS270     -0.2212
    167  N          6.7570   -1.2680   11.6840 N.3   282  ALA282     -0.1245
    168  CA         5.7320   -0.3990   12.2310 C.3   282  ALA282      0.1562
    169  C          5.1180    0.5050   11.1770 C.2   282  ALA282      0.2260
    170  O          5.7270    0.7930   10.1410 O.2   282  ALA282     -0.2867
    171  CB         6.2990    0.4390   13.3750 C.3   282  ALA282      0.0290
@<TRIPOS>BOND
     1    57    56    2
     2    56    55    1
     3    55    58    1
     4    55    54    1
     5    58    59    1
     6    52    51    2
     7   170   169    2
     8    54    51   am
     9    51    50    1
    10    59    61   ar
    11    59    60   ar
    12     8     6    1
    13   169   168    1
    14    62    63    1
    15   167   168    1
    16    49    50    1
    17     6     7    1
    18     6     5    1
    19    50    53    1
    20     1     2    1
    21   168   171    1
    22    63    64    1
    23    63    66    1
    24    73    72    1
    25    70    72   ar
    26    70    68   ar
    27    64    65    2
    28    72    71   ar
    29    68    67   ar
    30    40    39    2
    31     2     5    1
    32     2     3    1
    33    71    69   ar
    34    67    69   ar
    35    67    66    1
    36    39    38    1
    37    30    29    2
    38     3     4    2
    39    29    28    1
    40    31    28    1
    41    31    32    1
    42    38    37    1
    43    38    41    1
    44    33    32   ar
    45    33    35   ar
    46    28    27    1
    47    32    34   ar
    48    43    45   ar
    49    43    42   ar
    50    41    42    1
    51   109   108   ar
    52   112   115    1
    53   112   113    1
    54   112   111    1
    55   118   117    1
    56   118   119    1
    57   118   121    1
    58    45    47   ar
    59   119   120    2
    60    35    36   ar
    61   115   116    1
    62    42    44   ar
    63   113   114    2
    64   156   155    1
    65   104   105    2
    66   104   103    1
    67   106   103    1
    68   106   107    1
    69    34    36   ar
    70   124   122   am
    71    47    48    1
    72    47    46   ar
    73   108   107    1
    74   108   110   ar
    75    44    46   ar
    76   122   121    1
    77   122   123    2
    78   103   102    1
    79   154   155    1
    80   154   153    1
    81     9    10    1
    82    14    15    1
    83    14    13    1
    84   152   153    1
    85   152   149    1
    86   133   132    1
    87    17    15   am
    88    15    16    2
    89    10    13    1
    90    10    11    1
    91   101    99   ar
    92   101   100   ar
    93   132   131    1
    94    99    97   ar
    95   148   149    1
    96   151   150    2
    97   149   150    1
    98    11    12    2
    99   100    98   ar
   100    97    98   ar
   101    97    96    1
   102    77    76    2
   103    21    20    2
   104    85    86    1
   105    85    82    1
   106   147   145   ar
   107   147   146   ar
   108   131   130    1
   109   166   165   ar
   110   166   164   ar
   111    96    93    1
   112    20    19    1
   113   145   143   ar
   114   165   163   ar
   115    26    24   am
   116    86    87   ar
   117    86    88   ar
   118    82    81    1
   119    82    83    1
   120    87    89   ar
   121    74    75    1
   122    76    81   am
   123    76    75    1
   124    23    24    1
   125    23    22    1
   126   146   144   ar
   127    24    25    2
   128    88    90   ar
   129   130   129    1
   130   164   162   ar
   131    89    91   ar
   132   129   126    1
   133    94    93    1
   134    94    95    2
   135    22    19    1
   136    93    92    1
   137    75    78    1
   138   143   142   ar
   139   143   141   ar
   140    19    18    1
   141    83    84    2
   142    90    91   ar
   143   163   162   ar
   144   142   140   ar
   145   162   161    1
   146   144   141   ar
   147    78    79    1
   148    78    80    1
   149   125   126    1
   150   126   127    1
   151   141   139   ar
   152   160   159    2
   153   140   139   ar
   154   161   158    1
   155   127   128    2
   156   139   138    1
   157   159   158    1
   158   157   158    1
   159   138   135    1
   160   135   134    1
   161   135   136    1
   162   136   137    2
