@<TRIPOS>MOLECULE
tmp/5fpgB00.pdb
 198 197 0 0 0
SMALL
GASTEIGER

@<TRIPOS>ATOM
      1  N         -0.3260   -0.3480    2.6950 N.3    80  HIS80      -0.1226
      2  CA         0.8800   -1.1330    2.4590 C.3    80  HIS80       0.1752
      3  C          1.5250   -1.5460    3.7770 C.2    80  HIS80       0.2597
      4  O          1.6930   -0.7270    4.6840 O.2    80  HIS80      -0.2718
      5  CB         1.8910   -0.3530    1.6240 C.3    80  HIS80       0.0759
      6  CG         3.2190   -1.0360    1.5070 C.ar   80  HIS80       0.0818
      7  ND1        3.4410   -2.0890    0.6470 N.ar   80  HIS80      -0.2268
      8  CD2        4.3880   -0.8290    2.1580 C.ar   80  HIS80       0.1154
      9  CE1        4.6930   -2.4930    0.7630 C.ar   80  HIS80       0.1986
     10  NE2        5.2890   -1.7460    1.6750 N.ar   80  HIS80      -0.2212
     11  N          1.8890   -2.8210    3.8680 N.am   81  GLY81      -0.1942
     12  CA         2.5590   -3.3510    5.0400 C.3    81  GLY81       0.2014
     13  C          3.7890   -4.1410    4.6480 C.2    81  GLY81       0.2640
     14  O          3.7140   -5.0670    3.8400 O.2    81  GLY81      -0.2714
     15  N          4.9290   -3.7630    5.2150 N.am   82  SER82      -0.1936
     16  CA         6.1760   -4.4780    4.9800 C.3    82  SER82       0.2040
     17  C          7.1630   -4.1610    6.0960 C.2    82  SER82       0.2485
     18  O          6.9750   -3.1910    6.8290 O.2    82  SER82      -0.2729
     19  CB         6.7670   -4.1040    3.6220 C.3    82  SER82       0.2129
     20  OG         7.0650   -2.7210    3.5660 O.3    82  SER82      -0.2179
     21  N          8.2170   -4.9830    6.2410 N.am   83  PRO83      -0.2715
     22  CA         9.2620   -4.6880    7.2330 C.3    83  PRO83       0.1536
     23  C         10.1960   -3.5450    6.8360 C.2    83  PRO83       0.2598
     24  O         11.2610   -3.4170    7.4420 O.2    83  PRO83      -0.2715
     25  CB        10.0520   -6.0030    7.3160 C.3    83  PRO83       0.0310
     26  CG         9.1670   -7.0410    6.7220 C.3    83  PRO83       0.0237
     27  CD         8.3630   -6.3380    5.6840 C.3    83  PRO83       0.0939
     28  N          9.8090   -2.7350    5.8520 N.am   84  PHE84      -0.1974
     29  CA        10.6830   -1.6870    5.3280 C.3    84  PHE84       0.1639
     30  C          9.9970   -0.3230    5.2990 C.2    84  PHE84       0.2290
     31  O         10.4230    0.5760    4.5760 O.2    84  PHE84      -0.2864
     32  CB        11.1520   -2.0590    3.9210 C.3    84  PHE84       0.0560
     33  CG        11.5550   -3.5010    3.7800 C.ar   84  PHE84      -0.0200
     34  CD1       12.8460   -3.9080    4.0760 C.ar   84  PHE84      -0.0042
     35  CD2       10.6410   -4.4500    3.3520 C.ar   84  PHE84      -0.0042
     36  CE1       13.2180   -5.2350    3.9460 C.ar   84  PHE84      -0.0003
     37  CE2       11.0080   -5.7780    3.2200 C.ar   84  PHE84      -0.0003
     38  CZ        12.2980   -6.1700    3.5190 C.ar   84  PHE84      -0.0000
     39  N         12.0430    2.7750    5.9830 N.3    87  ALA87      -0.1231
     40  CA        12.9150    3.1350    4.8690 C.3    87  ALA87       0.1694
     41  C         12.1330    3.8880    3.7940 C.2    87  ALA87       0.2591
     42  O         12.6420    4.8320    3.1880 O.2    87  ALA87      -0.2718
     43  CB        13.5690    1.8910    4.2770 C.3    87  ALA87       0.0304
     44  N         10.8920    3.4670    3.5720 N.am   88  ILE88      -0.1980
     45  CA        10.0490    4.0380    2.5260 C.3    88  ILE88       0.1595
     46  C          9.6820    5.4950    2.8150 C.2    88  ILE88       0.2287
     47  O          9.6180    6.3150    1.9030 O.2    88  ILE88      -0.2864
     48  CB         8.7550    3.2070    2.3520 C.3    88  ILE88       0.0276
     49  CG1        9.0900    1.8130    1.8150 C.3    88  ILE88       0.0022
     50  CG2        7.7820    3.8910    1.3980 C.3    88  ILE88       0.0022
     51  CD1        7.9580    0.8110    1.9490 C.3    88  ILE88       0.0001
     52  N         12.9350    7.5610    1.9680 N.3    91  LYS91      -0.1231
     53  CA        13.5350    7.4260    0.6410 C.3    91  LYS91       0.1693
     54  C         12.4850    7.1900   -0.4470 C.2    91  LYS91       0.2593
     55  O         12.8120    7.1170   -1.6340 O.2    91  LYS91      -0.2718
     56  CB        14.5550    6.2820    0.6480 C.3    91  LYS91       0.0285
     57  CG        15.6130    6.4060    1.7450 C.3    91  LYS91       0.0035
     58  CD        16.4740    5.1520    1.8490 C.3    91  LYS91       0.0206
     59  CE        17.3630    5.1850    3.0880 C.3    91  LYS91       0.1093
     60  NZ        18.1670    3.9380    3.2530 N.3    91  LYS91      -0.1314
     61  N         11.2250    7.0740   -0.0410 N.am   92  GLY92      -0.1942
     62  CA        10.1370    6.8590   -0.9790 C.3    92  GLY92       0.2014
     63  C         10.0960    5.4210   -1.4480 C.2    92  GLY92       0.2639
     64  O         11.0660    4.6850   -1.2840 O.2    92  GLY92      -0.2714
     65  N          8.9700    5.0130   -2.0240 N.am   93  PHE93      -0.1959
     66  CA         8.8570    3.6740   -2.5840 C.3    93  PHE93       0.1771
     67  C          9.8930    3.4770   -3.6830 C.2    93  PHE93       0.2619
     68  O         10.2330    4.4170   -4.4050 O.2    93  PHE93      -0.2715
     69  CB         7.4510    3.4300   -3.1280 C.3    93  PHE93       0.0574
     70  CG         6.4580    3.0300   -2.0770 C.ar   93  PHE93      -0.0200
     71  CD1        6.4100    1.7250   -1.6160 C.ar   93  PHE93      -0.0042
     72  CD2        5.5710    3.9530   -1.5530 C.ar   93  PHE93      -0.0042
     73  CE1        5.4970    1.3500   -0.6530 C.ar   93  PHE93      -0.0003
     74  CE2        4.6560    3.5840   -0.5890 C.ar   93  PHE93      -0.0003
     75  CZ         4.6200    2.2800   -0.1370 C.ar   93  PHE93      -0.0000
     76  N         10.3960    2.2520   -3.7940 N.am   94  ASP94      -0.1971
     77  CA        11.4640    1.9410   -4.7330 C.3    94  ASP94       0.1709
     78  C         11.2260    0.5790   -5.3730 C.2    94  ASP94       0.2293
     79  O         11.2280   -0.4460   -4.6900 O.2    94  ASP94      -0.2864
     80  CB        12.8150    1.9660   -4.0190 C.3    94  ASP94       0.1436
     81  CG        13.9750    2.1790   -4.9670 C.2    94  ASP94       0.3671
     82  OD1       13.7910    2.0180   -6.1930 O.co2  94  ASP94      -0.2456
     83  OD2       15.0790    2.5060   -4.4800 O.co2  94  ASP94      -0.2456
     84  N         13.4600   -2.4150   -4.8800 N.3    97  HIS97      -0.1226
     85  CA        13.2990   -3.2450   -3.6870 C.3    97  HIS97       0.1752
     86  C         11.9400   -3.9350   -3.7080 C.2    97  HIS97       0.2596
     87  O         11.3610   -4.2300   -2.6630 O.2    97  HIS97      -0.2718
     88  CB        13.4430   -2.4030   -2.4160 C.3    97  HIS97       0.0759
     89  CG        14.8200   -1.8570   -2.2040 C.ar   97  HIS97       0.0818
     90  ND1       15.8590   -2.6260   -1.7260 N.ar   97  HIS97      -0.2268
     91  CD2       15.3280   -0.6170   -2.4010 C.ar   97  HIS97       0.1154
     92  CE1       16.9490   -1.8840   -1.6410 C.ar   97  HIS97       0.1986
     93  NE2       16.6550   -0.6620   -2.0440 N.ar   97  HIS97      -0.2212
     94  N         11.4360   -4.1930   -4.9090 N.am   98  ALA98      -0.1966
     95  CA        10.1000   -4.7480   -5.0710 C.3    98  ALA98       0.1728
     96  C         10.0110   -6.1820   -4.5590 C.2    98  ALA98       0.2616
     97  O         11.0220   -6.8220   -4.2640 O.2    98  ALA98      -0.2715
     98  CB         9.6760   -4.6880   -6.5400 C.3    98  ALA98       0.0334
     99  N          8.7780   -6.6650   -4.4530 N.am   99  TYR99      -0.1974
    100  CA         8.4930   -8.0420   -4.0740 C.3    99  TYR99       0.1639
    101  C          8.6380   -8.9430   -5.2990 C.2    99  TYR99       0.2290
    102  O          7.6800   -9.1500   -6.0450 O.2    99  TYR99      -0.2864
    103  CB         7.0810   -8.1390   -3.4830 C.3    99  TYR99       0.0560
    104  CG         6.6630   -9.5140   -2.9930 C.ar   99  TYR99      -0.0198
    105  CD1        7.5850  -10.5430   -2.8420 C.ar   99  TYR99      -0.0009
    106  CD2        5.3320   -9.7790   -2.6880 C.ar   99  TYR99      -0.0009
    107  CE1        7.1930  -11.7950   -2.3970 C.ar   99  TYR99       0.0417
    108  CE2        4.9320  -11.0260   -2.2440 C.ar   99  TYR99       0.0417
    109  CZ         5.8640  -12.0290   -2.1010 C.ar   99  TYR99       0.1957
    110  OH         5.4600  -13.2670   -1.6590 O.3    99  TYR99      -0.2866
    111  N          2.9480  -12.5920   -6.5880 N.3   103  MET103     -0.1245
    112  CA         2.0600  -13.3500   -7.4650 C.3   103  MET103      0.1570
    113  C          1.9120  -12.6950   -8.8370 C.2   103  MET103      0.2261
    114  O          1.6560  -13.3770   -9.8300 O.2   103  MET103     -0.2867
    115  CB         0.6810  -13.5030   -6.8150 C.3   103  MET103      0.0387
    116  CG        -0.3210  -14.2880   -7.6500 C.3   103  MET103      0.0595
    117  SD        -1.8810  -14.5710   -6.7870 S.3   103  MET103     -0.1393
    118  CE        -2.8180  -15.4400   -8.0460 C.3   103  MET103      0.0692
    119  N          5.3760   -3.4350   -6.3670 N.3   108  ILE108     -0.1231
    120  CA         5.0430   -2.9110   -5.0470 C.3   108  ILE108      0.1692
    121  C          3.5560   -3.1080   -4.7780 C.2   108  ILE108      0.2592
    122  O          2.7130   -2.4910   -5.4260 O.2   108  ILE108     -0.2718
    123  CB         5.3920   -1.4210   -4.9320 C.3   108  ILE108      0.0266
    124  CG1        6.8420   -1.1810   -5.3650 C.3   108  ILE108      0.0019
    125  CG2        5.1600   -0.9350   -3.5090 C.3   108  ILE108      0.0020
    126  CD1        7.1920    0.2720   -5.5430 C.3   108  ILE108      0.0001
    127  N          3.2440   -3.9600   -3.8080 N.am  109  TYR109     -0.1962
    128  CA         1.8720   -4.3980   -3.5790 C.3   109  TYR109      0.1771
    129  C          1.1480   -3.5650   -2.5190 C.2   109  TYR109      0.2620
    130  O          1.7420   -3.1630   -1.5180 O.2   109  TYR109     -0.2715
    131  CB         1.8690   -5.8720   -3.1750 C.3   109  TYR109      0.0574
    132  CG         2.2820   -6.8150   -4.2860 C.ar  109  TYR109     -0.0198
    133  CD1        3.5740   -6.7990   -4.7960 C.ar  109  TYR109     -0.0009
    134  CD2        1.3820   -7.7270   -4.8160 C.ar  109  TYR109     -0.0009
    135  CE1        3.9530   -7.6580   -5.8070 C.ar  109  TYR109      0.0417
    136  CE2        1.7520   -8.5920   -5.8230 C.ar  109  TYR109      0.0417
    137  CZ         3.0370   -8.5530   -6.3170 C.ar  109  TYR109      0.1957
    138  OH         3.4070   -9.4140   -7.3250 O.3   109  TYR109     -0.2866
    139  N         -0.1390   -3.3170   -2.7580 N.am  110  PHE110     -0.1960
    140  CA        -0.9950   -2.5690   -1.8380 C.3   110  PHE110      0.1771
    141  C         -2.2990   -3.3270   -1.6130 C.2   110  PHE110      0.2619
    142  O         -2.5120   -4.3860   -2.2040 O.2   110  PHE110     -0.2715
    143  CB        -1.2900   -1.1700   -2.3840 C.3   110  PHE110      0.0574
    144  CG        -0.0660   -0.3230   -2.5760 C.ar  110  PHE110     -0.0200
    145  CD1        0.7420   -0.4890   -3.6900 C.ar  110  PHE110     -0.0042
    146  CD2        0.2720    0.6440   -1.6460 C.ar  110  PHE110     -0.0042
    147  CE1        1.8670    0.2890   -3.8670 C.ar  110  PHE110     -0.0003
    148  CE2        1.3960    1.4260   -1.8190 C.ar  110  PHE110     -0.0003
    149  CZ         2.1950    1.2490   -2.9300 C.ar  110  PHE110     -0.0000
    150  N         -3.1730   -2.7820   -0.7700 N.am  111  ALA111     -0.1977
    151  CA        -4.4330   -3.4450   -0.4450 C.3   111  ALA111      0.1597
    152  C         -5.5390   -2.4580   -0.0850 C.2   111  ALA111      0.2287
    153  O         -5.2760   -1.3580    0.4010 O.2   111  ALA111     -0.2864
    154  CB        -4.2260   -4.4200    0.6960 C.3   111  ALA111      0.0319
    155  N         -5.2770   -7.1320    5.3870 N.3   116  LYS116     -0.1231
    156  CA        -4.4690   -7.8810    4.4330 C.3   116  LYS116      0.1693
    157  C         -3.0370   -7.3550    4.4090 C.2   116  LYS116      0.2592
    158  O         -2.0860   -8.1320    4.3170 O.2   116  LYS116     -0.2718
    159  CB        -5.0760   -7.8130    3.0340 C.3   116  LYS116      0.0285
    160  CG        -4.3200   -8.6440    2.0050 C.3   116  LYS116      0.0035
    161  CD        -5.1440   -8.8660    0.7510 C.3   116  LYS116      0.0206
    162  CE        -5.4900   -7.5500    0.0790 C.3   116  LYS116      0.1093
    163  NZ        -6.2970   -7.7380   -1.1510 N.3   116  LYS116     -0.1314
    164  N         -2.8850   -6.0370    4.4870 N.am  117  SER117     -0.1952
    165  CA        -1.5610   -5.4350    4.5920 C.3   117  SER117      0.1924
    166  C         -0.9230   -5.8330    5.9150 C.2   117  SER117      0.2314
    167  O          0.2990   -5.9370    6.0260 O.2   117  SER117     -0.2863
    168  CB        -1.6430   -3.9140    4.4800 C.3   117  SER117      0.2116
    169  OG        -2.1640   -3.5310    3.2210 O.3   117  SER117     -0.2180
    170  N          1.4910   -8.7490    6.1570 N.3   120  TYR120     -0.1241
    171  CA         2.8070   -8.6140    5.5360 C.3   120  TYR120      0.1605
    172  C          3.7510   -7.7010    6.3170 C.2   120  TYR120      0.2264
    173  O          4.8570   -7.4130    5.8600 O.2   120  TYR120     -0.2867
    174  CB         2.6510   -8.0940    4.1030 C.3   120  TYR120      0.0534
    175  CG         2.0530   -9.1130    3.1610 C.ar  120  TYR120     -0.0201
    176  CD1        2.8570  -10.0360    2.5080 C.ar  120  TYR120     -0.0009
    177  CD2        0.6850   -9.1570    2.9300 C.ar  120  TYR120     -0.0009
    178  CE1        2.3180  -10.9720    1.6510 C.ar  120  TYR120      0.0417
    179  CE2        0.1360  -10.0900    2.0740 C.ar  120  TYR120      0.0417
    180  CZ         0.9590  -10.9970    1.4370 C.ar  120  TYR120      0.1957
    181  OH         0.4270  -11.9320    0.5790 O.3   120  TYR120     -0.2866
    182  N          6.6580  -11.8060    4.3990 N.3   124  ILE124     -0.1245
    183  CA         5.6570  -12.5290    3.6250 C.3   124  ILE124      0.1561
    184  C          5.0010  -13.6030    4.4800 C.2   124  ILE124      0.2260
    185  O          5.6850  -14.4200    5.0980 O.2   124  ILE124     -0.2867
    186  CB         6.2700  -13.1840    2.3690 C.3   124  ILE124      0.0252
    187  CG1        7.0370  -12.1520    1.5350 C.3   124  ILE124      0.0019
    188  CG2        5.1890  -13.8540    1.5260 C.3   124  ILE124      0.0019
    189  CD1        6.2110  -10.9530    1.0980 C.3   124  ILE124      0.0001
    190  N         -6.2190   -6.6870   -4.5490 N.3   182  GLU182     -0.1245
    191  CA        -4.8920   -6.1150   -4.3190 C.3   182  GLU182      0.1567
    192  C         -4.3870   -5.4060   -5.5770 C.2   182  GLU182      0.2260
    193  O         -4.8240   -5.7100   -6.6870 O.2   182  GLU182     -0.2867
    194  CB        -3.9050   -7.2030   -3.8810 C.3   182  GLU182      0.0388
    195  CG        -3.7110   -8.3320   -4.8850 C.3   182  GLU182      0.1160
    196  CD        -2.8560   -9.4620   -4.3330 C.2   182  GLU182      0.3649
    197  OE1       -3.0710   -9.8590   -3.1690 O.co2 182  GLU182     -0.2457
    198  OE2       -1.9650   -9.9500   -5.0610 O.co2 182  GLU182     -0.2457
@<TRIPOS>BOND
     1   114   113    2
     2   113   112    1
     3   118   117    1
     4   116   115    1
     5   116   117    1
     6   112   115    1
     7   112   111    1
     8   138   137    1
     9   193   192    2
    10    98    95    1
    11   119   120    1
    12   137   136   ar
    13   137   135   ar
    14    82    81   ar
    15   102   101    2
    16   136   134   ar
    17   135   133   ar
    18   192   191    1
    19   126   124    1
    20   122   121    2
    21    78    77    1
    22    78    79    2
    23   124   123    1
    24   101   100    1
    25    95    94    1
    26    95    96    1
    27   198   196   ar
    28   120   123    1
    29   120   121    1
    30    81    83   ar
    31    81    80    1
    32   123   125    1
    33    94    86   am
    34   195   196    1
    35   195   194    1
    36    84    85    1
    37   134   132   ar
    38   133   132   ar
    39   121   127   am
    40    77    80    1
    41    77    76    1
    42    96    99   am
    43    96    97    2
    44   190   191    1
    45    99   100    1
    46    68    67    2
    47   196   197   ar
    48   191   194    1
    49   132   131    1
    50   100   103    1
    51   147   145   ar
    52   147   149   ar
    53   127   128    1
    54    76    67   am
    55    86    85    1
    56    86    87    2
    57   145   144   ar
    58    85    88    1
    59    67    66    1
    60   128   131    1
    61   128   129    1
    62   103   104    1
    63    69    66    1
    64    69    70    1
    65   104   105   ar
    66   104   106   ar
    67   149   148   ar
    68   105   107   ar
    69   139   129   am
    70   139   140    1
    71   106   108   ar
    72    66    65    1
    73   144   143    1
    74   144   146   ar
    75   129   130    2
    76    88    89    1
    77    91    89   ar
    78    91    93   ar
    79   107   109   ar
    80   143   140    1
    81   108   109   ar
    82    89    90   ar
    83   142   141    2
    84   109   110    1
    85    70    71   ar
    86    70    72   ar
    87    93    92   ar
    88    65    63   am
    89   140   141    1
    90   148   146   ar
    91    90    92   ar
    92    55    54    2
    93    71    73   ar
    94   141   150   am
    95    72    74   ar
    96    63    64    2
    97    63    62    1
    98   163   162    1
    99    62    61    1
   100   150   151    1
   101    73    75   ar
   102    74    75   ar
   103    54    61   am
   104    54    53    1
   105   151   152    1
   106   151   154    1
   107   152   153    2
   108   162   161    1
   109   181   180    1
   110    53    56    1
   111    53    52    1
   112     7     9   ar
   113     7     6   ar
   114    56    57    1
   115   161   160    1
   116     9    10   ar
   117   189   187    1
   118    50    48    1
   119   180   178   ar
   120   180   179   ar
   121     6     5    1
   122     6     8   ar
   123   188   186    1
   124   187   186    1
   125     5     2    1
   126   178   176   ar
   127    10     8   ar
   128    57    58    1
   129    49    51    1
   130    49    48    1
   131    58    59    1
   132    47    46    2
   133   160   159    1
   134   179   177   ar
   135    48    45    1
   136   186   183    1
   137     2     1    1
   138     2     3    1
   139   176   175   ar
   140    45    46    1
   141    45    44    1
   142   177   175   ar
   143   159   156    1
   144    59    60    1
   145   175   174    1
   146    42    41    2
   147    37    35   ar
   148    37    38   ar
   149   169   168    1
   150    35    33   ar
   151    38    36   ar
   152    20    19    1
   153    44    41   am
   154    19    16    1
   155   183   182    1
   156   183   184    1
   157     3    11   am
   158     3     4    2
   159    33    32    1
   160    33    34   ar
   161    41    40    1
   162    14    13    2
   163    11    12    1
   164    32    29    1
   165    36    34   ar
   166   174   171    1
   167    43    40    1
   168   158   157    2
   169   157   156    1
   170   157   164   am
   171   156   155    1
   172   184   185    2
   173   168   165    1
   174   164   165    1
   175    31    30    2
   176   165   166    1
   177    13    12    1
   178    13    15   am
   179    40    39    1
   180    16    15    1
   181    16    17    1
   182    30    29    1
   183    29    28    1
   184   171   170    1
   185   171   172    1
   186    27    21    1
   187    27    26    1
   188    28    23   am
   189   173   172    2
   190   166   167    2
   191    17    21   am
   192    17    18    2
   193    21    22    1
   194    26    25    1
   195    23    22    1
   196    23    24    2
   197    22    25    1
