@<TRIPOS>MOLECULE
tmp/5fpiA00.pdb
 167 166 0 0 0
SMALL
GASTEIGER

@<TRIPOS>ATOM
      1  N        -23.7850   50.9210  -34.6390 N.3    15  LEU15      -0.1231
      2  CA       -24.9480   50.1320  -34.9940 C.3    15  LEU15       0.1693
      3  C        -25.8630   49.8870  -33.8250 C.2    15  LEU15       0.2592
      4  O        -25.4480   49.8990  -32.6360 O.2    15  LEU15      -0.2718
      5  CB       -24.5240   48.7980  -35.6030 C.3    15  LEU15       0.0284
      6  CG       -23.6360   47.9300  -34.7010 C.3    15  LEU15       0.0019
      7  CD1      -24.4150   46.9090  -33.8970 C.3    15  LEU15       0.0001
      8  CD2      -22.5810   47.2070  -35.5120 C.3    15  LEU15       0.0001
      9  N        -27.0960   49.6040  -34.2020 N.am   16  PHE16      -0.1962
     10  CA       -28.1650   49.3210  -33.2930 C.3    16  PHE16       0.1771
     11  C        -28.8750   48.0370  -33.6960 C.2    16  PHE16       0.2619
     12  O        -29.2880   47.8740  -34.8680 O.2    16  PHE16      -0.2715
     13  CB       -29.1760   50.4550  -33.3550 C.3    16  PHE16       0.0574
     14  CG       -28.6020   51.8230  -33.0280 C.ar   16  PHE16      -0.0200
     15  CD1      -27.9830   52.5940  -34.0070 C.ar   16  PHE16      -0.0042
     16  CD2      -28.7140   52.3550  -31.7640 C.ar   16  PHE16      -0.0042
     17  CE1      -27.4600   53.8470  -33.7120 C.ar   16  PHE16      -0.0003
     18  CE2      -28.2060   53.6100  -31.4650 C.ar   16  PHE16      -0.0003
     19  CZ       -27.5690   54.3490  -32.4290 C.ar   16  PHE16      -0.0000
     20  N        -29.0880   47.1490  -32.7290 N.am   17  LEU17      -0.1963
     21  CA       -29.9400   45.9640  -32.9430 C.3    17  LEU17       0.1728
     22  C        -31.1930   46.0490  -32.1540 C.2    17  LEU17       0.2616
     23  O        -31.1320   46.3600  -30.9860 O.2    17  LEU17      -0.2715
     24  CB       -29.2250   44.7200  -32.5020 C.3    17  LEU17       0.0311
     25  CG       -27.9740   44.4850  -33.3220 C.3    17  LEU17       0.0022
     26  CD1      -27.1980   43.4120  -32.6300 C.3    17  LEU17       0.0001
     27  CD2      -28.3170   44.1090  -34.7560 C.3    17  LEU17       0.0001
     28  N        -32.3150   45.7640  -32.8190 N.am   18  ASP18      -0.1971
     29  CA       -33.6360   45.6350  -32.2030 C.3    18  ASP18       0.1709
     30  C        -34.0830   44.1760  -32.3180 C.2    18  ASP18       0.2293
     31  O        -34.2410   43.6630  -33.4180 O.2    18  ASP18      -0.2864
     32  CB       -34.6910   46.4510  -32.9550 C.3    18  ASP18       0.1436
     33  CG       -34.4060   47.9310  -32.9900 C.2    18  ASP18       0.3671
     34  OD1      -33.5270   48.4380  -32.2830 O.co2  18  ASP18      -0.2456
     35  OD2      -35.1280   48.5890  -33.7480 O.co2  18  ASP18      -0.2456
     36  N        -29.6080   48.3990  -37.5630 N.3    45  LYS45      -0.1245
     37  CA       -29.3930   49.7400  -38.1130 C.3    45  LYS45       0.1561
     38  C        -27.9100   50.0180  -37.9900 C.2    45  LYS45       0.2260
     39  O        -27.3960   50.1310  -36.8890 O.2    45  LYS45      -0.2867
     40  CB       -30.2030   50.7400  -37.3620 C.3    45  LYS45       0.0271
     41  CG       -31.7020   50.5850  -37.5530 C.3    45  LYS45       0.0035
     42  CD       -32.4740   51.3750  -36.4880 C.3    45  LYS45       0.0206
     43  CE       -33.8500   50.7880  -36.2090 C.3    45  LYS45       0.1093
     44  NZ       -34.2900   51.1910  -34.8480 N.3    45  LYS45      -0.1314
     45  N        -36.6320   45.0100  -14.0970 N.3   138  LEU138     -0.1245
     46  CA       -37.3340   45.2550  -15.3520 C.3   138  LEU138      0.1561
     47  C        -38.7990   45.5920  -15.1310 C.2   138  LEU138      0.2260
     48  O        -39.4880   44.9450  -14.3440 O.2   138  LEU138     -0.2867
     49  CB       -37.2870   44.0050  -16.2010 C.3   138  LEU138      0.0270
     50  CG       -35.8590   43.5610  -16.5720 C.3   138  LEU138      0.0019
     51  CD1      -35.9290   42.2650  -17.3550 C.3   138  LEU138      0.0001
     52  CD2      -35.1130   44.6180  -17.3850 C.3   138  LEU138      0.0001
     53  N        -46.0710   45.0520  -23.1120 N.3   214  GLU214     -0.1245
     54  CA       -44.7850   45.1830  -23.7420 C.3   214  GLU214      0.1567
     55  C        -43.7140   44.9970  -22.6520 C.2   214  GLU214      0.2260
     56  O        -43.8950   45.4670  -21.5300 O.2   214  GLU214     -0.2867
     57  CB       -44.7170   46.5360  -24.3500 C.3   214  GLU214      0.0388
     58  CG       -43.6880   46.6440  -25.4380 C.3   214  GLU214      0.1160
     59  CD       -43.4350   48.0980  -25.8420 C.2   214  GLU214      0.3649
     60  OE1      -42.5830   48.7900  -25.1840 O.co2 214  GLU214     -0.2457
     61  OE2      -44.1140   48.5300  -26.8100 O.co2 214  GLU214     -0.2457
     62  N        -39.2600   44.5850  -21.8250 N.3   216  PRO216     -0.2116
     63  CA       -37.9210   44.8750  -22.3890 C.3   216  PRO216      0.1372
     64  C        -36.9610   43.7100  -22.3670 C.2   216  PRO216      0.2244
     65  O        -35.8130   43.8670  -21.9870 O.2   216  PRO216     -0.2868
     66  CB       -37.4380   45.9430  -21.4690 C.3   216  PRO216      0.0268
     67  CG       -37.9980   45.5140  -20.1230 C.3   216  PRO216      0.0207
     68  CD       -39.3740   45.0280  -20.4290 C.3   216  PRO216      0.0892
     69  N        -28.1950   38.5990  -27.2010 N.3   224  VAL224     -0.1231
     70  CA       -27.2260   38.8590  -28.2570 C.3   224  VAL224      0.1692
     71  C        -25.9160   38.7930  -27.5410 C.2   224  VAL224      0.2592
     72  O        -25.7420   39.4600  -26.5270 O.2   224  VAL224     -0.2718
     73  CB       -27.4060   40.2620  -28.8840 C.3   224  VAL224      0.0266
     74  CG1      -26.2340   40.6170  -29.8140 C.3   224  VAL224      0.0020
     75  CG2      -28.7400   40.3400  -29.6120 C.3   224  VAL224      0.0020
     76  N        -25.0090   37.9710  -28.0520 N.am  225  ARG225     -0.1966
     77  CA       -23.7020   37.7700  -27.4070 C.3   225  ARG225      0.1729
     78  C        -22.6790   38.7290  -28.0360 C.2   225  ARG225      0.2616
     79  O        -21.9130   39.3700  -27.3250 O.2   225  ARG225     -0.2715
     80  CB       -23.2790   36.2980  -27.4940 C.3   225  ARG225      0.0348
     81  CG       -24.1340   35.2900  -26.7070 C.3   225  ARG225      0.0492
     82  CD       -23.5220   34.9000  -25.3410 C.3   225  ARG225      0.2205
     83  NE       -24.3830   33.9910  -24.5450 N.pl3 225  ARG225     -0.0865
     84  CZ       -25.4030   34.3580  -23.7290 C.cat 225  ARG225      0.5346
     85  NH1      -25.7530   35.6440  -23.5400 N.pl3 225  ARG225      0.1354
     86  NH2      -26.1010   33.4160  -23.0810 N.pl3 225  ARG225      0.1354
     87  N        -22.6930   38.8640  -29.3580 N.am  226  TYR226     -0.1960
     88  CA       -21.7490   39.7540  -30.0150 C.3   226  TYR226      0.1771
     89  C        -22.2700   40.1800  -31.3760 C.2   226  TYR226      0.2619
     90  O        -23.1610   39.5360  -31.9700 O.2   226  TYR226     -0.2715
     91  CB       -20.3510   39.0940  -30.1560 C.3   226  TYR226      0.0574
     92  CG       -20.3210   37.7790  -30.9560 C.ar  226  TYR226     -0.0198
     93  CD1      -20.4710   37.7900  -32.3490 C.ar  226  TYR226     -0.0009
     94  CD2      -20.1180   36.5290  -30.3230 C.ar  226  TYR226     -0.0009
     95  CE1      -20.4570   36.6170  -33.0960 C.ar  226  TYR226      0.0417
     96  CE2      -20.0680   35.3420  -31.0620 C.ar  226  TYR226      0.0417
     97  CZ       -20.2480   35.4010  -32.4460 C.ar  226  TYR226      0.1957
     98  OH       -20.2760   34.2910  -33.2270 O.3   226  TYR226     -0.2866
     99  N        -21.7260   41.3000  -31.8620 N.am  227  LEU227     -0.1977
    100  CA       -21.8310   41.6270  -33.2830 C.3   227  LEU227      0.1596
    101  C        -20.4830   42.1300  -33.6970 C.2   227  LEU227      0.2287
    102  O        -20.0800   43.1630  -33.2580 O.2   227  LEU227     -0.2864
    103  CB       -22.9290   42.6390  -33.6100 C.3   227  LEU227      0.0297
    104  CG       -23.1130   42.5630  -35.1180 C.3   227  LEU227      0.0022
    105  CD1      -24.5440   42.6820  -35.4980 C.3   227  LEU227      0.0001
    106  CD2      -22.2920   43.5820  -35.8740 C.3   227  LEU227      0.0001
    107  N        -21.7530   49.9590  -30.2560 N.3   243  LYS243     -0.1231
    108  CA       -22.7630   48.9280  -30.4170 C.3   243  LYS243      0.1693
    109  C        -23.8840   48.9250  -29.3700 C.2   243  LYS243      0.2592
    110  O        -23.6180   49.0120  -28.1640 O.2   243  LYS243     -0.2718
    111  CB       -22.0710   47.5950  -30.3720 C.3   243  LYS243      0.0285
    112  CG       -21.1590   47.3340  -31.5450 C.3   243  LYS243      0.0035
    113  CD       -20.0640   46.3720  -31.0910 C.3   243  LYS243      0.0206
    114  CE       -19.1650   45.9600  -32.2190 C.3   243  LYS243      0.1093
    115  NZ       -18.2510   44.9530  -31.6610 N.3   243  LYS243     -0.1314
    116  N        -25.1160   48.7480  -29.8490 N.am  244  TRP244     -0.1962
    117  CA       -26.3060   48.8650  -29.0200 C.3   244  TRP244      0.1771
    118  C        -27.2930   47.7830  -29.2860 C.2   244  TRP244      0.2619
    119  O        -27.5720   47.4550  -30.4060 O.2   244  TRP244     -0.2715
    120  CB       -27.0250   50.1560  -29.3490 C.3   244  TRP244      0.0590
    121  CG       -26.2020   51.4030  -29.1150 C.ar  244  TRP244      0.0006
    122  CD1      -25.6130   52.2090  -30.0540 C.ar  244  TRP244      0.0946
    123  CD2      -25.9160   51.9810  -27.8600 C.ar  244  TRP244      0.0152
    124  NE1      -24.9770   53.2410  -29.4440 N.ar  244  TRP244     -0.2442
    125  CE2      -25.1390   53.1170  -28.0960 C.ar  244  TRP244      0.0810
    126  CE3      -26.2410   51.6320  -26.5330 C.ar  244  TRP244      0.0012
    127  CZ2      -24.6810   53.9060  -27.0710 C.ar  244  TRP244      0.0191
    128  CZ3      -25.8380   52.4310  -25.5220 C.ar  244  TRP244      0.0001
    129  CH2      -25.0600   53.5600  -25.7890 C.ar  244  TRP244      0.0015
    130  N        -27.9390   47.2950  -28.2690 N.am  245  VAL245     -0.1963
    131  CA       -29.0620   46.4330  -28.5520 C.3   245  VAL245      0.1727
    132  C        -30.2600   46.7940  -27.6640 C.2   245  VAL245      0.2616
    133  O        -30.0950   47.2660  -26.5190 O.2   245  VAL245     -0.2715
    134  CB       -28.6350   44.9930  -28.3300 C.3   245  VAL245      0.0290
    135  CG1      -28.0650   44.8840  -26.9240 C.3   245  VAL245      0.0023
    136  CG2      -29.7880   44.0140  -28.5440 C.3   245  VAL245      0.0023
    137  N        -31.4600   46.5630  -28.1860 N.am  246  ARG246     -0.1963
    138  CA       -32.6380   46.6040  -27.3570 C.3   246  ARG246      0.1729
    139  C        -33.5860   45.4970  -27.6790 C.2   246  ARG246      0.2616
    140  O        -33.6740   45.0200  -28.8310 O.2   246  ARG246     -0.2715
    141  CB       -33.3590   47.9370  -27.5050 C.3   246  ARG246      0.0348
    142  CG       -34.0220   48.1580  -28.8370 C.3   246  ARG246      0.0492
    143  CD       -34.7940   49.4680  -28.9200 C.3   246  ARG246      0.2205
    144  NE       -35.1710   49.7470  -30.3160 N.pl3 246  ARG246     -0.0865
    145  CZ       -36.0380   50.6680  -30.6800 C.cat 246  ARG246      0.5346
    146  NH1      -36.6100   51.4760  -29.8040 N.pl3 246  ARG246      0.1354
    147  NH2      -36.3270   50.8020  -31.9370 N.pl3 246  ARG246      0.1354
    148  N        -34.3540   45.1540  -26.6510 N.am  247  TYR247     -0.1960
    149  CA       -35.3470   44.1160  -26.7370 C.3   247  TYR247      0.1771
    150  C        -36.7290   44.6630  -26.5080 C.2   247  TYR247      0.2619
    151  O        -36.9630   45.3740  -25.5320 O.2   247  TYR247     -0.2715
    152  CB       -35.0560   43.1230  -25.6400 C.3   247  TYR247      0.0574
    153  CG       -33.7060   42.5130  -25.7490 C.ar  247  TYR247     -0.0198
    154  CD1      -32.6040   43.1080  -25.1410 C.ar  247  TYR247     -0.0009
    155  CD2      -33.5190   41.3280  -26.4630 C.ar  247  TYR247     -0.0009
    156  CE1      -31.3540   42.5220  -25.2050 C.ar  247  TYR247      0.0417
    157  CE2      -32.2650   40.7380  -26.5680 C.ar  247  TYR247      0.0417
    158  CZ       -31.1910   41.3260  -25.9170 C.ar  247  TYR247      0.1957
    159  OH       -29.9750   40.7250  -26.0530 O.3   247  TYR247     -0.2866
    160  N        -37.6500   44.2960  -27.3780 N.am  248  ILE248     -0.1977
    161  CA       -39.0460   44.7020  -27.2500 C.3   248  ILE248      0.1596
    162  C        -39.9070   43.4960  -27.5230 C.2   248  ILE248      0.2287
    163  O        -40.1050   43.0900  -28.7010 O.2   248  ILE248     -0.2864
    164  CB       -39.4590   45.8380  -28.2210 C.3   248  ILE248      0.0276
    165  CG1      -38.4510   46.9450  -28.1990 C.3   248  ILE248      0.0022
    166  CG2      -40.7680   46.4330  -27.7580 C.3   248  ILE248      0.0022
    167  CD1      -38.6090   47.9010  -29.3170 C.3   248  ILE248      0.0001
@<TRIPOS>BOND
     1    37    38    1
     2    37    36    1
     3    37    40    1
     4    38    39    2
     5    41    40    1
     6    41    42    1
     7    42    43    1
     8    43    44    1
     9   106   104    1
    10     5     2    1
    11     5     6    1
    12     8     6    1
    13   105   104    1
    14   104   103    1
    15     2     1    1
    16     2     3    1
    17    12    11    2
    18    27    25    1
    19     6     7    1
    20     9     3   am
    21     9    10    1
    22    15    17   ar
    23    15    14   ar
    24     3     4    2
    25    35    33   ar
    26    17    19   ar
    27   101   100    1
    28   101   102    2
    29    11    10    1
    30    11    20   am
    31   103   100    1
    32    31    30    2
    33    13    10    1
    34    13    14    1
    35    25    26    1
    36    25    24    1
    37   100    99    1
    38    98    97    1
    39    95    97   ar
    40    95    93   ar
    41    14    16   ar
    42    33    32    1
    43    33    34   ar
    44    32    29    1
    45    21    20    1
    46    21    24    1
    47    21    22    1
    48    28    29    1
    49    28    22   am
    50    97    96   ar
    51    19    18   ar
    52    93    92   ar
    53    30    29    1
    54   114   115    1
    55   114   113    1
    56    22    23    2
    57    90    89    2
    58   147   145    1
    59    99    89   am
    60    16    18   ar
    61   112   113    1
    62   112   111    1
    63    89    88    1
    64    96    94   ar
    65    92    94   ar
    66    92    91    1
    67   145   144    2
    68   145   146    1
    69   108   111    1
    70   108   107    1
    71   108   109    1
    72   119   118    2
    73   144   143    1
    74    91    88    1
    75   122   124   ar
    76   122   121   ar
    77    88    87    1
    78   116   109   am
    79   116   117    1
    80    74    73    1
    81    75    73    1
    82   124   125   ar
    83   109   110    2
    84    87    78   am
    85   120   121    1
    86   120   117    1
    87   167   165    1
    88   118   117    1
    89   118   130   am
    90   121   123   ar
    91   143   142    1
    92    73    70    1
    93   142   141    1
    94   140   139    2
    95   163   162    2
    96   131   134    1
    97   131   130    1
    98   131   132    1
    99   136   134    1
   100   134   135    1
   101    70    71    1
   102    70    69    1
   103   164   165    1
   104   164   166    1
   105   164   161    1
   106   137   132   am
   107   137   138    1
   108   125   123   ar
   109   125   127   ar
   110    76    71   am
   111    76    77    1
   112    78    77    1
   113    78    79    2
   114   123   126   ar
   115   139   138    1
   116   139   148   am
   117   132   133    2
   118    71    72    2
   119   162   161    1
   120   141   138    1
   121    80    77    1
   122    80    81    1
   123   160   161    1
   124   160   150   am
   125   127   129   ar
   126    61    59   ar
   127   149   148    1
   128   149   150    1
   129   149   152    1
   130    81    82    1
   131   157   155   ar
   132   157   158   ar
   133   126   128   ar
   134   150   151    2
   135   155   153   ar
   136   159   158    1
   137   158   156   ar
   138    59    58    1
   139    59    60   ar
   140   129   128   ar
   141   153   152    1
   142   153   154   ar
   143    58    57    1
   144    82    83    1
   145   156   154   ar
   146    83    84    2
   147    57    54    1
   148    54    53    1
   149    54    55    1
   150    84    85    1
   151    84    86    1
   152    55    56    2
   153    63    64    1
   154    63    62    1
   155    63    66    1
   156    64    65    2
   157    62    68    1
   158    66    67    1
   159    68    67    1
   160    52    50    1
   161    51    50    1
   162    50    49    1
   163    49    46    1
   164    46    47    1
   165    46    45    1
   166    47    48    2
