@<TRIPOS>MOLECULE
tmp/5fpkA00.pdb
 136 132 0 0 0
SMALL
GASTEIGER

@<TRIPOS>ATOM
      1  N         18.1540   -2.6860   39.9490 N.3    62  ILE62      -0.1231
      2  CA        19.2930   -2.1140   39.2340 C.3    62  ILE62       0.1692
      3  C         18.7480   -1.0300   38.3180 C.2    62  ILE62       0.2592
      4  O         17.7720   -1.2650   37.5980 O.2    62  ILE62      -0.2718
      5  CB        20.0140   -3.2000   38.4080 C.3    62  ILE62       0.0266
      6  CG1       20.5400   -4.3320   39.3010 C.3    62  ILE62       0.0019
      7  CG2       21.1430   -2.5990   37.5680 C.3    62  ILE62       0.0020
      8  CD1       21.5750   -3.8940   40.2820 C.3    62  ILE62       0.0001
      9  N         19.3680    0.1490   38.3400 N.am   63  TRP63      -0.1962
     10  CA        18.8860    1.2900   37.5820 C.3    63  TRP63       0.1771
     11  C         20.0430    1.8960   36.7970 C.2    63  TRP63       0.2619
     12  O         21.0060    2.3790   37.3810 O.2    63  TRP63      -0.2715
     13  CB        18.2730    2.3240   38.5370 C.3    63  TRP63       0.0590
     14  CG        17.5030    3.4580   37.8890 C.ar   63  TRP63       0.0006
     15  CD1       17.8960    4.2630   36.8370 C.ar   63  TRP63       0.0946
     16  CD2       16.2170    3.9390   38.2910 C.ar   63  TRP63       0.0152
     17  NE1       16.9170    5.1870   36.5700 N.ar   63  TRP63      -0.2442
     18  CE2       15.8810    5.0120   37.4480 C.ar   63  TRP63       0.0810
     19  CE3       15.3060    3.5560   39.2790 C.ar   63  TRP63       0.0012
     20  CZ2       14.6710    5.7060   37.5570 C.ar   63  TRP63       0.0191
     21  CZ3       14.1280    4.2380   39.3880 C.ar   63  TRP63       0.0001
     22  CH2       13.8160    5.3020   38.5290 C.ar   63  TRP63       0.0015
     23  N         19.9490    1.8590   35.4700 N.am   64  ILE64      -0.1977
     24  CA        20.9030    2.5010   34.5710 C.3    64  ILE64       0.1596
     25  C         20.2620    3.8090   34.1110 C.2    64  ILE64       0.2287
     26  O         19.2840    3.8050   33.3550 O.2    64  ILE64      -0.2864
     27  CB        21.2980    1.5830   33.4020 C.3    64  ILE64       0.0276
     28  CG1       21.9950    0.3270   33.9270 C.3    64  ILE64       0.0022
     29  CG2       22.1890    2.3370   32.4290 C.3    64  ILE64       0.0022
     30  CD1       22.2610   -0.7460   32.8800 C.3    64  ILE64       0.0001
     31  N         17.1700    9.9410   37.6400 N.3    70  PHE70      -0.1241
     32  CA        16.8290    9.2720   38.8860 C.3    70  PHE70       0.1605
     33  C         16.7570   10.3050   40.0150 C.2    70  PHE70       0.2264
     34  O         17.6690   11.1230   40.1960 O.2    70  PHE70      -0.2867
     35  CB        17.8710    8.2080   39.2320 C.3    70  PHE70       0.0534
     36  CG        17.6120    7.5410   40.5670 C.ar   70  PHE70      -0.0203
     37  CD1       16.5290    6.6950   40.7390 C.ar   70  PHE70      -0.0042
     38  CD2       18.4490    7.7750   41.6560 C.ar   70  PHE70      -0.0042
     39  CE1       16.2520    6.1230   41.9780 C.ar   70  PHE70      -0.0003
     40  CE2       18.1740    7.1940   42.8950 C.ar   70  PHE70      -0.0003
     41  CZ        17.0800    6.3640   43.0420 C.ar   70  PHE70      -0.0000
     42  N         16.1900   10.3010   44.0370 N.3    72  PRO72      -0.2116
     43  CA        15.9460    9.6440   45.3330 C.3    72  PRO72       0.1372
     44  C         14.8150   10.2800   46.1320 C.2    72  PRO72       0.2244
     45  O         14.1280    9.5640   46.8710 O.2    72  PRO72      -0.2868
     46  CB        17.3050    9.7530   46.0480 C.3    72  PRO72       0.0268
     47  CG        18.0200   10.8420   45.3370 C.3    72  PRO72       0.0207
     48  CD        17.5790   10.7680   43.9070 C.3    72  PRO72       0.0892
     49  N         14.4390    5.1810   53.5810 N.3    87  ASP87      -0.1239
     50  CA        15.8600    4.8580   53.5560 C.3    87  ASP87       0.1674
     51  C         16.1080    3.3900   53.2410 C.2    87  ASP87       0.2266
     52  O         17.0340    3.0660   52.4840 O.2    87  ASP87      -0.2867
     53  CB        16.5330    5.3030   54.8590 C.3    87  ASP87       0.1410
     54  CG        16.4430    6.7980   55.0360 C.2    87  ASP87       0.3668
     55  OD1       17.0990    7.5120   54.2380 O.co2  87  ASP87      -0.2456
     56  OD2       15.6720    7.2520   55.9080 O.co2  87  ASP87      -0.2456
     57  N         15.4740    2.9170   49.5080 N.3    90  LEU90      -0.1231
     58  CA        16.5930    3.4350   48.7290 C.3    90  LEU90       0.1693
     59  C         17.7860    2.4860   48.7720 C.2    90  LEU90       0.2591
     60  O         18.5140    2.3590   47.7870 O.2    90  LEU90      -0.2718
     61  CB        16.9820    4.8180   49.2570 C.3    90  LEU90       0.0284
     62  CG        16.1010    5.9800   48.7940 C.3    90  LEU90       0.0019
     63  CD1       16.3940    7.2200   49.5990 C.3    90  LEU90       0.0001
     64  CD2       16.3080    6.2490   47.3050 C.3    90  LEU90       0.0001
     65  N         17.9770    1.8010   49.9020 N.am   91  LYS91      -0.1980
     66  CA        19.1050    0.8980   50.0920 C.3    91  LYS91       0.1596
     67  C         19.1310   -0.2020   49.0360 C.2    91  LYS91       0.2287
     68  O         20.2100   -0.6590   48.6400 O.2    91  LYS91      -0.2864
     69  CB        19.0220    0.2960   51.4950 C.3    91  LYS91       0.0298
     70  CG        20.0350   -0.7590   51.7850 C.3    91  LYS91       0.0038
     71  CD        20.4250   -0.8070   53.2570 C.3    91  LYS91       0.0206
     72  CE        19.2870   -0.4870   54.2020 C.3    91  LYS91       0.1093
     73  NZ        19.7090   -0.5570   55.6410 N.3    91  LYS91      -0.1314
     74  N         18.0190   -0.0470   45.8980 N.3    93  ILE93      -0.1231
     75  CA        18.0950    0.4650   44.5260 C.3    93  ILE93       0.1692
     76  C         19.5570    0.8080   44.2640 C.2    93  ILE93       0.2592
     77  O         20.1410    1.6470   44.9670 O.2    93  ILE93      -0.2718
     78  CB        17.1930    1.6880   44.3200 C.3    93  ILE93       0.0266
     79  CG1       15.7370    1.3260   44.6070 C.3    93  ILE93       0.0019
     80  CG2       17.3500    2.2270   42.9000 C.3    93  ILE93       0.0020
     81  CD1       14.8150    2.5060   44.7500 C.3    93  ILE93       0.0001
     82  N         20.1490    0.1680   43.2670 N.am   94  TYR94      -0.1962
     83  CA        21.5580    0.3370   42.9100 C.3    94  TYR94       0.1771
     84  C         21.6180    1.0430   41.5570 C.2    94  TYR94       0.2619
     85  O         21.1640    0.5010   40.5420 O.2    94  TYR94      -0.2715
     86  CB        22.2510   -1.0220   42.8910 C.3    94  TYR94       0.0574
     87  CG        22.1230   -1.7670   44.1830 C.ar   94  TYR94      -0.0198
     88  CD1       21.0350   -2.6100   44.4300 C.ar   94  TYR94      -0.0009
     89  CD2       23.0570   -1.5820   45.1830 C.ar   94  TYR94      -0.0009
     90  CE1       20.9190   -3.2710   45.6330 C.ar   94  TYR94       0.0417
     91  CE2       22.9490   -2.2280   46.3870 C.ar   94  TYR94       0.0417
     92  CZ        21.8810   -3.0690   46.6100 C.ar   94  TYR94       0.1957
     93  OH        21.7250   -3.7440   47.8120 O.3    94  TYR94      -0.2866
     94  N         22.1170    2.2690   41.5560 N.am   95  VAL95      -0.1963
     95  CA        22.0260    3.1710   40.4120 C.3    95  VAL95       0.1727
     96  C         23.4190    3.4140   39.8340 C.2    95  VAL95       0.2616
     97  O         24.3880    3.6210   40.5720 O.2    95  VAL95      -0.2715
     98  CB        21.3750    4.5220   40.7930 C.3    95  VAL95       0.0290
     99  CG1       21.1570    5.3640   39.5710 C.3    95  VAL95       0.0023
    100  CG2       20.0680    4.3220   41.5520 C.3    95  VAL95       0.0023
    101  N         23.5070    3.4300   38.5030 N.am   96  ALA96      -0.1977
    102  CA        24.7000    3.9030   37.8180 C.3    96  ALA96       0.1597
    103  C         24.2850    4.8510   36.7080 C.2    96  ALA96       0.2287
    104  O         23.2870    4.6170   36.0220 O.2    96  ALA96      -0.2864
    105  CB        25.4970    2.7480   37.2170 C.3    96  ALA96       0.0319
    106  N         27.7470   -1.3540   31.3390 N.3   107  LEU107     -0.1245
    107  CA        27.0320   -1.3880   32.6050 C.3   107  LEU107      0.1561
    108  C         26.1130   -2.5980   32.7030 C.2   107  LEU107      0.2260
    109  O         25.8170   -3.0630   33.7960 O.2   107  LEU107     -0.2867
    110  CB        26.2300   -0.0910   32.7970 C.3   107  LEU107      0.0270
    111  CG        27.0860    1.0870   33.2970 C.3   107  LEU107      0.0019
    112  CD1       26.3410    2.3920   33.2050 C.3   107  LEU107      0.0001
    113  CD2       27.5880    0.8640   34.7030 C.3   107  LEU107      0.0001
    114  N         28.3240   -5.1560   34.1040 N.3   110  GLN110     -0.1231
    115  CA        28.5070   -4.8900   35.5280 C.3   110  GLN110      0.1698
    116  C         27.2540   -5.2650   36.3030 C.2   110  GLN110      0.2592
    117  O         27.3440   -5.7910   37.4200 O.2   110  GLN110     -0.2718
    118  CB        28.8640   -3.4220   35.7400 C.3   110  GLN110      0.0381
    119  CG        30.2060   -3.0390   35.1690 C.3   110  GLN110      0.0905
    120  CD        30.4780   -1.5640   35.2940 C.2   110  GLN110      0.2608
    121  OE1       30.6370   -1.0450   36.3910 O.2   110  GLN110     -0.2717
    122  NE2       30.5650   -0.8840   34.1710 N.am  110  GLN110     -0.0878
    123  N         26.0740   -5.0370   35.7110 N.am  111  ALA111     -0.1980
    124  CA        24.8310   -5.3920   36.3910 C.3   111  ALA111      0.1597
    125  C         24.7930   -6.8710   36.7160 C.2   111  ALA111      0.2287
    126  O         24.2810   -7.2530   37.7700 O.2   111  ALA111     -0.2864
    127  CB        23.6210   -5.0110   35.5370 C.3   111  ALA111      0.0319
    128  N         26.2920   -7.6170   40.0640 N.3   114  LYS114     -0.1245
    129  CA        25.4410   -7.2440   41.1970 C.3   114  LYS114      0.1561
    130  C         24.2850   -8.2280   41.3490 C.2   114  LYS114      0.2260
    131  O         23.9140   -8.6020   42.4680 O.2   114  LYS114     -0.2867
    132  CB        24.9100   -5.8060   41.0160 C.3   114  LYS114      0.0271
    133  CG        24.1970   -5.2820   42.2480 C.3   114  LYS114      0.0035
    134  CD        25.2250   -5.0590   43.3670 C.3   114  LYS114      0.0206
    135  CE        24.6240   -4.5510   44.6380 C.3   114  LYS114      0.1093
    136  NZ        25.6900   -4.4350   45.6880 N.3   114  LYS114     -0.1314
@<TRIPOS>BOND
     1   106   107    1
     2    29    27    1
     3   107   108    1
     4   107   110    1
     5   108   109    2
     6   110   111    1
     7    30    28    1
     8   112   111    1
     9   111   113    1
    10    26    25    2
    11    27    28    1
    12    27    24    1
    13   114   115    1
    14    25    24    1
    15   122   120   am
    16    24    23    1
    17   119   120    1
    18   119   118    1
    19   120   121    2
    20    23    11   am
    21   115   118    1
    22   115   116    1
    23   127   124    1
    24   123   116   am
    25   123   124    1
    26   104   103    2
    27   116   117    2
    28   124   125    1
    29    17    15   ar
    30    17    18   ar
    31   103   102    1
    32   125   126    2
    33    11    12    2
    34    11    10    1
    35    15    14   ar
    36   105   102    1
    37    18    20   ar
    38    18    16   ar
    39    20    22   ar
    40     7     5    1
    41    10     9    1
    42    10    13    1
    43     4     3    2
    44    31    32    1
    45   102   101    1
    46    14    16   ar
    47    14    13    1
    48    16    19   ar
    49     3     9   am
    50     3     2    1
    51     5     2    1
    52     5     6    1
    53   101    96   am
    54    22    21   ar
    55    32    35    1
    56    32    33    1
    57    35    36    1
    58     2     1    1
    59    19    21   ar
    60     6     8    1
    61    99    98    1
    62    96    95    1
    63    96    97    2
    64    33    34    2
    65   128   129    1
    66    95    98    1
    67    95    94    1
    68    85    84    2
    69    36    37   ar
    70    36    38   ar
    71    37    39   ar
    72    98   100    1
    73   132   129    1
    74   132   133    1
    75   129   130    1
    76   130   131    2
    77    94    84   am
    78    84    83    1
    79    38    40   ar
    80    39    41   ar
    81   133   134    1
    82    86    83    1
    83    86    87    1
    84    40    41   ar
    85    80    78    1
    86    83    82    1
    87    82    76   am
    88   134   135    1
    89    48    42    1
    90    48    47    1
    91    42    43    1
    92    87    88   ar
    93    87    89   ar
    94    76    75    1
    95    76    77    2
    96    78    75    1
    97    78    79    1
    98    88    90   ar
    99    75    74    1
   100    79    81    1
   101   135   136    1
   102    89    91   ar
   103    43    46    1
   104    43    44    1
   105    47    46    1
   106    90    92   ar
   107    44    45    2
   108    91    92   ar
   109    92    93    1
   110    64    62    1
   111    60    59    2
   112    68    67    2
   113    58    59    1
   114    58    61    1
   115    58    57    1
   116    59    65   am
   117    62    61    1
   118    62    63    1
   119    67    66    1
   120    65    66    1
   121    66    69    1
   122    69    70    1
   123    70    71    1
   124    52    51    2
   125    51    50    1
   126    71    72    1
   127    50    49    1
   128    50    53    1
   129    72    73    1
   130    55    54   ar
   131    53    54    1
   132    54    56   ar
