@<TRIPOS>MOLECULE
tmp/5fplA00.pdb
 158 152 0 0 0
SMALL
GASTEIGER

@<TRIPOS>ATOM
      1  N         83.8200   57.5110    4.9760 N.3    74  ARG74      -0.1231
      2  CA        83.5380   58.4270    6.0900 C.3    74  ARG74       0.1694
      3  C         83.6700   57.6800    7.4390 C.2    74  ARG74       0.2591
      4  O         84.1260   58.2690    8.4240 O.2    74  ARG74      -0.2718
      5  CB        82.1490   59.0600    5.9040 C.3    74  ARG74       0.0321
      6  CG        81.7930   60.1670    6.8800 C.3    74  ARG74       0.0489
      7  CD        80.3130   60.4810    6.7970 C.3    74  ARG74       0.2205
      8  NE        79.8950   61.4600    7.8020 N.pl3  74  ARG74      -0.0865
      9  CZ        79.8780   62.7750    7.6050 C.cat  74  ARG74       0.5346
     10  NH1       80.2550   63.2840    6.4380 N.pl3  74  ARG74       0.1354
     11  NH2       79.4840   63.5900    8.5730 N.pl3  74  ARG74       0.1354
     12  N         83.3300   56.3640    7.4450 N.am   75  VAL75      -0.1980
     13  CA        83.4400   55.4450    8.5860 C.3    75  VAL75       0.1595
     14  C         83.7670   53.9910    8.1030 C.2    75  VAL75       0.2287
     15  O         83.1310   53.4910    7.1650 O.2    75  VAL75      -0.2864
     16  CB        82.2150   55.5250    9.5560 C.3    75  VAL75       0.0276
     17  CG1       80.9050   55.0930    8.8870 C.3    75  VAL75       0.0022
     18  CG2       82.4620   54.7460   10.8490 C.3    75  VAL75       0.0022
     19  N         94.3820   56.1310   13.6290 N.3   128  TYR128     -0.1241
     20  CA        93.5200   57.1270   14.2370 C.3   128  TYR128      0.1605
     21  C         92.4160   56.4610   15.0420 C.2   128  TYR128      0.2264
     22  O         91.6020   55.7250   14.4700 O.2   128  TYR128     -0.2867
     23  CB        92.9360   58.0620   13.1380 C.3   128  TYR128      0.0534
     24  CG        92.4030   59.4010   13.6170 C.ar  128  TYR128     -0.0201
     25  CD1       92.5550   59.8060   14.9430 C.ar  128  TYR128     -0.0009
     26  CD2       91.7690   60.2750   12.7410 C.ar  128  TYR128     -0.0009
     27  CE1       92.0480   61.0250   15.3940 C.ar  128  TYR128      0.0417
     28  CE2       91.2850   61.5120   13.1750 C.ar  128  TYR128      0.0417
     29  CZ        91.4470   61.8910   14.5000 C.ar  128  TYR128      0.1957
     30  OH        90.9920   63.1080   14.9520 O.3   128  TYR128     -0.2866
     31  N         89.4920   56.9710   15.8490 N.3   130  ALA130     -0.1231
     32  CA        88.4140   57.8440   15.4170 C.3   130  ALA130      0.1694
     33  C         87.0730   57.2180   15.6510 C.2   130  ALA130      0.2592
     34  O         86.9600   55.9920   15.7040 O.2   130  ALA130     -0.2718
     35  CB        88.5910   58.1980   13.9420 C.3   130  ALA130      0.0304
     36  N         86.0600   58.0850   15.8330 N.am  131  ASP131     -0.1974
     37  CA        84.6390   57.7740   16.0700 C.3   131  ASP131      0.1709
     38  C         84.4290   56.6550   17.1080 C.2   131  ASP131      0.2293
     39  O         83.6690   55.7150   16.8840 O.2   131  ASP131     -0.2864
     40  CB        83.8790   57.5000   14.7410 C.3   131  ASP131      0.1436
     41  CG        84.0140   58.6250   13.7210 C.2   131  ASP131      0.3671
     42  OD1       83.6870   59.7880   14.0680 O.co2 131  ASP131     -0.2456
     43  OD2       84.4760   58.3500   12.5860 O.co2 131  ASP131     -0.2456
     44  N         74.2860   58.8020   16.5570 N.3   183  GLY183     -0.1225
     45  CA        75.3450   59.4940   15.8270 C.3   183  GLY183      0.1811
     46  C         75.3010   61.0110   15.9380 C.2   183  GLY183      0.2280
     47  O         76.3180   61.6720   15.6870 O.2   183  GLY183     -0.2866
     48  N         81.4210   61.7020   20.5280 N.3   188  TRP188     -0.1241
     49  CA        82.4030   60.8190   19.9040 C.3   188  TRP188      0.1605
     50  C         83.7620   61.2330   20.3920 C.2   188  TRP188      0.2264
     51  O         83.9850   62.4060   20.6720 O.2   188  TRP188     -0.2867
     52  CB        82.3230   60.8920   18.3700 C.3   188  TRP188      0.0550
     53  CG        80.9870   60.4450   17.8910 C.ar  188  TRP188      0.0003
     54  CD1       79.8630   61.2110   17.7850 C.ar  188  TRP188      0.0946
     55  CD2       80.5700   59.0890   17.6900 C.ar  188  TRP188      0.0152
     56  NE1       78.7840   60.4260   17.4620 N.ar  188  TRP188     -0.2442
     57  CE2       79.1910   59.1160   17.3920 C.ar  188  TRP188      0.0810
     58  CE3       81.2340   57.8510   17.7130 C.ar  188  TRP188      0.0012
     59  CZ2       78.4670   57.9510   17.0900 C.ar  188  TRP188      0.0191
     60  CZ3       80.5260   56.7040   17.4050 C.ar  188  TRP188      0.0001
     61  CH2       79.1550   56.7550   17.1100 C.ar  188  TRP188      0.0015
     62  N         88.0170   61.0980   19.8170 N.3   190  TYR190     -0.1241
     63  CA        89.0880   60.9950   18.8300 C.3   190  TYR190      0.1605
     64  C         90.4350   60.9940   19.5250 C.2   190  TYR190      0.2264
     65  O         90.7790   61.9560   20.2210 O.2   190  TYR190     -0.2867
     66  CB        89.0170   62.1200   17.7960 C.3   190  TYR190      0.0534
     67  CG        87.6610   62.2510   17.1580 C.ar  190  TYR190     -0.0201
     68  CD1       87.2490   61.3710   16.1560 C.ar  190  TYR190     -0.0009
     69  CD2       86.7770   63.2480   17.5580 C.ar  190  TYR190     -0.0009
     70  CE1       85.9800   61.4700   15.5810 C.ar  190  TYR190      0.0417
     71  CE2       85.5000   63.3480   16.9990 C.ar  190  TYR190      0.0417
     72  CZ        85.1110   62.4650   16.0040 C.ar  190  TYR190      0.1957
     73  OH        83.8640   62.5840   15.4480 O.3   190  TYR190     -0.2866
     74  N         91.3430   63.9210    9.2620 N.3   198  PHE198     -0.1241
     75  CA        89.9240   63.9550    8.9210 C.3   198  PHE198      0.1605
     76  C         89.8130   64.6870    7.5940 C.2   198  PHE198      0.2264
     77  O         90.3750   65.7730    7.4280 O.2   198  PHE198     -0.2867
     78  CB        89.0080   64.5350   10.0370 C.3   198  PHE198      0.0534
     79  CG        89.3400   65.8930   10.6270 C.ar  198  PHE198     -0.0203
     80  CD1       90.3850   66.0380   11.5470 C.ar  198  PHE198     -0.0042
     81  CD2       88.5320   66.9960   10.3690 C.ar  198  PHE198     -0.0042
     82  CE1       90.6650   67.2830   12.1300 C.ar  198  PHE198     -0.0003
     83  CE2       88.8080   68.2400   10.9580 C.ar  198  PHE198     -0.0003
     84  CZ        89.8880   68.3820   11.8150 C.ar  198  PHE198     -0.0000
     85  N         84.5620   67.3120    4.7010 N.3   201  HIS201     -0.1241
     86  CA        83.1710   66.8380    4.8510 C.3   201  HIS201      0.1621
     87  C         82.3250   67.9040    5.5330 C.2   201  HIS201      0.2264
     88  O         82.8350   68.8850    6.0780 O.2   201  HIS201     -0.2867
     89  CB        83.1190   65.5270    5.6970 C.3   201  HIS201      0.0745
     90  CG        83.5390   65.7600    7.1200 C.ar  201  HIS201      0.0817
     91  ND1       84.8800   65.9660    7.4530 N.ar  201  HIS201     -0.2268
     92  CD2       82.7820   65.9540    8.2240 C.ar  201  HIS201      0.1154
     93  CE1       84.8960   66.2430    8.7430 C.ar  201  HIS201      0.1986
     94  NE2       83.6570   66.2620    9.2500 N.ar  201  HIS201     -0.2212
     95  N         78.5740   68.0100    8.1750 N.3   203  GLU203     -0.1245
     96  CA        77.8030   67.2030    9.1180 C.3   203  GLU203      0.1567
     97  C         76.5120   66.7300    8.5250 C.2   203  GLU203      0.2260
     98  O         75.9850   67.3400    7.5920 O.2   203  GLU203     -0.2867
     99  CB        77.5840   67.9630   10.4350 C.3   203  GLU203      0.0388
    100  CG        78.8920   68.3910   11.1130 C.3   203  GLU203      0.1160
    101  CD        79.9360   67.2920   11.2010 C.2   203  GLU203      0.3649
    102  OE1       79.6670   66.2460   11.8410 O.co2 203  GLU203     -0.2457
    103  OE2       81.0180   67.4660   10.5940 O.co2 203  GLU203     -0.2457
    104  N         78.6240   71.4200   14.7450 N.3   209  SER209     -0.1217
    105  CA        79.4010   70.4940   15.5580 C.3   209  SER209      0.1889
    106  C         80.2250   71.3300   16.5120 C.2   209  SER209      0.2288
    107  O         80.4960   72.4980   16.2280 O.2   209  SER209     -0.2866
    108  CB        80.2150   69.5000   14.7220 C.3   209  SER209      0.2089
    109  OG        81.4180   70.0000   14.1620 O.3   209  SER209     -0.2183
    110  N         83.6480   70.6710   19.1240 N.3   211  ASN211     -0.1240
    111  CA        84.8130   69.8030   19.4210 C.3   211  ASN211      0.1653
    112  C         85.6410   70.4100   20.5280 C.2   211  ASN211      0.2266
    113  O         86.0590   71.5630   20.4250 O.2   211  ASN211     -0.2867
    114  CB        85.7220   69.6090   18.1470 C.3   211  ASN211      0.1155
    115  CG        86.9860   68.7230   18.2600 C.2   211  ASN211      0.2627
    116  OD1       88.0290   69.0810   18.9050 O.2   211  ASN211     -0.2716
    117  ND2       87.0130   67.6520   17.4210 N.am  211  ASN211     -0.0877
    118  N         95.3600   70.1420   17.3860 N.3   219  LYS219     -0.1245
    119  CA        94.6090   69.6380   16.2620 C.3   219  LYS219      0.1561
    120  C         94.5460   70.8070   15.2550 C.2   219  LYS219      0.2260
    121  O         94.1200   71.9100   15.6230 O.2   219  LYS219     -0.2867
    122  CB        93.2150   69.1730   16.7020 C.3   219  LYS219      0.0271
    123  CG        92.4330   68.4810   15.5850 C.3   219  LYS219      0.0035
    124  CD        90.9990   68.1340   15.9910 C.3   219  LYS219      0.0206
    125  CE        90.8750   67.0180   17.0230 C.3   219  LYS219      0.1093
    126  NZ        91.3180   65.6910   16.5150 N.3   219  LYS219     -0.1314
    127  N         93.0430   72.5490   11.9680 N.3   221  TRP221     -0.1241
    128  CA        91.7670   72.6200   11.2640 C.3   221  TRP221      0.1605
    129  C         91.8310   73.4850   10.0200 C.2   221  TRP221      0.2264
    130  O         92.4840   74.5240   10.0360 O.2   221  TRP221     -0.2867
    131  CB        90.7280   73.2780   12.1910 C.3   221  TRP221      0.0550
    132  CG        90.2900   72.4350   13.3460 C.ar  221  TRP221      0.0003
    133  CD1       90.9830   72.1670   14.4920 C.ar  221  TRP221      0.0946
    134  CD2       89.0260   71.7660   13.4700 C.ar  221  TRP221      0.0152
    135  NE1       90.2550   71.3170   15.2940 N.ar  221  TRP221     -0.2442
    136  CE2       89.0380   71.0730   14.6990 C.ar  221  TRP221      0.0810
    137  CE3       87.8940   71.6520   12.6330 C.ar  221  TRP221      0.0012
    138  CZ2       87.9320   70.3320   15.1500 C.ar  221  TRP221      0.0191
    139  CZ3       86.8000   70.9330   13.0870 C.ar  221  TRP221      0.0001
    140  CH2       86.8270   70.2810   14.3270 C.ar  221  TRP221      0.0015
    141  N         84.9230   71.1300    6.4840 N.3   289  HIS289     -0.1241
    142  CA        86.0840   71.1070    7.3600 C.3   289  HIS289      0.1621
    143  C         86.9170   69.8410    7.1700 C.2   289  HIS289      0.2264
    144  O         86.4180   68.8100    6.7540 O.2   289  HIS289     -0.2867
    145  CB        85.7190   71.3640    8.8670 C.3   289  HIS289      0.0745
    146  CG        84.6270   70.4820    9.4180 C.ar  289  HIS289      0.0817
    147  ND1       83.2870   70.7180    9.1200 N.ar  289  HIS289     -0.2268
    148  CD2       84.7070   69.4160   10.2460 C.ar  289  HIS289      0.1154
    149  CE1       82.6040   69.7550    9.7230 C.ar  289  HIS289      0.1986
    150  NE2       83.4040   68.9510   10.4300 N.ar  289  HIS289     -0.2212
    151  N         77.3250   66.7480   17.6350 N.3   303  ASN303     -0.1240
    152  CA        76.5710   67.5710   16.6840 C.3   303  ASN303      0.1653
    153  C         75.4520   68.2120   17.4450 C.2   303  ASN303      0.2266
    154  O         75.0800   67.7060   18.4970 O.2   303  ASN303     -0.2867
    155  CB        75.9610   66.7160   15.5550 C.3   303  ASN303      0.1155
    156  CG        76.9820   66.0910   14.6740 C.2   303  ASN303      0.2627
    157  OD1       77.3810   64.9430   14.8660 O.2   303  ASN303     -0.2716
    158  ND2       77.4940   66.8610   13.7500 N.am  303  ASN303     -0.0877
@<TRIPOS>BOND
     1    85    86    1
     2    86    87    1
     3    86    89    1
     4     1     2    1
     5    87    88    2
     6    89    90    1
     7     5     2    1
     8     5     6    1
     9     2     3    1
    10    10     9    1
    11   141   142    1
    12   144   143    2
    13     7     6    1
    14     7     8    1
    15    90    91   ar
    16    90    92   ar
    17    15    14    2
    18   143   142    1
    19   142   145    1
    20    77    76    2
    21     3    12   am
    22     3     4    2
    23    12    13    1
    24    91    93   ar
    25    98    97    2
    26    76    75    1
    27     9     8    2
    28     9    11    1
    29    14    13    1
    30    95    96    1
    31    92    94   ar
    32    97    96    1
    33    13    16    1
    34    93    94   ar
    35   145   146    1
    36    17    16    1
    37    75    74    1
    38    75    78    1
    39    96    99    1
    40   147   146   ar
    41   147   149   ar
    42   146   148   ar
    43    16    18    1
    44   149   150   ar
    45   129   130    2
    46   129   128    1
    47    78    79    1
    48   148   150   ar
    49    81    79   ar
    50    81    83   ar
    51    99   100    1
    52   103   101   ar
    53    79    80   ar
    54    83    84   ar
    55   100   101    1
    56   101   102   ar
    57   128   127    1
    58   128   131    1
    59    80    82   ar
    60    84    82   ar
    61   131   132    1
    62    43    41   ar
    63   137   139   ar
    64   137   134   ar
    65    26    28   ar
    66    26    24   ar
    67   139   140   ar
    68    23    24    1
    69    23    20    1
    70    28    29   ar
    71   132   134   ar
    72   132   133   ar
    73   134   136   ar
    74    24    25   ar
    75    19    20    1
    76    41    42   ar
    77    41    40    1
    78   158   156   am
    79    35    32    1
    80   109   108    1
    81    20    21    1
    82   140   138   ar
    83    22    21    2
    84   133   135   ar
    85    29    30    1
    86    29    27   ar
    87   156   157    2
    88   156   155    1
    89   136   138   ar
    90   136   135   ar
    91   108   105    1
    92    40    37    1
    93   104   105    1
    94    25    27   ar
    95   120   121    2
    96   120   119    1
    97    32    33    1
    98    32    31    1
    99    73    72    1
   100   155   152    1
   101   105   106    1
   102    70    72   ar
   103    70    68   ar
   104   123   124    1
   105   123   122    1
   106    33    34    2
   107    33    36   am
   108    47    46    2
   109    45    46    1
   110    45    44    1
   111    36    37    1
   112   124   125    1
   113    72    71   ar
   114    37    38    1
   115    68    67   ar
   116   107   106    2
   117   119   122    1
   118   119   118    1
   119   126   125    1
   120   152   153    1
   121   152   151    1
   122    39    38    2
   123    71    69   ar
   124    59    61   ar
   125    59    57   ar
   126    61    60   ar
   127    67    69   ar
   128    67    66    1
   129    57    56   ar
   130    57    55   ar
   131    60    58   ar
   132   117   115   am
   133   153   154    2
   134    56    54   ar
   135    55    58   ar
   136    55    53   ar
   137    54    53   ar
   138    66    63    1
   139    53    52    1
   140   114   115    1
   141   114   111    1
   142   115   116    2
   143    52    49    1
   144    63    64    1
   145    63    62    1
   146   110   111    1
   147   111   112    1
   148    64    65    2
   149    49    50    1
   150    49    48    1
   151    50    51    2
   152   113   112    2
