@<TRIPOS>MOLECULE
tmp/5fpoA01.pdb
 87 83 0 0 0
SMALL
GASTEIGER

@<TRIPOS>ATOM
      1  N         12.5390   21.7700   35.4750 N.3    14  ASN14      -0.1240
      2  CA        13.0170   22.3160   34.1980 C.3    14  ASN14       0.1653
      3  C         14.1830   23.2600   34.3810 C.2    14  ASN14       0.2266
      4  O         15.1290   23.2090   33.5950 O.2    14  ASN14      -0.2867
      5  CB        11.9060   22.9940   33.4160 C.3    14  ASN14       0.1155
      6  CG        10.9400   22.0260   32.8050 C.2    14  ASN14       0.2627
      7  OD1       11.2810   20.8940   32.4450 O.2    14  ASN14      -0.2716
      8  ND2        9.7160   22.4490   32.6790 N.am   14  ASN14      -0.0877
      9  N         17.2270   20.9760   35.5560 N.3    17  SER17      -0.1202
     10  CA        17.6980   20.1550   34.4390 C.3    17  SER17       0.2020
     11  C         18.4650   21.0190   33.4240 C.2    17  SER17       0.2618
     12  O         19.5020   20.5830   32.9340 O.2    17  SER17      -0.2717
     13  CB        16.5370   19.4460   33.7570 C.3    17  SER17       0.2103
     14  OG        16.9810   18.8750   32.5350 O.3    17  SER17      -0.2182
     15  N         17.9600   22.2410   33.1200 N.am   18  TYR18      -0.1975
     16  CA        18.6830   23.1610   32.2300 C.3    18  TYR18       0.1639
     17  C         20.0650   23.5030   32.8060 C.2    18  TYR18       0.2290
     18  O         21.0830   23.3910   32.1090 O.2    18  TYR18      -0.2864
     19  CB        17.8500   24.4340   31.9480 C.3    18  TYR18       0.0560
     20  CG        18.4530   25.3190   30.8820 C.ar   18  TYR18      -0.0198
     21  CD1       18.1320   25.1420   29.5380 C.ar   18  TYR18      -0.0009
     22  CD2       19.3500   26.3350   31.2130 C.ar   18  TYR18      -0.0009
     23  CE1       18.7010   25.9440   28.5480 C.ar   18  TYR18       0.0417
     24  CE2       19.9220   27.1450   30.2340 C.ar   18  TYR18       0.0417
     25  CZ        19.5950   26.9450   28.9010 C.ar   18  TYR18       0.1957
     26  OH        20.1430   27.7430   27.9310 O.3    18  TYR18      -0.2866
     27  N         22.4880   21.6350   30.4600 N.3    22  VAL22      -0.1245
     28  CA        22.7350   22.6270   29.4100 C.3    22  VAL22       0.1561
     29  C         23.8870   23.5390   29.8530 C.2    22  VAL22       0.2260
     30  O         24.8620   23.6550   29.1200 O.2    22  VAL22      -0.2867
     31  CB        21.4620   23.3740   28.9190 C.3    22  VAL22       0.0252
     32  CG1       21.7660   24.2380   27.6870 C.3    22  VAL22       0.0019
     33  CG2       20.3240   22.3920   28.6030 C.3    22  VAL22       0.0019
     34  N         11.7540   12.2360   30.6950 N.3    59  ARG59      -0.1245
     35  CA        13.2090   11.9160   30.6710 C.3    59  ARG59       0.1563
     36  C         13.6040   10.5320   31.2090 C.2    59  ARG59       0.2260
     37  O         14.7060   10.0420   30.8940 O.2    59  ARG59      -0.2867
     38  CB        14.0500   12.9860   31.3980 C.3    59  ARG59       0.0307
     39  CG        13.7190   14.4420   31.0360 C.3    59  ARG59       0.0489
     40  CD        13.7620   14.6900   29.5320 C.3    59  ARG59       0.2205
     41  NE        13.9840   16.0970   29.2310 N.pl3  59  ARG59      -0.0865
     42  CZ        14.3530   16.5610   28.0420 C.cat  59  ARG59       0.5346
     43  NH1       14.5360   15.7270   27.0210 N.pl3  59  ARG59       0.1354
     44  NH2       14.5460   17.8590   27.8630 N.pl3  59  ARG59       0.1354
     45  N         18.4670   15.0820   28.1410 N.3   148  HIS148     -0.1226
     46  CA        18.0700   16.3450   28.7480 C.3   148  HIS148      0.1752
     47  C         18.5080   17.5590   27.9220 C.2   148  HIS148      0.2595
     48  O         17.8520   18.5800   27.9950 O.2   148  HIS148     -0.2718
     49  CB        18.6620   16.4460   30.1490 C.3   148  HIS148      0.0759
     50  CG        17.9880   15.6060   31.1900 C.ar  148  HIS148      0.0818
     51  ND1       17.0720   16.1540   32.0680 N.ar  148  HIS148     -0.2268
     52  CD2       18.1360   14.2890   31.4720 C.ar  148  HIS148      0.1154
     53  CE1       16.6940   15.1630   32.8570 C.ar  148  HIS148      0.1986
     54  NE2       17.3020   14.0180   32.5320 N.ar  148  HIS148     -0.2212
     55  N         19.6040   17.4470   27.1410 N.am  149  ALA149     -0.1980
     56  CA        20.1210   18.5610   26.3180 C.3   149  ALA149      0.1597
     57  C         19.1790   18.8800   25.1330 C.2   149  ALA149      0.2287
     58  O         19.3110   19.9390   24.5150 O.2   149  ALA149     -0.2864
     59  CB        21.5500   18.2540   25.8110 C.3   149  ALA149      0.0319
     60  N         15.5550   19.9630   24.0800 N.3   151  PRO151     -0.2102
     61  CA        14.3590   20.5280   24.7190 C.3   151  PRO151      0.1504
     62  C         13.1170   19.7820   24.2370 C.2   151  PRO151      0.2576
     63  O         12.9930   19.4970   23.0520 O.2   151  PRO151     -0.2718
     64  CB        14.3900   22.0160   24.3080 C.3   151  PRO151      0.0282
     65  CG        15.1190   22.0400   23.0050 C.3   151  PRO151      0.0208
     66  CD        16.1140   20.8680   23.0370 C.3   151  PRO151      0.0893
     67  N         12.2110   19.4430   25.1520 N.am  152  LEU152     -0.1966
     68  CA        10.9140   18.8650   24.7800 C.3   152  LEU152      0.1728
     69  C          9.9840   19.9470   24.2380 C.2   152  LEU152      0.2616
     70  O          9.0580   19.6570   23.4760 O.2   152  LEU152     -0.2715
     71  CB        10.2760   18.1600   25.9840 C.3   152  LEU152      0.0311
     72  CG        11.0390   16.9640   26.5750 C.3   152  LEU152      0.0022
     73  CD1       10.3830   16.4730   27.8520 C.3   152  LEU152      0.0001
     74  CD2       11.3010   15.8380   25.5210 C.3   152  LEU152      0.0001
     75  N         10.2380   21.2070   24.6250 N.am  153  LYS153     -0.1977
     76  CA         9.4220   22.3470   24.2050 C.3   153  LYS153      0.1596
     77  C         10.3380   23.5660   24.1000 C.2   153  LYS153      0.2287
     78  O         11.0030   23.9350   25.0630 O.2   153  LYS153     -0.2864
     79  CB         8.2700   22.6090   25.2020 C.3   153  LYS153      0.0298
     80  CG         7.4140   23.8220   24.8640 C.3   153  LYS153      0.0038
     81  CD         6.2370   24.0100   25.8730 C.3   153  LYS153      0.0206
     82  CE         5.4720   25.2910   25.6370 C.3   153  LYS153      0.1093
     83  NZ         4.8400   25.7730   26.8950 N.3   153  LYS153     -0.1314
     84  N         16.2510   27.5390   23.3540 N.3   240  GLY240     -0.1225
     85  CA        16.3260   26.4560   24.3260 C.3   240  GLY240      0.1811
     86  C         17.2120   25.2920   23.9260 C.2   240  GLY240      0.2280
     87  O         17.2090   24.2750   24.6180 O.2   240  GLY240     -0.2866
@<TRIPOS>BOND
     1    65    66    1
     2    65    64    1
     3    66    60    1
     4    63    62    2
     5    84    85    1
     6    70    69    2
     7    86    85    1
     8    86    87    2
     9    60    61    1
    10    77    76    1
    11    77    78    2
    12    76    75    1
    13    76    79    1
    14    62    61    1
    15    62    67   am
    16    69    75   am
    17    69    68    1
    18    64    61    1
    19    58    57    2
    20    68    67    1
    21    68    71    1
    22    80    79    1
    23    80    81    1
    24    57    56    1
    25    74    72    1
    26    82    81    1
    27    82    83    1
    28    59    56    1
    29    71    72    1
    30    56    55    1
    31    72    73    1
    32    43    42    1
    33    55    47   am
    34    32    31    1
    35    44    42    1
    36    47    48    2
    37    47    46    1
    38    26    25    1
    39    42    41    2
    40    45    46    1
    41    23    25   ar
    42    23    21   ar
    43    33    31    1
    44    46    49    1
    45    25    24   ar
    46    31    28    1
    47    30    29    2
    48    41    40    1
    49    28    29    1
    50    28    27    1
    51    40    39    1
    52    21    20   ar
    53    49    50    1
    54    24    22   ar
    55    35    34    1
    56    35    36    1
    57    35    38    1
    58    20    22   ar
    59    20    19    1
    60    37    36    2
    61    39    38    1
    62    50    52   ar
    63    50    51   ar
    64    52    54   ar
    65    19    16    1
    66    51    53   ar
    67    18    17    2
    68    16    17    1
    69    16    15    1
    70     7     6    2
    71    54    53   ar
    72    14    13    1
    73     8     6   am
    74     6     5    1
    75    12    11    2
    76    15    11   am
    77     5     2    1
    78    11    10    1
    79     4     3    2
    80    13    10    1
    81     2     3    1
    82     2     1    1
    83    10     9    1
