@<TRIPOS>MOLECULE
tmp/5fpoA00.pdb
 93 87 0 0 0
SMALL
GASTEIGER

@<TRIPOS>ATOM
      1  N         23.0830   17.3580    4.8280 N.3    78  LEU78      -0.1245
      2  CA        24.2640   17.6210    3.9930 C.3    78  LEU78       0.1561
      3  C         25.3780   16.5760    4.2080 C.2    78  LEU78       0.2260
      4  O         25.5460   16.0500    5.3090 O.2    78  LEU78      -0.2867
      5  CB        24.8440   19.0260    4.2960 C.3    78  LEU78       0.0270
      6  CG        23.9020   20.2180    4.5730 C.3    78  LEU78       0.0019
      7  CD1       24.7110   21.4750    4.8680 C.3    78  LEU78       0.0001
      8  CD2       22.9980   20.5130    3.3900 C.3    78  LEU78       0.0001
      9  N         29.4910   16.5980    3.9550 N.3    80  LEU80      -0.1245
     10  CA        30.5780   17.6150    3.8140 C.3    80  LEU80       0.1561
     11  C         31.8000   17.0290    3.1440 C.2    80  LEU80       0.2260
     12  O         32.1830   15.9100    3.4610 O.2    80  LEU80      -0.2867
     13  CB        31.0090   18.1730    5.1870 C.3    80  LEU80       0.0270
     14  CG        29.9390   18.8790    6.0250 C.3    80  LEU80       0.0019
     15  CD1       30.4650   19.2150    7.3950 C.3    80  LEU80       0.0001
     16  CD2       29.3410   20.1040    5.2890 C.3    80  LEU80       0.0001
     17  N         33.8570   25.4420   13.8560 N.3   108  GLU108     -0.1231
     18  CA        33.2240   24.6760   14.9320 C.3   108  GLU108      0.1699
     19  C         33.9100   23.3700   15.1090 C.2   108  GLU108      0.2592
     20  O         34.4660   22.8100   14.1630 O.2   108  GLU108     -0.2718
     21  CB        31.7340   24.2420   14.5850 C.3   108  GLU108      0.0402
     22  CG        30.8070   25.2230   13.9350 C.3   108  GLU108      0.1161
     23  CD        29.6300   24.4520   13.3580 C.2   108  GLU108      0.3649
     24  OE1       28.8360   23.9090   14.1550 O.co2 108  GLU108     -0.2457
     25  OE2       29.5550   24.3090   12.1150 O.co2 108  GLU108     -0.2457
     26  N         33.8230   22.8330   16.3200 N.am  109  LEU109     -0.1966
     27  CA        34.3610   21.4860   16.5980 C.3   109  LEU109      0.1728
     28  C         33.4370   20.4000   15.9860 C.2   109  LEU109      0.2616
     29  O         32.2140   20.4330   16.1620 O.2   109  LEU109     -0.2715
     30  CB        34.4780   21.3010   18.1230 C.3   109  LEU109      0.0311
     31  CG        35.3300   22.3230   18.8940 C.3   109  LEU109      0.0022
     32  CD1       35.3110   21.9750   20.4280 C.3   109  LEU109      0.0001
     33  CD2       36.7880   22.3720   18.3340 C.3   109  LEU109      0.0001
     34  N         34.0120   19.4510   15.2550 N.am  110  LYS110     -0.1963
     35  CA        33.2020   18.4010   14.7000 C.3   110  LYS110      0.1728
     36  C         33.1540   17.2640   15.6950 C.2   110  LYS110      0.2616
     37  O         34.1210   16.4940   15.8350 O.2   110  LYS110     -0.2715
     38  CB        33.7690   17.9530   13.3430 C.3   110  LYS110      0.0311
     39  CG        32.8100   17.0590   12.5740 C.3   110  LYS110      0.0038
     40  CD        33.5140   16.5560   11.3200 C.3   110  LYS110      0.0206
     41  CE        32.5790   15.7730   10.4280 C.3   110  LYS110      0.1093
     42  NZ        32.5350   14.3400   10.8010 N.3   110  LYS110     -0.1314
     43  N         32.0300   17.1570   16.3950 N.am  111  ILE111     -0.1977
     44  CA        31.8410   16.1770   17.4710 C.3   111  ILE111      0.1596
     45  C         31.8320   14.8020   16.8300 C.2   111  ILE111      0.2287
     46  O         31.1820   14.6530   15.7930 O.2   111  ILE111     -0.2864
     47  CB        30.4600   16.4830   18.1430 C.3   111  ILE111      0.0276
     48  CG1       30.2980   18.0110   18.4850 C.3   111  ILE111      0.0022
     49  CG2       30.1830   15.5570   19.3350 C.3   111  ILE111      0.0022
     50  CD1       31.3140   18.6550   19.4060 C.3   111  ILE111      0.0001
     51  N         24.3700   16.4770   16.7740 N.3   165  GLU165     -0.1245
     52  CA        25.2690   15.3390   17.0100 C.3   165  GLU165      0.1567
     53  C         24.9820   14.8330   18.3910 C.2   165  GLU165      0.2260
     54  O         25.2410   15.5530   19.3480 O.2   165  GLU165     -0.2867
     55  CB        26.7580   15.7480   16.8720 C.3   165  GLU165      0.0388
     56  CG        27.1500   15.9650   15.4250 C.3   165  GLU165      0.1160
     57  CD        27.4860   14.7150   14.6320 C.2   165  GLU165      0.3649
     58  OE1       27.9690   13.7400   15.2400 O.co2 165  GLU165     -0.2457
     59  OE2       27.3530   14.7390   13.3900 O.co2 165  GLU165     -0.2457
     60  N         23.8450   21.9480   15.5070 N.3   216  TYR216     -0.1227
     61  CA        24.7390   22.7140   14.6400 C.3   216  TYR216      0.1736
     62  C         24.0320   23.4150   13.4820 C.2   216  TYR216      0.2596
     63  O         24.6360   24.2670   12.8530 O.2   216  TYR216     -0.2718
     64  CB        25.8910   21.8280   14.1280 C.3   216  TYR216      0.0548
     65  CG        25.4440   20.6450   13.2900 C.ar  216  TYR216     -0.0200
     66  CD1       25.1890   20.7830   11.9270 C.ar  216  TYR216     -0.0009
     67  CD2       25.2780   19.3880   13.8590 C.ar  216  TYR216     -0.0009
     68  CE1       24.7850   19.6980   11.1500 C.ar  216  TYR216      0.0417
     69  CE2       24.8680   18.2960   13.0920 C.ar  216  TYR216      0.0417
     70  CZ        24.6380   18.4530   11.7340 C.ar  216  TYR216      0.1957
     71  OH        24.2280   17.3790   10.9820 O.3   216  TYR216     -0.2866
     72  N         22.7600   23.0780   13.1910 N.am  217  SER217     -0.1952
     73  CA        22.0810   23.7740   12.0930 C.3   217  SER217      0.1924
     74  C         20.5830   23.6020   12.1630 C.2   217  SER217      0.2314
     75  O         20.0680   22.8640   13.0100 O.2   217  SER217     -0.2863
     76  CB        22.5790   23.2690   10.7340 C.3   217  SER217      0.2116
     77  OG        22.2380   24.1940    9.7140 O.3   217  SER217     -0.2180
     78  N         34.7450   21.8270   11.5440 N.3   278  VAL278     -0.1245
     79  CA        33.9710   22.2000   10.3630 C.3   278  VAL278      0.1561
     80  C         34.1160   23.7320   10.1530 C.2   278  VAL278      0.2260
     81  O         33.9290   24.5110   11.0890 O.2   278  VAL278     -0.2867
     82  CB        32.4750   21.7610   10.4610 C.3   278  VAL278      0.0252
     83  CG1       31.6800   22.3030    9.2460 C.3   278  VAL278      0.0019
     84  CG2       32.3470   20.2210   10.5340 C.3   278  VAL278      0.0019
     85  N         32.8090   27.0120    7.7550 N.3   280  LYS280     -0.1245
     86  CA        31.6820   27.3630    6.8720 C.3   280  LYS280      0.1561
     87  C         31.7570   28.8560    6.5810 C.2   280  LYS280      0.2260
     88  O         32.1270   29.6260    7.4610 O.2   280  LYS280     -0.2867
     89  CB        30.2990   27.0940    7.5110 C.3   280  LYS280      0.0271
     90  CG        29.9630   25.6430    7.7690 C.3   280  LYS280      0.0035
     91  CD        28.6900   25.5340    8.6270 C.3   280  LYS280      0.0206
     92  CE        28.1950   24.1150    8.5880 C.3   280  LYS280      0.1093
     93  NZ        26.9430   23.9500    9.3640 N.3   280  LYS280     -0.1314
@<TRIPOS>BOND
     1    11    12    2
     2    11    10    1
     3     8     6    1
     4    10     9    1
     5    10    13    1
     6     2     3    1
     7     2     5    1
     8     2     1    1
     9     3     4    2
    10     5     6    1
    11     6     7    1
    12    13    14    1
    13    16    14    1
    14    14    15    1
    15    87    86    1
    16    87    88    2
    17    86    89    1
    18    86    85    1
    19    89    90    1
    20    90    91    1
    21    92    91    1
    22    92    93    1
    23    83    82    1
    24    77    76    1
    25    80    79    1
    26    80    81    2
    27    79    82    1
    28    79    78    1
    29    41    42    1
    30    41    40    1
    31    82    84    1
    32    76    73    1
    33    71    70    1
    34    68    70   ar
    35    68    66   ar
    36    40    39    1
    37    70    69   ar
    38    66    65   ar
    39    73    74    1
    40    73    72    1
    41    25    23   ar
    42    74    75    2
    43    39    38    1
    44    63    62    2
    45    69    67   ar
    46    72    62   am
    47    65    67   ar
    48    65    64    1
    49    38    35    1
    50    23    22    1
    51    23    24   ar
    52    59    57   ar
    53    62    61    1
    54    17    18    1
    55    22    21    1
    56    64    61    1
    57    20    19    2
    58    21    18    1
    59    57    58   ar
    60    57    56    1
    61    61    60    1
    62    35    34    1
    63    35    36    1
    64    18    19    1
    65    19    26   am
    66    34    28   am
    67    56    55    1
    68    36    37    2
    69    36    43   am
    70    46    45    2
    71    28    29    2
    72    28    27    1
    73    26    27    1
    74    43    44    1
    75    27    30    1
    76    51    52    1
    77    45    44    1
    78    55    52    1
    79    52    53    1
    80    44    47    1
    81    30    31    1
    82    47    48    1
    83    47    49    1
    84    33    31    1
    85    53    54    2
    86    48    50    1
    87    31    32    1
