@<TRIPOS>MOLECULE
tmp/5fpsA00.pdb
 72 71 0 0 0
SMALL
GASTEIGER

@<TRIPOS>ATOM
      1  N         -5.9060   31.5940  -24.5020 N.3   217  PRO217     -0.2102
      2  CA        -4.6720   32.1510  -23.9080 C.3   217  PRO217      0.1504
      3  C         -4.4230   31.6890  -22.4550 C.2   217  PRO217      0.2576
      4  O         -5.3480   31.1850  -21.8030 O.2   217  PRO217     -0.2718
      5  CB        -4.9010   33.6640  -23.9910 C.3   217  PRO217      0.0282
      6  CG        -5.9860   33.8430  -25.0040 C.3   217  PRO217      0.0208
      7  CD        -6.8680   32.6650  -24.8170 C.3   217  PRO217      0.0893
      8  N         -3.1750   31.8500  -21.9410 N.am  218  THR218     -0.1939
      9  CA        -2.8860   31.4960  -20.5350 C.3   218  THR218      0.2028
     10  C         -3.5950   32.4170  -19.5790 C.2   218  THR218      0.2643
     11  O         -3.5770   33.6480  -19.7670 O.2   218  THR218     -0.2714
     12  CB        -1.3930   31.4700  -20.1640 C.3   218  THR218      0.1808
     13  OG1       -0.5420   31.4990  -21.3180 O.3   218  THR218     -0.2208
     14  CG2       -1.0550   30.2870  -19.2610 C.3   218  THR218      0.0379
     15  N         -4.2030   31.8090  -18.5570 N.am  219  GLY219     -0.1939
     16  CA        -4.9180   32.5330  -17.5110 C.3   219  GLY219      0.2014
     17  C         -6.3360   32.9270  -17.8840 C.2   219  GLY219      0.2640
     18  O         -6.8420   33.9440  -17.3960 O.2   219  GLY219     -0.2714
     19  N         -6.9910   32.1390  -18.7430 N.am  220  SER220     -0.1935
     20  CA        -8.3540   32.4380  -19.1780 C.3   220  SER220      0.2055
     21  C         -9.3740   31.3550  -18.7450 C.2   220  SER220      0.2644
     22  O        -10.5220   31.3710  -19.2150 O.2   220  SER220     -0.2714
     23  CB        -8.4070   32.7350  -20.6800 C.3   220  SER220      0.2130
     24  OG        -7.8840   31.6890  -21.4780 O.3   220  SER220     -0.2179
     25  N         -8.9260   30.4580  -17.8520 N.am  221  GLY221     -0.1939
     26  CA        -9.6950   29.4180  -17.1830 C.3   221  GLY221      0.2014
     27  C        -10.2780   28.3180  -18.0410 C.2   221  GLY221      0.2639
     28  O        -11.3870   27.8470  -17.7620 O.2   221  GLY221     -0.2714
     29  N         -9.5490   27.8890  -19.0840 N.am  222  LYS222     -0.1963
     30  CA        -9.9590   26.7950  -19.9800 C.3   222  LYS222      0.1728
     31  C        -10.3740   25.4900  -19.2540 C.2   222  LYS222      0.2617
     32  O        -11.1930   24.7310  -19.8000 O.2   222  LYS222     -0.2715
     33  CB        -8.9030   26.4930  -21.0750 C.3   222  LYS222      0.0311
     34  CG        -7.5410   25.9970  -20.6040 C.3   222  LYS222      0.0038
     35  CD        -6.7920   25.3210  -21.7760 C.3   222  LYS222      0.0206
     36  CE        -5.4210   24.7270  -21.4940 C.3   222  LYS222      0.1093
     37  NZ        -5.3820   23.9140  -20.2500 N.3   222  LYS222     -0.1314
     38  N         -9.8210   25.2390  -18.0320 N.am  223  SER223     -0.1936
     39  CA       -10.0640   23.9910  -17.3060 C.3   223  SER223      0.2055
     40  C        -10.9520   24.1710  -16.0510 C.2   223  SER223      0.2643
     41  O        -11.2740   23.1970  -15.3840 O.2   223  SER223     -0.2714
     42  CB        -8.7560   23.2760  -16.9850 C.3   223  SER223      0.2130
     43  OG        -7.6260   23.7130  -17.7360 O.3   223  SER223     -0.2179
     44  N        -11.3700   25.3910  -15.7420 N.am  224  THR224     -0.1950
     45  CA       -12.1660   25.6510  -14.5380 C.3   224  THR224      0.1897
     46  C        -13.3530   26.5160  -14.9500 C.2   224  THR224      0.2313
     47  O        -14.4850   26.0140  -14.9660 O.2   224  THR224     -0.2863
     48  CB       -11.3010   26.3230  -13.4050 C.3   224  THR224      0.1794
     49  OG1      -10.6920   27.5190  -13.9070 O.3   224  THR224     -0.2208
     50  CG2      -10.2200   25.4010  -12.8140 C.3   224  THR224      0.0378
     51  N         -7.8710   21.1570  -10.1090 N.3   250  PHE250     -0.1241
     52  CA        -9.1280   21.6440  -10.6680 C.3   250  PHE250      0.1605
     53  C        -10.2610   21.2370   -9.7910 C.2   250  PHE250      0.2264
     54  O        -11.0370   22.0870   -9.4100 O.2   250  PHE250     -0.2867
     55  CB        -9.3770   21.1880  -12.1110 C.3   250  PHE250      0.0534
     56  CG        -8.2980   21.4610  -13.1300 C.ar  250  PHE250     -0.0203
     57  CD1       -7.5710   22.6480  -13.1020 C.ar  250  PHE250     -0.0042
     58  CD2       -8.0220   20.5430  -14.1300 C.ar  250  PHE250     -0.0042
     59  CE1       -6.5720   22.8940  -14.0390 C.ar  250  PHE250     -0.0003
     60  CE2       -7.0290   20.7960  -15.0750 C.ar  250  PHE250     -0.0003
     61  CZ        -6.3080   21.9640  -15.0150 C.ar  250  PHE250     -0.0000
     62  N          3.0400   34.1460  -13.9350 N.3   479  ARG479     -0.1245
     63  CA         1.6080   33.8850  -13.7110 C.3   479  ARG479      0.1563
     64  C          1.0050   34.9550  -12.7640 C.2   479  ARG479      0.2260
     65  O          1.2540   34.9430  -11.5400 O.2   479  ARG479     -0.2867
     66  CB         1.3490   32.4530  -13.1780 C.3   479  ARG479      0.0307
     67  CG         1.8910   31.2830  -14.0360 C.3   479  ARG479      0.0489
     68  CD         1.1870   29.9920  -13.6410 C.3   479  ARG479      0.2205
     69  NE         1.7870   28.7790  -14.2050 N.pl3 479  ARG479     -0.0865
     70  CZ         1.3000   27.5520  -14.0190 C.cat 479  ARG479      0.5346
     71  NH1        0.2080   27.3670  -13.2880 N.pl3 479  ARG479      0.1354
     72  NH2        1.9010   26.5030  -14.5640 N.pl3 479  ARG479      0.1354
@<TRIPOS>BOND
     1     6     7    1
     2     6     5    1
     3     7     1    1
     4     1     2    1
     5     5     2    1
     6     2     3    1
     7     3     8   am
     8     3     4    2
     9     8     9    1
    10    35    36    1
    11    35    34    1
    12    36    37    1
    13    24    23    1
    14    13    12    1
    15    33    34    1
    16    33    30    1
    17    23    20    1
    18     9    12    1
    19     9    10    1
    20    12    14    1
    21    30    31    1
    22    30    29    1
    23    32    31    2
    24    11    10    2
    25    10    15   am
    26    31    38   am
    27    22    21    2
    28    20    21    1
    29    20    19    1
    30    29    27   am
    31    21    25   am
    32    19    17   am
    33    15    16    1
    34    27    28    2
    35    27    26    1
    36    38    39    1
    37    17    16    1
    38    17    18    2
    39    25    26    1
    40    43    42    1
    41    39    42    1
    42    39    40    1
    43    40    44   am
    44    40    41    2
    45    44    45    1
    46    60    61   ar
    47    60    58   ar
    48    61    59   ar
    49    47    46    2
    50    46    45    1
    51    72    70    1
    52    45    48    1
    53    69    70    2
    54    69    68    1
    55    58    56   ar
    56    59    57   ar
    57    67    68    1
    58    67    66    1
    59    70    71    1
    60    62    63    1
    61    49    48    1
    62    63    66    1
    63    63    64    1
    64    48    50    1
    65    56    57   ar
    66    56    55    1
    67    64    65    2
    68    55    52    1
    69    52    51    1
    70    52    53    1
    71    53    54    2
