@<TRIPOS>MOLECULE
tmp/5fpuA00.pdb
 214 206 0 0 0
SMALL
GASTEIGER

@<TRIPOS>ATOM
      1  N         93.8600   53.6910    8.5290 N.3    65  GLN65      -0.1245
      2  CA        93.6190   54.7750    7.5830 C.3    65  GLN65       0.1566
      3  C         94.8040   55.0330    6.6570 C.2    65  GLN65       0.2260
      4  O         95.9030   55.3490    7.1110 O.2    65  GLN65      -0.2867
      5  CB        93.2760   56.0580    8.3410 C.3    65  GLN65       0.0367
      6  CG        92.9180   57.2360    7.4550 C.3    65  GLN65       0.0905
      7  CD        92.5250   58.4600    8.2580 C.2    65  GLN65       0.2608
      8  OE1       93.1650   58.7940    9.2550 O.2    65  GLN65      -0.2717
      9  NE2       91.4640   59.1340    7.8290 N.am   65  GLN65      -0.0878
     10  N         87.2830   57.2960    0.9850 N.3    73  GLN73      -0.1231
     11  CA        87.1290   56.6810    2.2980 C.3    73  GLN73       0.1698
     12  C         85.6500   56.6790    2.6700 C.2    73  GLN73       0.2593
     13  O         84.8960   57.5410    2.2210 O.2    73  GLN73      -0.2718
     14  CB        87.9460   57.4260    3.3560 C.3    73  GLN73       0.0381
     15  CG        89.4300   57.5290    3.0520 C.3    73  GLN73       0.0905
     16  CD        90.2160   58.1450    4.1960 C.2    73  GLN73       0.2608
     17  OE1       90.0000   57.8170    5.3630 O.2    73  GLN73      -0.2717
     18  NE2       91.1310   59.0470    3.8640 N.am   73  GLN73      -0.0878
     19  N         85.2320   55.7120    3.4820 N.am   74  THR74      -0.1939
     20  CA        83.8350   55.6300    3.8990 C.3    74  THR74       0.2028
     21  C         83.5130   56.7290    4.9060 C.2    74  THR74       0.2642
     22  O         84.2870   56.9800    5.8250 O.2    74  THR74      -0.2714
     23  CB        83.5020   54.2570    4.5140 C.3    74  THR74       0.1808
     24  OG1       84.2780   54.0600    5.7030 O.3    74  THR74      -0.2208
     25  CG2       83.8020   53.1420    3.5220 C.3    74  THR74       0.0379
     26  N         82.3660   57.3770    4.7230 N.am   75  ARG75      -0.1963
     27  CA        81.9710   58.5160    5.5490 C.3    75  ARG75       0.1729
     28  C         81.7310   58.1270    7.0060 C.2    75  ARG75       0.2616
     29  O         82.1030   58.8630    7.9200 O.2    75  ARG75      -0.2715
     30  CB        80.7150   59.1700    4.9680 C.3    75  ARG75       0.0348
     31  CG        80.2590   60.4320    5.6820 C.3    75  ARG75       0.0492
     32  CD        79.0790   61.0530    4.9500 C.3    75  ARG75       0.2205
     33  NE        78.5750   62.2610    5.5970 N.pl3  75  ARG75      -0.0865
     34  CZ        77.6160   62.2720    6.5180 C.cat  75  ARG75       0.5346
     35  NH1       77.0540   61.1360    6.9110 N.pl3  75  ARG75       0.1354
     36  NH2       77.2190   63.4200    7.0490 N.pl3  75  ARG75       0.1354
     37  N         81.1090   56.9720    7.2160 N.am   76  VAL76      -0.1963
     38  CA        80.8300   56.4890    8.5640 C.3    76  VAL76       0.1727
     39  C         81.8430   55.4290    8.9870 C.2    76  VAL76       0.2616
     40  O         82.4620   54.7790    8.1440 O.2    76  VAL76      -0.2715
     41  CB        79.4090   55.9030    8.6720 C.3    76  VAL76       0.0290
     42  CG1       78.3600   56.9910    8.5440 C.3    76  VAL76       0.0023
     43  CG2       79.2030   54.7830    7.6500 C.3    76  VAL76       0.0023
     44  N         82.0070   55.2610   10.2950 N.am   77  LYS77      -0.1977
     45  CA        82.9460   54.2830   10.8320 C.3    77  LYS77       0.1596
     46  C         82.4630   52.8580   10.5790 C.2    77  LYS77       0.2287
     47  O         81.2940   52.5400   10.7960 O.2    77  LYS77      -0.2864
     48  CB        83.1580   54.5080   12.3310 C.3    77  LYS77       0.0298
     49  CG        83.4590   55.9160   12.7260 C.3    77  LYS77       0.0038
     50  CD        84.8140   56.4370   12.3280 C.3    77  LYS77       0.0206
     51  CE        84.8940   57.9530   12.3490 C.3    77  LYS77       0.1093
     52  NZ        84.5010   58.6510   11.0730 N.3    77  LYS77      -0.1314
     53  N         93.2510   55.2450   14.2890 N.3   128  TYR128     -0.1241
     54  CA        92.4940   56.1760   15.1130 C.3   128  TYR128      0.1605
     55  C         91.3770   55.4650   15.8620 C.2   128  TYR128      0.2264
     56  O         91.0480   54.3150   15.5690 O.2   128  TYR128     -0.2867
     57  CB        91.9100   57.3040   14.2560 C.3   128  TYR128      0.0534
     58  CG        90.9590   56.8250   13.1820 C.ar  128  TYR128     -0.0201
     59  CD1       89.6160   56.6010   13.4630 C.ar  128  TYR128     -0.0009
     60  CD2       91.4020   56.6000   11.8860 C.ar  128  TYR128     -0.0009
     61  CE1       88.7480   56.1550   12.4890 C.ar  128  TYR128      0.0417
     62  CE2       90.5370   56.1610   10.9020 C.ar  128  TYR128      0.0417
     63  CZ        89.2100   55.9440   11.2080 C.ar  128  TYR128      0.1957
     64  OH        88.3430   55.5050   10.2330 O.3   128  TYR128     -0.2866
     65  N         80.2350   61.5040   20.3700 N.3   188  TRP188     -0.1241
     66  CA        81.2090   60.5560   19.8480 C.3   188  TRP188      0.1605
     67  C         82.5840   60.8380   20.4400 C.2   188  TRP188      0.2264
     68  O         82.9320   61.9880   20.7040 O.2   188  TRP188     -0.2867
     69  CB        81.2670   60.6190   18.3190 C.3   188  TRP188      0.0550
     70  CG        80.1230   59.9340   17.6320 C.ar  188  TRP188      0.0003
     71  CD1       78.8160   60.3250   17.6260 C.ar  188  TRP188      0.0946
     72  CD2       80.1880   58.7420   16.8400 C.ar  188  TRP188      0.0152
     73  NE1       78.0630   59.4480   16.8820 N.ar  188  TRP188     -0.2442
     74  CE2       78.8820   58.4660   16.3900 C.ar  188  TRP188      0.0810
     75  CE3       81.2250   57.8790   16.4690 C.ar  188  TRP188      0.0012
     76  CZ2       78.5840   57.3650   15.5880 C.ar  188  TRP188      0.0191
     77  CZ3       80.9270   56.7860   15.6740 C.ar  188  TRP188      0.0001
     78  CH2       79.6180   56.5390   15.2420 C.ar  188  TRP188      0.0015
     79  N         86.7460   60.5210   20.0160 N.3   190  TYR190     -0.1241
     80  CA        87.7810   60.3790   19.0000 C.3   190  TYR190      0.1605
     81  C         89.1780   60.3750   19.6070 C.2   190  TYR190      0.2264
     82  O         89.6180   61.3670   20.1880 O.2   190  TYR190     -0.2867
     83  CB        87.6690   61.4970   17.9640 C.3   190  TYR190      0.0534
     84  CG        86.3630   61.5000   17.2040 C.ar  190  TYR190     -0.0201
     85  CD1       86.1840   60.6900   16.0900 C.ar  190  TYR190     -0.0009
     86  CD2       85.3120   62.3190   17.5960 C.ar  190  TYR190     -0.0009
     87  CE1       84.9920   60.6910   15.3900 C.ar  190  TYR190      0.0417
     88  CE2       84.1170   62.3270   16.9020 C.ar  190  TYR190      0.0417
     89  CZ        83.9630   61.5120   15.8000 C.ar  190  TYR190      0.1957
     90  OH        82.7750   61.5190   15.1070 O.3   190  TYR190     -0.2866
     91  N         93.2180   61.4740   10.1550 N.3   197  SER197     -0.1202
     92  CA        92.4540   62.5240    9.4900 C.3   197  SER197      0.2020
     93  C         90.9520   62.2790    9.4110 C.2   197  SER197      0.2619
     94  O         90.4930   61.1370    9.3650 O.2   197  SER197     -0.2717
     95  CB        92.9940   62.7220    8.0720 C.3   197  SER197      0.2103
     96  OG        94.4050   62.8200    8.0830 O.3   197  SER197     -0.2182
     97  N         90.1960   63.3720    9.3920 N.am  198  PHE198     -0.1961
     98  CA        88.7820   63.3180    9.0510 C.3   198  PHE198      0.1771
     99  C         88.5640   64.0720    7.7400 C.2   198  PHE198      0.2619
    100  O         88.9570   65.2320    7.5980 O.2   198  PHE198     -0.2715
    101  CB        87.8990   63.8760   10.1790 C.3   198  PHE198      0.0574
    102  CG        88.3240   65.2230   10.7090 C.ar  198  PHE198     -0.0200
    103  CD1       89.4060   65.3390   11.5670 C.ar  198  PHE198     -0.0042
    104  CD2       87.6050   66.3660   10.3910 C.ar  198  PHE198     -0.0042
    105  CE1       89.7860   66.5680   12.0720 C.ar  198  PHE198     -0.0003
    106  CE2       87.9770   67.6010   10.8990 C.ar  198  PHE198     -0.0003
    107  CZ        89.0710   67.7010   11.7390 C.ar  198  PHE198     -0.0000
    108  N         87.9540   63.3870    6.7760 N.am  199  CYS199     -0.1968
    109  CA        87.8230   63.9000    5.4160 C.3   199  CYS199      0.1712
    110  C         86.7910   65.0160    5.2980 C.2   199  CYS199      0.2296
    111  O         86.0510   65.2960    6.2400 O.2   199  CYS199     -0.2864
    112  CB        87.4560   62.7610    4.4600 C.3   199  CYS199      0.0983
    113  SG        88.6440   61.4000    4.4190 S.3   199  CYS199     -0.0798
    114  N         83.5470   66.7940    4.7760 N.3   201  HIS201     -0.1241
    115  CA        82.1500   66.4060    4.9010 C.3   201  HIS201      0.1621
    116  C         81.3260   67.4950    5.5700 C.2   201  HIS201      0.2264
    117  O         81.8680   68.4670    6.0970 O.2   201  HIS201     -0.2867
    118  CB        82.0220   65.1080    5.6990 C.3   201  HIS201      0.0745
    119  CG        82.3050   65.2670    7.1600 C.ar  201  HIS201      0.0817
    120  ND1       83.5770   65.4490    7.6580 N.ar  201  HIS201     -0.2268
    121  CD2       81.4780   65.2740    8.2320 C.ar  201  HIS201      0.1154
    122  CE1       83.5220   65.5590    8.9730 C.ar  201  HIS201      0.1986
    123  NE2       82.2590   65.4570    9.3470 N.ar  201  HIS201     -0.2212
    124  N         77.8110   67.7680    8.3430 N.3   203  GLU203     -0.1231
    125  CA        77.0790   66.9670    9.3140 C.3   203  GLU203      0.1699
    126  C         75.7180   66.5460    8.7710 C.2   203  GLU203      0.2592
    127  O         75.1890   67.1610    7.8420 O.2   203  GLU203     -0.2718
    128  CB        76.9120   67.7370   10.6250 C.3   203  GLU203      0.0402
    129  CG        78.2300   68.1620   11.2510 C.3   203  GLU203      0.1161
    130  CD        79.1290   66.9840   11.5660 C.2   203  GLU203      0.3649
    131  OE1       78.7440   66.1480   12.4110 O.co2 203  GLU203     -0.2457
    132  OE2       80.2190   66.8920   10.9630 O.co2 203  GLU203     -0.2457
    133  N         75.1650   65.4840    9.3480 N.am  204  ASP204     -0.1974
    134  CA        73.8660   64.9710    8.9300 C.3   204  ASP204      0.1709
    135  C         72.7770   66.0240    9.0980 C.2   204  ASP204      0.2293
    136  O         72.7290   66.7220   10.1130 O.2   204  ASP204     -0.2864
    137  CB        73.5030   63.7100    9.7220 C.3   204  ASP204      0.1436
    138  CG        74.4190   62.5400    9.4120 C.2   204  ASP204      0.3671
    139  OD1       74.8940   62.4410    8.2620 O.co2 204  ASP204     -0.2456
    140  OD2       74.6640   61.7190   10.3210 O.co2 204  ASP204     -0.2456
    141  N         82.7580   70.4510   19.0030 N.3   211  ASN211     -0.1240
    142  CA        83.8470   69.5440   19.3340 C.3   211  ASN211      0.1653
    143  C         84.6810   70.0660   20.4930 C.2   211  ASN211      0.2266
    144  O         85.0500   71.2390   20.5240 O.2   211  ASN211     -0.2867
    145  CB        84.7390   69.3180   18.1090 C.3   211  ASN211      0.1155
    146  CG        85.8610   68.3250   18.3750 C.2   211  ASN211      0.2627
    147  OD1       86.8510   68.6450   19.0350 O.2   211  ASN211     -0.2716
    148  ND2       85.7160   67.1140   17.8460 N.am  211  ASN211     -0.0877
    149  N         94.4480   69.6460   17.3480 N.3   219  LYS219     -0.1245
    150  CA        93.7320   69.1290   16.1900 C.3   219  LYS219      0.1561
    151  C         93.5960   70.2470   15.1590 C.2   219  LYS219      0.2260
    152  O         93.0730   71.3190   15.4630 O.2   219  LYS219     -0.2867
    153  CB        92.3570   68.5940   16.5970 C.3   219  LYS219      0.0271
    154  CG        91.5770   67.9230   15.4760 C.3   219  LYS219      0.0035
    155  CD        90.1340   67.6710   15.8940 C.3   219  LYS219      0.0206
    156  CE        90.0490   66.7800   17.1250 C.3   219  LYS219      0.1093
    157  NZ        90.3750   65.3580   16.8090 N.3   219  LYS219     -0.1314
    158  N         92.0770   72.0760   11.9640 N.3   221  TRP221     -0.1241
    159  CA        90.8060   72.1330   11.2440 C.3   221  TRP221      0.1605
    160  C         90.8850   72.9750    9.9770 C.2   221  TRP221      0.2264
    161  O         91.6330   73.9480    9.9100 O.2   221  TRP221     -0.2867
    162  CB        89.7030   72.7030   12.1390 C.3   221  TRP221      0.0550
    163  CG        89.3150   71.8440   13.2990 C.ar  221  TRP221      0.0003
    164  CD1       90.0410   71.6160   14.4320 C.ar  221  TRP221      0.0946
    165  CD2       88.0840   71.1250   13.4580 C.ar  221  TRP221      0.0152
    166  NE1       89.3450   70.7880   15.2800 N.ar  221  TRP221     -0.2442
    167  CE2       88.1410   70.4720   14.7060 C.ar  221  TRP221      0.0810
    168  CE3       86.9440   70.9640   12.6630 C.ar  221  TRP221      0.0012
    169  CZ2       87.1010   69.6700   15.1780 C.ar  221  TRP221      0.0191
    170  CZ3       85.9110   70.1670   13.1340 C.ar  221  TRP221      0.0001
    171  CH2       85.9980   69.5310   14.3790 C.ar  221  TRP221      0.0015
    172  N         83.9090   59.8140    1.1370 N.3   255  VAL255     -0.1245
    173  CA        84.5140   61.1230    1.3700 C.3   255  VAL255      0.1561
    174  C         86.0090   61.0480    1.0750 C.2   255  VAL255      0.2260
    175  O         86.5380   59.9630    0.8350 O.2   255  VAL255     -0.2867
    176  CB        84.2940   61.6010    2.8170 C.3   255  VAL255      0.0252
    177  CG1       82.8410   61.9980    3.0350 C.3   255  VAL255      0.0019
    178  CG2       84.7090   60.5150    3.7990 C.3   255  VAL255      0.0019
    179  N         83.9600   70.7560    6.3020 N.3   289  HIS289     -0.1241
    180  CA        85.1720   70.8020    7.1050 C.3   289  HIS289      0.1621
    181  C         85.9640   69.5040    7.0400 C.2   289  HIS289      0.2264
    182  O         85.4190   68.4370    6.7620 O.2   289  HIS289     -0.2867
    183  CB        84.8380   71.1360    8.5610 C.3   289  HIS289      0.0745
    184  CG        83.9010   70.1640    9.2050 C.ar  289  HIS289      0.0817
    185  ND1       82.5360   70.2150    9.0220 N.ar  289  HIS289     -0.2268
    186  CD2       84.1310   69.1200   10.0360 C.ar  289  HIS289      0.1154
    187  CE1       81.9650   69.2420    9.7100 C.ar  289  HIS289      0.1986
    188  NE2       82.9100   68.5630   10.3340 N.ar  289  HIS289     -0.2212
    189  N         94.9940   65.3200   13.0970 N.3   293  ASN293     -0.1240
    190  CA        95.5330   65.5260   14.4320 C.3   293  ASN293      0.1653
    191  C         97.0430   65.7290   14.4090 C.2   293  ASN293      0.2266
    192  O         97.7560   65.0940   13.6300 O.2   293  ASN293     -0.2867
    193  CB        95.1780   64.3500   15.3390 C.3   293  ASN293      0.1155
    194  CG        93.6820   64.1540   15.4690 C.2   293  ASN293      0.2627
    195  OD1       92.9990   64.9260   16.1420 O.2   293  ASN293     -0.2716
    196  ND2       93.1620   63.1210   14.8180 N.am  293  ASN293     -0.0877
    197  N         89.3060   63.5910   21.8390 N.3   299  ALA299     -0.1245
    198  CA        88.2720   64.5830   21.5730 C.3   299  ALA299      0.1562
    199  C         86.8740   64.0020   21.7340 C.2   299  ALA299      0.2260
    200  O         86.6760   62.7890   21.6620 O.2   299  ALA299     -0.2867
    201  CB        88.4440   65.1630   20.1710 C.3   299  ALA299      0.0290
    202  N         82.6890   64.9450   20.5380 N.3   301  ALA301     -0.1245
    203  CA        81.8710   65.7780   19.6660 C.3   301  ALA301      0.1562
    204  C         80.4130   65.3430   19.6620 C.2   301  ALA301      0.2260
    205  O         80.1080   64.1670   19.8500 O.2   301  ALA301     -0.2867
    206  CB        82.4250   65.7570   18.2510 C.3   301  ALA301      0.0290
    207  N         76.3910   66.4750   17.6780 N.3   303  ASN303     -0.1240
    208  CA        75.5730   67.3200   16.8220 C.3   303  ASN303      0.1653
    209  C         74.4960   68.0140   17.6400 C.2   303  ASN303      0.2266
    210  O         74.1130   67.5300   18.7030 O.2   303  ASN303     -0.2867
    211  CB        74.9290   66.4990   15.7020 C.3   303  ASN303      0.1155
    212  CG        75.9440   65.9510   14.7200 C.2   303  ASN303      0.2627
    213  OD1       76.1130   64.7370   14.6000 O.2   303  ASN303     -0.2716
    214  ND2       76.6200   66.8430   14.0040 N.am  303  ASN303     -0.0877
@<TRIPOS>BOND
     1   175   174    2
     2    10    11    1
     3   174   173    1
     4   172   173    1
     5   173   176    1
     6    13    12    2
     7    11    12    1
     8    11    14    1
     9    12    19   am
    10   176   177    1
    11   176   178    1
    12    15    14    1
    13    15    16    1
    14    19    20    1
    15    25    23    1
    16    18    16   am
    17    20    23    1
    18    20    21    1
    19    16    17    2
    20   113   112    1
    21   112   109    1
    22    23    24    1
    23    26    21   am
    24    26    27    1
    25   114   115    1
    26   115   116    1
    27   115   118    1
    28    21    22    2
    29    32    33    1
    30    32    31    1
    31    30    27    1
    32    30    31    1
    33   110   109    1
    34   110   111    2
    35   109   108    1
    36    27    28    1
    37   116   117    2
    38    33    34    2
    39   118   119    1
    40   179   180    1
    41    34    35    1
    42    34    36    1
    43     3     4    2
    44     3     2    1
    45   182   181    2
    46   108    99   am
    47    28    37   am
    48    28    29    2
    49   181   180    1
    50   180   183    1
    51   119   120   ar
    52   119   121   ar
    53    37    38    1
    54     6     7    1
    55     6     5    1
    56     2     5    1
    57     2     1    1
    58   100    99    2
    59    43    41    1
    60   120   122   ar
    61    99    98    1
    62     9     7   am
    63   127   126    2
    64    95    96    1
    65    95    92    1
    66    40    39    2
    67   121   123   ar
    68     7     8    2
    69   139   138   ar
    70   124   125    1
    71    42    41    1
    72   183   184    1
    73    38    41    1
    74    38    39    1
    75   126   125    1
    76   126   133   am
    77   134   135    1
    78   134   133    1
    79   134   137    1
    80   122   123   ar
    81    39    44   am
    82   185   184   ar
    83   185   187   ar
    84    98    97    1
    85    98   101    1
    86   135   136    2
    87   184   186   ar
    88   125   128    1
    89    94    93    2
    90    97    93   am
    91    93    92    1
    92   138   137    1
    93   138   140   ar
    94    92    91    1
    95   187   188   ar
    96   161   160    2
    97   160   159    1
    98   186   188   ar
    99   101   102    1
   100    64    63    1
   101    44    45    1
   102   104   102   ar
   103   104   106   ar
   104    46    47    2
   105    46    45    1
   106   128   129    1
   107   102   103   ar
   108    45    48    1
   109   106   107   ar
   110    62    63   ar
   111    62    60   ar
   112   132   130   ar
   113    52    51    1
   114    63    61   ar
   115   159   158    1
   116   159   162    1
   117   129   130    1
   118   130   131   ar
   119   103   105   ar
   120   107   105   ar
   121    60    58   ar
   122   162   163    1
   123    50    51    1
   124    50    49    1
   125    48    49    1
   126    61    59   ar
   127   168   170   ar
   128   168   165   ar
   129   189   190    1
   130   170   171   ar
   131    58    59   ar
   132    58    57    1
   133   163   165   ar
   134   163   164   ar
   135   165   167   ar
   136   192   191    2
   137   214   212   am
   138    57    54    1
   139    53    54    1
   140   171   169   ar
   141   191   190    1
   142   190   193    1
   143   164   166   ar
   144   213   212    2
   145   167   169   ar
   146   167   166   ar
   147   212   211    1
   148   196   194   am
   149    90    89    1
   150    54    55    1
   151   151   152    2
   152   151   150    1
   153    78    76   ar
   154    78    77   ar
   155   193   194    1
   156    87    89   ar
   157    87    85   ar
   158   194   195    2
   159   154   155    1
   160   154   153    1
   161    56    55    2
   162    76    74   ar
   163    77    75   ar
   164   211   208    1
   165    89    88   ar
   166   155   156    1
   167    85    84   ar
   168   150   153    1
   169   150   149    1
   170    74    72   ar
   171    74    73   ar
   172    75    72   ar
   173   157   156    1
   174   208   209    1
   175   208   207    1
   176    72    70   ar
   177    73    71   ar
   178    88    86   ar
   179    84    86   ar
   180    84    83    1
   181    71    70   ar
   182    70    69    1
   183   209   210    2
   184   148   146   am
   185    83    80    1
   186   145   146    1
   187   145   142    1
   188   206   203    1
   189    69    66    1
   190   146   147    2
   191    80    81    1
   192    80    79    1
   193   141   142    1
   194   142   143    1
   195    81    82    2
   196   204   203    1
   197   204   205    2
   198   203   202    1
   199    66    65    1
   200    66    67    1
   201   201   198    1
   202    67    68    2
   203   143   144    2
   204   198   199    1
   205   198   197    1
   206   200   199    2
