@<TRIPOS>MOLECULE
tmp/5fpvB00.pdb
 186 178 0 0 0
SMALL
GASTEIGER

@<TRIPOS>ATOM
      1  N         91.3040  -14.3530   56.2620 N.3   125  TYR125     -0.1241
      2  CA        90.7940  -13.0030   56.0500 C.3   125  TYR125      0.1605
      3  C         90.8440  -12.6190   54.5820 C.2   125  TYR125      0.2264
      4  O         91.9220  -12.5890   53.9910 O.2   125  TYR125     -0.2867
      5  CB        91.6190  -11.9970   56.8490 C.3   125  TYR125      0.0534
      6  CG        90.9620  -10.6510   57.0380 C.ar  125  TYR125     -0.0201
      7  CD1       89.6180  -10.4630   56.7610 C.ar  125  TYR125     -0.0009
      8  CD2       91.6890   -9.5710   57.5100 C.ar  125  TYR125     -0.0009
      9  CE1       89.0180   -9.2370   56.9490 C.ar  125  TYR125      0.0417
     10  CE2       91.1000   -8.3450   57.7020 C.ar  125  TYR125      0.0417
     11  CZ        89.7630   -8.1790   57.4260 C.ar  125  TYR125      0.1957
     12  OH        89.1840   -6.9410   57.6320 O.3   125  TYR125     -0.2866
     13  N         92.0010   -6.6770   51.4160 N.3   128  ASP128     -0.1239
     14  CA        92.6490   -5.9130   50.3460 C.3   128  ASP128      0.1674
     15  C         92.1740   -6.3180   48.9560 C.2   128  ASP128      0.2266
     16  O         92.9580   -6.3510   48.0080 O.2   128  ASP128     -0.2867
     17  CB        94.1740   -6.0550   50.4330 C.3   128  ASP128      0.1410
     18  CG        94.7280   -5.6250   51.7820 C.2   128  ASP128      0.3668
     19  OD1       94.2900   -4.5840   52.3160 O.co2 128  ASP128     -0.2456
     20  OD2       95.6060   -6.3330   52.3130 O.co2 128  ASP128     -0.2456
     21  N         94.1740    0.8100   40.5830 N.3   157  GLU157     -0.1231
     22  CA        94.3380    0.4180   41.9590 C.3   157  GLU157      0.1699
     23  C         95.1860    1.5570   42.4120 C.2   157  GLU157      0.2593
     24  O         95.7620    2.2550   41.5830 O.2   157  GLU157     -0.2718
     25  CB        95.0200   -0.9440   42.0970 C.3   157  GLU157      0.0402
     26  CG        95.2780   -1.3950   43.5210 C.3   157  GLU157      0.1161
     27  CD        95.9670   -2.7420   43.5740 C.2   157  GLU157      0.3649
     28  OE1       96.2880   -3.2800   42.4940 O.co2 157  GLU157     -0.2457
     29  OE2       96.1850   -3.2610   44.6920 O.co2 157  GLU157     -0.2457
     30  N         95.2600    1.8090   43.6980 N.am  158  GLY158     -0.1942
     31  CA        96.0360    2.9330   44.1130 C.3   158  GLY158      0.2014
     32  C         95.5030    3.4010   45.4250 C.2   158  GLY158      0.2638
     33  O         94.6700    2.7550   46.0610 O.2   158  GLY158     -0.2714
     34  N         95.9860    4.5640   45.8010 N.am  159  VAL159     -0.1977
     35  CA        95.8040    5.0720   47.1230 C.3   159  VAL159      0.1596
     36  C         94.3960    5.6570   47.2980 C.2   159  VAL159      0.2287
     37  O         93.9060    5.7770   48.4240 O.2   159  VAL159     -0.2864
     38  CB        96.9090    6.1040   47.4030 C.3   159  VAL159      0.0276
     39  CG1       96.6150    7.4210   46.6900 C.3   159  VAL159      0.0022
     40  CG2       97.1050    6.2840   48.8700 C.3   159  VAL159      0.0022
     41  N         88.8150   -0.5840   48.4790 N.3   163  TYR163     -0.1241
     42  CA        89.1920   -1.9420   48.8770 C.3   163  TYR163      0.1605
     43  C         88.1150   -2.6060   49.7230 C.2   163  TYR163      0.2264
     44  O         87.4850   -1.9600   50.5570 O.2   163  TYR163     -0.2867
     45  CB        90.5150   -1.9260   49.6420 C.3   163  TYR163      0.0534
     46  CG        91.6560   -1.5320   48.7510 C.ar  163  TYR163     -0.0201
     47  CD1       91.9570   -0.1960   48.5380 C.ar  163  TYR163     -0.0009
     48  CD2       92.4080   -2.4910   48.0890 C.ar  163  TYR163     -0.0009
     49  CE1       92.9810    0.1760   47.7110 C.ar  163  TYR163      0.0417
     50  CE2       93.4390   -2.1250   47.2540 C.ar  163  TYR163      0.0417
     51  CZ        93.7190   -0.7840   47.0710 C.ar  163  TYR163      0.1957
     52  OH        94.7410   -0.3700   46.2490 O.3   163  TYR163     -0.2866
     53  N         87.0660   -5.7990   52.4400 N.3   165  TYR165     -0.1241
     54  CA        87.6050   -6.6920   53.4610 C.3   165  TYR165      0.1605
     55  C         86.5260   -7.6590   53.9170 C.2   165  TYR165      0.2264
     56  O         85.5430   -7.2570   54.5430 O.2   165  TYR165     -0.2867
     57  CB        88.1410   -5.9020   54.6640 C.3   165  TYR165      0.0534
     58  CG        89.3130   -5.0050   54.3380 C.ar  165  TYR165     -0.0201
     59  CD1       89.1250   -3.8010   53.6590 C.ar  165  TYR165     -0.0009
     60  CD2       90.6010   -5.3530   54.7090 C.ar  165  TYR165     -0.0009
     61  CE1       90.1880   -2.9790   53.3570 C.ar  165  TYR165      0.0417
     62  CE2       91.6780   -4.5330   54.4120 C.ar  165  TYR165      0.0417
     63  CZ        91.4630   -3.3470   53.7360 C.ar  165  TYR165      0.1957
     64  OH        92.5240   -2.5260   53.4300 O.3   165  TYR165     -0.2866
     65  N         93.4530   -6.6090   62.2000 N.3   173  PHE173     -0.1241
     66  CA        94.3750   -5.6840   61.5660 C.3   173  PHE173      0.1605
     67  C         95.3200   -5.1170   62.6180 C.2   173  PHE173      0.2264
     68  O         94.9020   -4.6410   63.6740 O.2   173  PHE173     -0.2867
     69  CB        93.6510   -4.5760   60.7850 C.3   173  PHE173      0.0534
     70  CG        92.5490   -3.8790   61.5340 C.ar  173  PHE173     -0.0203
     71  CD1       91.3120   -4.4770   61.7050 C.ar  173  PHE173     -0.0042
     72  CD2       92.7240   -2.5840   61.9940 C.ar  173  PHE173     -0.0042
     73  CE1       90.2860   -3.8160   62.3640 C.ar  173  PHE173     -0.0003
     74  CE2       91.7000   -1.9130   62.6480 C.ar  173  PHE173     -0.0003
     75  CZ        90.4800   -2.5320   62.8330 C.ar  173  PHE173     -0.0000
     76  N         99.0300    0.2020   63.0270 N.3   176  HIS176     -0.1241
     77  CA        99.5610    0.9170   61.8760 C.3   176  HIS176      0.1621
     78  C         98.9320    2.2910   61.7370 C.2   176  HIS176      0.2264
     79  O         97.8520    2.5550   62.2680 O.2   176  HIS176     -0.2867
     80  CB        99.2990    0.1370   60.5890 C.3   176  HIS176      0.0745
     81  CG        97.8640    0.1580   60.1720 C.ar  176  HIS176      0.0817
     82  ND1       96.9060   -0.6610   60.7460 N.ar  176  HIS176     -0.2268
     83  CD2       97.2000    0.9270   59.2720 C.ar  176  HIS176      0.1154
     84  CE1       95.7310   -0.4110   60.2040 C.ar  176  HIS176      0.1986
     85  NE2       95.8790    0.5520   59.3070 N.ar  176  HIS176     -0.2212
     86  N         98.1130    4.8870   58.2290 N.3   178  GLU178     -0.1231
     87  CA        97.9030    4.6980   56.8060 C.3   178  GLU178      0.1699
     88  C         99.1690    5.0180   56.0160 C.2   178  GLU178      0.2592
     89  O        100.0920    5.6460   56.5460 O.2   178  GLU178     -0.2718
     90  CB        96.7370    5.5620   56.3430 C.3   178  GLU178      0.0402
     91  CG        95.4470    5.2260   57.0720 C.3   178  GLU178      0.1161
     92  CD        95.0860    3.7600   56.9210 C.2   178  GLU178      0.3649
     93  OE1       94.8880    3.3190   55.7680 O.co2 178  GLU178     -0.2457
     94  OE2       95.0100    3.0490   57.9460 O.co2 178  GLU178     -0.2457
     95  N         99.2170    4.5570   54.7650 N.am  179  ASP179     -0.1974
     96  CA       100.2860    4.9310   53.8530 C.3   179  ASP179      0.1709
     97  C        100.4020    6.4540   53.8010 C.2   179  ASP179      0.2293
     98  O         99.3920    7.1620   53.7340 O.2   179  ASP179     -0.2864
     99  CB       100.0400    4.3690   52.4470 C.3   179  ASP179      0.1436
    100  CG       100.0690    2.8490   52.4030 C.2   179  ASP179      0.3671
    101  OD1      100.8520    2.2360   53.1640 O.co2 179  ASP179     -0.2456
    102  OD2       99.3040    2.2690   51.6030 O.co2 179  ASP179     -0.2456
    103  N         91.8690    7.7170   56.3730 N.3   184  SER184     -0.1217
    104  CA        91.1630    6.6020   55.7540 C.3   184  SER184      0.1889
    105  C         89.6930    6.6320   56.1370 C.2   184  SER184      0.2288
    106  O         89.3140    7.1440   57.1930 O.2   184  SER184     -0.2866
    107  CB        91.7770    5.2550   56.1420 C.3   184  SER184      0.2089
    108  OG        91.4190    4.8860   57.4690 O.3   184  SER184     -0.2183
    109  N         86.3030    3.9630   56.3420 N.3   186  ASN186     -0.1240
    110  CA        85.9520    2.5450   56.4010 C.3   186  ASN186      0.1653
    111  C         84.4560    2.4040   56.6230 C.2   186  ASN186      0.2266
    112  O         83.9310    2.8770   57.6280 O.2   186  ASN186     -0.2867
    113  CB        86.7340    1.8350   57.5210 C.3   186  ASN186      0.1155
    114  CG        86.4440    0.3280   57.6030 C.2   186  ASN186      0.2627
    115  OD1       85.3360   -0.0910   57.9510 O.2   186  ASN186     -0.2716
    116  ND2       87.4590   -0.4860   57.3190 N.am  186  ASN186     -0.0877
    117  N         83.0190   -4.9480   63.7650 N.3   194  LYS194     -0.1245
    118  CA        84.4600   -4.8280   63.6900 C.3   194  LYS194      0.1561
    119  C         84.8640   -3.8970   64.8320 C.2   194  LYS194      0.2260
    120  O         84.3640   -2.7700   64.9140 O.2   194  LYS194     -0.2867
    121  CB        84.8840   -4.2730   62.3260 C.3   194  LYS194      0.0271
    122  CG        86.3830   -4.0420   62.1350 C.3   194  LYS194      0.0035
    123  CD        86.6420   -3.1460   60.9160 C.3   194  LYS194      0.0206
    124  CE        86.1310   -3.7600   59.6120 C.3   194  LYS194      0.1093
    125  NZ        86.9270   -4.9390   59.1930 N.3   194  LYS194     -0.1314
    126  N         87.6530   -1.6900   67.1120 N.3   196  TRP196     -0.1241
    127  CA        88.8290   -0.8720   66.8440 C.3   196  TRP196      0.1605
    128  C         89.5340   -0.4210   68.1140 C.2   196  TRP196      0.2264
    129  O         88.8890   -0.1520   69.1280 O.2   196  TRP196     -0.2867
    130  CB        88.4520    0.3860   66.0610 C.3   196  TRP196      0.0550
    131  CG        87.8300    0.1990   64.7210 C.ar  196  TRP196      0.0003
    132  CD1       86.6150   -0.3480   64.4490 C.ar  196  TRP196      0.0946
    133  CD2       88.3650    0.6370   63.4620 C.ar  196  TRP196      0.0152
    134  NE1       86.3690   -0.3090   63.0950 N.ar  196  TRP196     -0.2442
    135  CE2       87.4290    0.2910   62.4670 C.ar  196  TRP196      0.0810
    136  CE3       89.5520    1.2700   63.0800 C.ar  196  TRP196      0.0012
    137  CZ2       87.6400    0.5550   61.1130 C.ar  196  TRP196      0.0191
    138  CZ3       89.7590    1.5400   61.7310 C.ar  196  TRP196      0.0001
    139  CH2       88.8070    1.1820   60.7660 C.ar  196  TRP196      0.0015
    140  N        102.4510   -4.1020   59.0960 N.3   229  LYS229     -0.1245
    141  CA       101.1600   -4.5460   59.6150 C.3   229  LYS229      0.1561
    142  C        101.2300   -5.9750   60.1680 C.2   229  LYS229      0.2260
    143  O        100.3480   -6.7990   59.9140 O.2   229  LYS229     -0.2867
    144  CB       100.0840   -4.4350   58.5310 C.3   229  LYS229      0.0271
    145  CG        99.8750   -3.0160   58.0240 C.3   229  LYS229      0.0035
    146  CD        98.7440   -2.9640   57.0270 C.3   229  LYS229      0.0206
    147  CE        98.8680   -1.7610   56.1050 C.3   229  LYS229      0.1093
    148  NZ        97.9260   -1.8780   54.9560 N.3   229  LYS229     -0.1314
    149  N         95.9790    2.7020   64.5670 N.3   264  HIS264     -0.1241
    150  CA        94.8440    1.8810   64.9520 C.3   264  HIS264      0.1621
    151  C         95.1100    0.4120   64.7150 C.2   264  HIS264      0.2264
    152  O         96.0410    0.0350   64.0040 O.2   264  HIS264     -0.2867
    153  CB        93.5840    2.3040   64.2060 C.3   264  HIS264      0.0745
    154  CG        93.7720    2.4360   62.7340 C.ar  264  HIS264      0.0817
    155  ND1       94.4200    3.5190   62.1620 N.ar  264  HIS264     -0.2268
    156  CD2       93.4040    1.6420   61.7080 C.ar  264  HIS264      0.1154
    157  CE1       94.4400    3.3730   60.8570 C.ar  264  HIS264      0.1986
    158  NE2       93.8290    2.2410   60.5470 N.ar  264  HIS264     -0.2212
    159  N         86.9190    0.3350   52.0550 N.3   276  SER276     -0.1202
    160  CA        87.8370    1.3400   52.5780 C.3   276  SER276      0.2020
    161  C         88.6780    1.9980   51.4870 C.2   276  SER276      0.2619
    162  O         88.9810    1.3690   50.4740 O.2   276  SER276     -0.2717
    163  CB        88.7480    0.6860   53.6240 C.3   276  SER276      0.2103
    164  OG        89.4240    1.6440   54.4110 O.3   276  SER276     -0.2182
    165  N         89.0350    3.2660   51.6860 N.am  277  THR277     -0.1938
    166  CA        90.0370    3.9320   50.8440 C.3   277  THR277      0.2028
    167  C         90.7280    5.0370   51.6300 C.2   277  THR277      0.2642
    168  O         90.2740    5.4110   52.7160 O.2   277  THR277     -0.2714
    169  CB        89.4370    4.5430   49.5550 C.3   277  THR277      0.1808
    170  OG1       90.4800    4.7220   48.5880 O.3   277  THR277     -0.2208
    171  CG2       88.7950    5.8920   49.8310 C.3   277  THR277      0.0379
    172  N         91.8290    5.5510   51.0910 N.am  278  ASN278     -0.1971
    173  CA        92.4620    6.7270   51.6690 C.3   278  ASN278      0.1688
    174  C         91.9840    8.0120   50.9920 C.2   278  ASN278      0.2292
    175  O         91.5630    8.0110   49.8310 O.2   278  ASN278     -0.2864
    176  CB        93.9840    6.6360   51.5680 C.3   278  ASN278      0.1181
    177  CG        94.5580    5.4730   52.3550 C.2   278  ASN278      0.2629
    178  OD1       95.1870    4.5800   51.7840 O.2   278  ASN278     -0.2716
    179  ND2       94.3640    5.4870   53.6740 N.am  278  ASN278     -0.0877
    180  N        104.3320    1.6970   49.4340 N.3   301  VAL301     -0.1245
    181  CA       103.6190    2.8740   48.9590 C.3   301  VAL301      0.1561
    182  C        104.3320    4.1710   49.2810 C.2   301  VAL301      0.2260
    183  O        104.6890    4.4480   50.4260 O.2   301  VAL301     -0.2867
    184  CB       102.2050    2.9500   49.5160 C.3   301  VAL301      0.0252
    185  CG1      101.4670    4.1210   48.8790 C.3   301  VAL301      0.0019
    186  CG2      101.4740    1.6520   49.2380 C.3   301  VAL301      0.0019
@<TRIPOS>BOND
     1    21    22    1
     2    24    23    2
     3    22    25    1
     4    22    23    1
     5    25    26    1
     6    23    30   am
     7    28    27   ar
     8    26    27    1
     9    27    29   ar
    10    30    31    1
    11    31    32    1
    12    32    34   am
    13    32    33    2
    14    34    35    1
    15    52    51    1
    16    39    38    1
    17    51    50   ar
    18    51    49   ar
    19    35    36    1
    20    35    38    1
    21    50    48   ar
    22    36    37    2
    23    38    40    1
    24    49    47   ar
    25    16    15    2
    26    48    46   ar
    27    41    42    1
    28    47    46   ar
    29   170   169    1
    30    46    45    1
    31    42    45    1
    32    42    43    1
    33   185   184    1
    34    15    14    1
    35   181   182    1
    36   181   180    1
    37   181   184    1
    38   186   184    1
    39   182   183    2
    40   169   171    1
    41   169   166    1
    42    43    44    2
    43   175   174    2
    44    14    17    1
    45    14    13    1
    46    17    18    1
    47   162   161    2
    48   166   167    1
    49   166   165    1
    50   174   173    1
    51   172   167   am
    52   172   173    1
    53   161   165   am
    54   161   160    1
    55   176   173    1
    56   176   177    1
    57   102   100   ar
    58   167   168    2
    59    18    20   ar
    60    18    19   ar
    61   178   177    2
    62   159   160    1
    63   177   179   am
    64   100    99    1
    65   100   101   ar
    66    53    54    1
    67    99    96    1
    68   160   163    1
    69    61    59   ar
    70    61    63   ar
    71    64    63    1
    72    54    55    1
    73    54    57    1
    74   163   164    1
    75    59    58   ar
    76    98    97    2
    77    63    62   ar
    78    97    96    1
    79    96    95    1
    80    55    56    2
    81     4     3    2
    82    58    57    1
    83    58    60   ar
    84    62    60   ar
    85     3     2    1
    86    95    88   am
    87   148   147    1
    88   104   105    1
    89   104   107    1
    90   104   103    1
    91    93    92   ar
    92    88    89    2
    93    88    87    1
    94     2     1    1
    95     2     5    1
    96   147   146    1
    97   105   106    2
    98   107   108    1
    99   109   110    1
   100    90    87    1
   101    90    91    1
   102   110   111    1
   103   110   113    1
   104   111   112    2
   105     7     9   ar
   106     7     6   ar
   107    87    86    1
   108     5     6    1
   109    92    91    1
   110    92    94   ar
   111     9    11   ar
   112   146   145    1
   113     6     8   ar
   114   116   114   am
   115    11    12    1
   116    11    10   ar
   117     8    10   ar
   118   113   114    1
   119   114   115    2
   120   145   144    1
   121   144   141    1
   122   140   141    1
   123   125   124    1
   124    83    85   ar
   125    83    81   ar
   126    85    84   ar
   127   124   123    1
   128   141   142    1
   129   143   142    2
   130    81    80    1
   131    81    82   ar
   132    84    82   ar
   133   158   157   ar
   134   158   156   ar
   135    80    77    1
   136   139   137   ar
   137   139   138   ar
   138    69    70    1
   139    69    66    1
   140   157   155   ar
   141   123   122    1
   142   137   135   ar
   143    70    71   ar
   144    70    72   ar
   145    66    65    1
   146    66    67    1
   147    71    73   ar
   148   156   154   ar
   149   138   136   ar
   150    78    77    1
   151    78    79    2
   152    77    76    1
   153    72    74   ar
   154   122   121    1
   155   155   154   ar
   156   121   118    1
   157    73    75   ar
   158   135   134   ar
   159   135   133   ar
   160    67    68    2
   161    74    75   ar
   162   154   153    1
   163   136   133   ar
   164   134   132   ar
   165   133   131   ar
   166   118   117    1
   167   118   119    1
   168   152   151    2
   169   153   150    1
   170   132   131   ar
   171   149   150    1
   172   151   150    1
   173   131   130    1
   174   119   120    2
   175   130   127    1
   176   127   126    1
   177   127   128    1
   178   128   129    2
