@<TRIPOS>MOLECULE
tmp/5fpxA00.pdb
 207 195 0 0 0
SMALL
GASTEIGER

@<TRIPOS>ATOM
      1  N         25.4460    5.8890   -3.7190 N.3    17  LEU17      -0.1231
      2  CA        24.5360    5.1380   -2.8490 C.3    17  LEU17       0.1693
      3  C         25.2930    4.5570   -1.6470 C.2    17  LEU17       0.2593
      4  O         24.6760    4.0220   -0.7700 O.2    17  LEU17      -0.2718
      5  CB        23.8370    4.0060   -3.5930 C.3    17  LEU17       0.0284
      6  CG        22.9590    4.5190   -4.7330 C.3    17  LEU17       0.0019
      7  CD1       22.2810    3.3480   -5.4280 C.3    17  LEU17       0.0001
      8  CD2       21.8870    5.4560   -4.2030 C.3    17  LEU17       0.0001
      9  N         26.6140    4.6020   -1.6740 N.am   18  GLY18      -0.1942
     10  CA        27.3810    4.0630   -0.5550 C.3    18  GLY18       0.2014
     11  C         27.8250    2.6610   -0.8390 C.2    18  GLY18       0.2638
     12  O         27.2820    1.9490   -1.7070 O.2    18  GLY18      -0.2714
     13  N         28.9030    2.2680   -0.1740 N.am   19  ASN19      -0.1972
     14  CA        29.3310    0.8750   -0.1700 C.3    19  ASN19       0.1688
     15  C         29.6520    0.3470   -1.5750 C.2    19  ASN19       0.2292
     16  O         29.3850   -0.8070   -1.8810 O.2    19  ASN19      -0.2864
     17  CB        28.2890    0.0220    0.6040 C.3    19  ASN19       0.1181
     18  CG        28.3440    0.2740    2.0880 C.2    19  ASN19       0.2629
     19  OD1       27.3920    0.7080    2.7210 O.2    19  ASN19      -0.2716
     20  ND2       29.4800    0.0720    2.6150 N.am   19  ASN19      -0.0877
     21  N         28.5120    1.3600   -4.5100 N.3    21  ILE21      -0.1245
     22  CA        27.4010    1.4100   -5.4810 C.3    21  ILE21       0.1561
     23  C         26.9710    2.8420   -5.7690 C.2    21  ILE21       0.2260
     24  O         26.8670    3.6760   -4.8760 O.2    21  ILE21      -0.2867
     25  CB        26.2100    0.5650   -5.0160 C.3    21  ILE21       0.0252
     26  CG1       26.6740   -0.8670   -4.6740 C.3    21  ILE21       0.0019
     27  CG2       25.1660    0.5400   -6.1320 C.3    21  ILE21       0.0019
     28  CD1       25.5750   -1.7410   -4.1160 C.3    21  ILE21       0.0001
     29  N         24.3600    5.1160   -8.8910 N.3    23  ARG23      -0.1245
     30  CA        23.3350    4.8980   -9.9200 C.3    23  ARG23       0.1563
     31  C         22.9600    6.1280  -10.6670 C.2    23  ARG23       0.2260
     32  O         23.2900    7.2570  -10.2760 O.2    23  ARG23      -0.2867
     33  CB        22.0690    4.3310   -9.3210 C.3    23  ARG23       0.0307
     34  CG        21.2450    5.2950   -8.4980 C.3    23  ARG23       0.0489
     35  CD        19.9120    4.6900   -8.1100 C.3    23  ARG23       0.2205
     36  NE        19.2220    5.6060   -7.2080 N.pl3  23  ARG23      -0.0865
     37  CZ        18.4250    5.2210   -6.2180 C.cat  23  ARG23       0.5346
     38  NH1       18.1390    3.9340   -6.0050 N.pl3  23  ARG23       0.1354
     39  NH2       17.9010    6.1540   -5.4390 N.pl3  23  ARG23       0.1354
     40  N         19.2300    7.2000  -12.4470 N.3    25  VAL25      -0.1245
     41  CA        17.8900    6.9750  -12.9430 C.3    25  VAL25       0.1561
     42  C         17.9190    7.4810  -14.3860 C.2    25  VAL25       0.2260
     43  O         18.2880    8.6240  -14.6460 O.2    25  VAL25      -0.2867
     44  CB        16.8270    7.7050  -12.1020 C.3    25  VAL25       0.0252
     45  CG1       15.4460    7.5580  -12.7490 C.3    25  VAL25       0.0019
     46  CG2       16.8510    7.1660  -10.6710 C.3    25  VAL25       0.0019
     47  N         10.4400    1.8480  -15.8240 N.3    33  MET33      -0.1245
     48  CA        11.5380    2.6310  -15.3230 C.3    33  MET33       0.1570
     49  C         12.8270    1.9070  -15.6160 C.2    33  MET33       0.2261
     50  O         12.8720    0.6930  -15.5220 O.2    33  MET33      -0.2867
     51  CB        11.4280    2.9230  -13.8300 C.3    33  MET33       0.0387
     52  CG        12.5460    3.7650  -13.2860 C.3    33  MET33       0.0595
     53  SD        12.2270    4.3410  -11.6150 S.3    33  MET33      -0.1393
     54  CE        11.6270    5.9910  -11.9530 C.3    33  MET33       0.0692
     55  N         17.1030    2.0670  -14.7220 N.3    35  VAL35      -0.1245
     56  CA        18.1380    2.6130  -13.8570 C.3    35  VAL35       0.1561
     57  C         19.4840    1.9370  -14.1140 C.2    35  VAL35       0.2260
     58  O         19.5190    0.7170  -14.3260 O.2    35  VAL35      -0.2867
     59  CB        17.7480    2.3700  -12.3950 C.3    35  VAL35       0.0252
     60  CG1       18.7470    3.0210  -11.4650 C.3    35  VAL35       0.0019
     61  CG2       16.3250    2.8900  -12.1480 C.3    35  VAL35       0.0019
     62  N         23.0250    0.9580  -12.6390 N.3    37  VAL37      -0.1245
     63  CA        23.5500    0.7030  -11.2900 C.3    37  VAL37       0.1561
     64  C         25.0040    0.2440  -11.4640 C.2    37  VAL37       0.2260
     65  O         25.2810   -0.7920  -12.1140 O.2    37  VAL37      -0.2867
     66  CB        22.7230   -0.2640  -10.4690 C.3    37  VAL37       0.0252
     67  CG1       23.2340   -0.2640   -8.9960 C.3    37  VAL37       0.0019
     68  CG2       21.2070    0.0250  -10.4710 C.3    37  VAL37       0.0019
     69  N         28.7680   -0.8030   -9.9080 N.3    39  PHE39      -0.1241
     70  CA        29.3310   -1.5100   -8.7560 C.3    39  PHE39       0.1605
     71  C         30.8750   -1.5960   -8.8530 C.2    39  PHE39       0.2264
     72  O         31.4340   -2.0450   -9.8850 O.2    39  PHE39      -0.2867
     73  CB        28.8580   -2.9570   -8.7110 C.3    39  PHE39       0.0534
     74  CG        27.3720   -3.1470   -8.5130 C.ar   39  PHE39      -0.0203
     75  CD1       26.4980   -2.8570   -9.5370 C.ar   39  PHE39      -0.0042
     76  CD2       26.8980   -3.8020   -7.3700 C.ar   39  PHE39      -0.0042
     77  CE1       25.1430   -3.0950   -9.3530 C.ar   39  PHE39      -0.0003
     78  CE2       25.5450   -4.0380   -7.2080 C.ar   39  PHE39      -0.0003
     79  CZ        24.6990   -3.7070   -8.2230 C.ar   39  PHE39      -0.0000
     80  N         28.0080   -5.2060   -2.9880 N.3    44  ILE44      -0.1231
     81  CA        26.9120   -6.1120   -2.7490 C.3    44  ILE44       0.1692
     82  C         25.5510   -5.4210   -2.9210 C.2    44  ILE44       0.2593
     83  O         25.1780   -4.4810   -2.1950 O.2    44  ILE44      -0.2718
     84  CB        27.0190   -6.7150   -1.3320 C.3    44  ILE44       0.0266
     85  CG1       28.3810   -7.4530   -1.1910 C.3    44  ILE44       0.0019
     86  CG2       25.7840   -7.5310   -1.0180 C.3    44  ILE44       0.0020
     87  CD1       28.8710   -7.5920    0.2650 C.3    44  ILE44       0.0001
     88  N         24.7870   -5.9090   -3.9080 N.am   45  GLY45      -0.1942
     89  CA        23.3470   -5.6740   -3.9500 C.3    45  GLY45       0.2014
     90  C         22.6010   -6.5850   -3.0410 C.2    45  GLY45       0.2638
     91  O         22.4270   -7.7560   -3.3130 O.2    45  GLY45      -0.2714
     92  N         22.2700   -6.0680   -1.8590 N.am   46  VAL46      -0.1977
     93  CA        21.7100   -6.8670   -0.8050 C.3    46  VAL46       0.1596
     94  C         20.3850   -7.4870   -1.2530 C.2    46  VAL46       0.2287
     95  O         19.5640   -6.8070   -1.8710 O.2    46  VAL46      -0.2864
     96  CB        21.5490   -6.0200    0.4850 C.3    46  VAL46       0.0276
     97  CG1       20.9140   -6.8200    1.5810 C.3    46  VAL46       0.0022
     98  CG2       22.8980   -5.5090    0.9420 C.3    46  VAL46       0.0022
     99  N         16.9000   -8.8380   -1.6620 N.3    48  HIS48      -0.1241
    100  CA        15.6060   -8.2640   -1.3630 C.3    48  HIS48       0.1621
    101  C         14.5700   -8.7250   -2.3240 C.2    48  HIS48       0.2264
    102  O         14.8740   -9.4090   -3.3120 O.2    48  HIS48      -0.2867
    103  CB        15.7260   -6.7510   -1.4430 C.3    48  HIS48       0.0745
    104  CG        16.0460   -6.2850   -2.8180 C.ar   48  HIS48       0.0817
    105  ND1       17.3370   -6.2940   -3.3380 N.ar   48  HIS48      -0.2268
    106  CD2       15.2360   -5.8310   -3.7780 C.ar   48  HIS48       0.1154
    107  CE1       17.2760   -5.8580   -4.5930 C.ar   48  HIS48       0.1986
    108  NE2       16.0050   -5.5780   -4.8780 N.ar   48  HIS48      -0.2212
    109  N         10.5000   -7.5590   -4.1060 N.3    50  HIS50      -0.1241
    110  CA         9.4870   -6.5370   -4.3640 C.3    50  HIS50       0.1621
    111  C          8.1340   -7.2100   -4.3500 C.2    50  HIS50       0.2264
    112  O          7.8970   -8.1370   -5.1110 O.2    50  HIS50      -0.2867
    113  CB         9.7410   -5.8660   -5.7240 C.3    50  HIS50       0.0745
    114  CG        11.1420   -5.3990   -5.9090 C.ar   50  HIS50       0.0817
    115  ND1       11.7010   -4.3770   -5.1880 N.ar   50  HIS50      -0.2268
    116  CD2       12.1300   -5.9120   -6.6670 C.ar   50  HIS50       0.1154
    117  CE1       12.9760   -4.2400   -5.5340 C.ar   50  HIS50       0.1986
    118  NE2       13.2590   -5.1950   -6.4020 N.ar   50  HIS50      -0.2212
    119  N          6.1320   -5.6010   -7.9080 N.3    53  HIS53      -0.1241
    120  CA         6.5430   -5.5300   -9.2760 C.3    53  HIS53       0.1621
    121  C          7.6420   -6.4870   -9.6700 C.2    53  HIS53       0.2264
    122  O          8.3410   -7.0430   -8.8520 O.2    53  HIS53      -0.2867
    123  CB         6.9200   -4.1150   -9.6260 C.3    53  HIS53       0.0745
    124  CG         8.1790   -3.6620   -9.0040 C.ar   53  HIS53       0.0817
    125  ND1        8.2090   -2.7280   -7.9930 N.ar   53  HIS53      -0.2268
    126  CD2        9.4620   -3.9830   -9.2700 C.ar   53  HIS53       0.1154
    127  CE1        9.4660   -2.5010   -7.6540 C.ar   53  HIS53       0.1986
    128  NE2       10.2470   -3.2490   -8.4180 N.ar   53  HIS53      -0.2212
    129  N         11.1050   -7.3500  -12.1640 N.3    55  GLN55      -0.1245
    130  CA        12.3750   -6.7220  -12.5030 C.3    55  GLN55       0.1566
    131  C         13.1290   -7.5850  -13.5000 C.2    55  GLN55       0.2260
    132  O         13.2440   -8.7980  -13.3330 O.2    55  GLN55      -0.2867
    133  CB        13.2110   -6.5420  -11.2570 C.3    55  GLN55       0.0367
    134  CG        14.5040   -5.7610  -11.4030 C.3    55  GLN55       0.0905
    135  CD        15.2980   -5.9640  -10.1470 C.2    55  GLN55       0.2608
    136  OE1       14.9210   -5.4950   -9.0470 O.2    55  GLN55      -0.2717
    137  NE2       16.3380   -6.7600  -10.2460 N.am   55  GLN55      -0.0878
    138  N         16.9870   -7.3370  -15.3940 N.3    57  ALA57      -0.1245
    139  CA        18.1900   -6.5520  -15.4200 C.3    57  ALA57       0.1562
    140  C         19.2040   -7.1080  -16.4360 C.2    57  ALA57       0.2260
    141  O         19.3320   -8.3050  -16.5930 O.2    57  ALA57      -0.2867
    142  CB        18.7940   -6.4770  -14.0220 C.3    57  ALA57       0.0290
    143  N         19.0370  -11.1270  -16.1300 N.3    81  TYR81      -0.1241
    144  CA        18.3210  -11.9780  -15.1640 C.3    81  TYR81       0.1605
    145  C         16.9200  -11.3960  -14.9330 C.2    81  TYR81       0.2264
    146  O         16.6880  -10.1840  -15.0780 O.2    81  TYR81      -0.2867
    147  CB        19.0940  -12.1790  -13.8710 C.3    81  TYR81       0.0534
    148  CG        19.0950  -11.0350  -12.9060 C.ar   81  TYR81      -0.0201
    149  CD1       18.0440  -10.8690  -11.9860 C.ar   81  TYR81      -0.0009
    150  CD2       20.1270  -10.1240  -12.8870 C.ar   81  TYR81      -0.0009
    151  CE1       18.0660   -9.8310  -11.0660 C.ar   81  TYR81       0.0417
    152  CE2       20.1620   -9.0880  -11.9670 C.ar   81  TYR81       0.0417
    153  CZ        19.1090   -8.9350  -11.0880 C.ar   81  TYR81       0.1957
    154  OH        19.0550   -7.8890  -10.2070 O.3    81  TYR81      -0.2866
    155  N         16.2470  -11.6330   -4.6230 N.3    89  HIS89      -0.1226
    156  CA        17.3190  -11.5050   -5.5920 C.3    89  HIS89       0.1752
    157  C         18.3610  -10.5820   -5.0840 C.2    89  HIS89       0.2597
    158  O         18.0600   -9.6140   -4.3700 O.2    89  HIS89      -0.2718
    159  CB        16.7610  -11.0160   -6.9360 C.3    89  HIS89       0.0759
    160  CG        16.0370   -9.7190   -6.8640 C.ar   89  HIS89       0.0818
    161  ND1       14.7080   -9.6150   -6.4350 N.ar   89  HIS89      -0.2268
    162  CD2       16.3960   -8.4790   -7.2460 C.ar   89  HIS89       0.1154
    163  CE1       14.3380   -8.3480   -6.4950 C.ar   89  HIS89       0.1986
    164  NE2       15.3310   -7.6480   -6.9860 N.ar   89  HIS89      -0.2212
    165  N         19.6160  -10.8970   -5.3470 N.am   90  GLY90      -0.1942
    166  CA        20.7180  -10.0710   -5.0080 C.3    90  GLY90       0.2014
    167  C         21.8790  -10.3230   -5.9420 C.2    90  GLY90       0.2638
    168  O         21.8670  -11.2630   -6.7650 O.2    90  GLY90      -0.2714
    169  N         22.8940   -9.4840   -5.8460 N.am   91  ALA91      -0.1977
    170  CA        24.0070   -9.5020   -6.7880 C.3    91  ALA91       0.1597
    171  C         25.2530   -9.0940   -6.0780 C.2    91  ALA91       0.2287
    172  O         25.2050   -8.2030   -5.2200 O.2    91  ALA91      -0.2864
    173  CB        23.7480   -8.5350   -7.9330 C.3    91  ALA91       0.0319
    174  N         24.7180   -2.9600  -14.0490 N.3   100  LEU100     -0.1245
    175  CA        23.4550   -3.5950  -14.2800 C.3   100  LEU100      0.1561
    176  C         22.4810   -2.4660  -14.6930 C.2   100  LEU100      0.2260
    177  O         22.4780   -1.3770  -14.1100 O.2   100  LEU100     -0.2867
    178  CB        22.9710   -4.3390  -13.0510 C.3   100  LEU100      0.0270
    179  CG        23.5550   -5.7670  -12.9430 C.3   100  LEU100      0.0019
    180  CD1       23.5390   -6.2690  -11.5010 C.3   100  LEU100      0.0001
    181  CD2       22.8470   -6.7460  -13.8470 C.3   100  LEU100      0.0001
    182  N         18.7930   -1.9800  -14.6740 N.3   102  ASP102     -0.1239
    183  CA        17.5720   -2.4760  -14.1200 C.3   102  ASP102      0.1674
    184  C         16.3570   -1.8890  -14.7630 C.2   102  ASP102      0.2266
    185  O         16.2720   -0.6600  -14.9410 O.2   102  ASP102     -0.2867
    186  CB        17.4730   -2.0780  -12.6300 C.3   102  ASP102      0.1410
    187  CG        18.4520   -2.8220  -11.7410 C.2   102  ASP102      0.3668
    188  OD1       18.9260   -3.9140  -12.0890 O.co2 102  ASP102     -0.2456
    189  OD2       18.7370   -2.2520  -10.6390 O.co2 102  ASP102     -0.2456
    190  N         11.9780   -2.1160  -14.5480 N.3   104  PHE104     -0.1241
    191  CA        10.8940   -2.5810  -13.7460 C.3   104  PHE104      0.1605
    192  C          9.6920   -1.7450  -14.0110 C.2   104  PHE104      0.2264
    193  O          9.7810   -0.6810  -14.6570 O.2   104  PHE104     -0.2867
    194  CB        11.2710   -2.6010  -12.2840 C.3   104  PHE104      0.0534
    195  CG        11.9190   -1.3500  -11.7790 C.ar  104  PHE104     -0.0203
    196  CD1       13.2720   -1.1180  -11.9640 C.ar  104  PHE104     -0.0042
    197  CD2       11.1840   -0.4400  -11.0300 C.ar  104  PHE104     -0.0042
    198  CE1       13.8740    0.0060  -11.4890 C.ar  104  PHE104     -0.0003
    199  CE2       11.7810    0.7130  -10.5290 C.ar  104  PHE104     -0.0003
    200  CZ        13.1240    0.9520  -10.7900 C.ar  104  PHE104     -0.0000
    201  N          7.3010    0.2410  -11.9050 N.3   106  PRO106     -0.2116
    202  CA         6.9150    0.6800  -10.5590 C.3   106  PRO106      0.1372
    203  C          5.4490    1.1860  -10.5570 C.2   106  PRO106      0.2244
    204  O          4.6460    0.7630   -9.7160 O.2   106  PRO106     -0.2868
    205  CB         7.8800    1.8500  -10.2910 C.3   106  PRO106      0.0268
    206  CG         8.1430    2.4250  -11.6600 C.3   106  PRO106      0.0207
    207  CD         7.6700    1.4220  -12.7070 C.3   106  PRO106      0.0892
@<TRIPOS>BOND
     1   141   140    2
     2   140   139    1
     3   143   144    1
     4    47    48    1
     5    49    50    2
     6    49    48    1
     7   139   138    1
     8   139   142    1
     9    48    51    1
    10   144   145    1
    11   144   147    1
    12   146   145    2
    13   185   184    2
    14   184   183    1
    15    55    56    1
    16   176   175    1
    17   176   177    2
    18   182   183    1
    19   193   192    2
    20    43    42    2
    21   190   191    1
    22    42    41    1
    23    58    57    2
    24   175   174    1
    25   175   178    1
    26   183   186    1
    27    57    56    1
    28   192   191    1
    29   147   148    1
    30    56    59    1
    31   181   179    1
    32    51    52    1
    33   191   194    1
    34   131   132    2
    35   131   130    1
    36    52    53    1
    37   178   179    1
    38    41    40    1
    39    41    44    1
    40   179   180    1
    41   148   150   ar
    42   148   149   ar
    43   150   152   ar
    44    45    44    1
    45   207   201    1
    46   207   206    1
    47    62    63    1
    48   186   187    1
    49   130   129    1
    50   130   133    1
    51    59    61    1
    52    59    60    1
    53   194   195    1
    54    65    64    2
    55    44    46    1
    56   188   187   ar
    57   149   151   ar
    58   152   153   ar
    59   196   195   ar
    60   196   198   ar
    61    54    53    1
    62   201   202    1
    63   195   197   ar
    64   187   189   ar
    65   206   205    1
    66   198   200   ar
    67    64    63    1
    68   134   133    1
    69   134   135    1
    70    63    66    1
    71   153   151   ar
    72   153   154    1
    73   197   199   ar
    74   200   199   ar
    75    31    32    2
    76    31    30    1
    77   202   203    1
    78   202   205    1
    79   203   204    2
    80    68    66    1
    81    66    67    1
    82   137   135   am
    83   135   136    2
    84    30    33    1
    85    30    29    1
    86    69    70    1
    87    72    71    2
    88   121   120    1
    89   121   122    2
    90   123   120    1
    91   123   124    1
    92    75    77   ar
    93    75    74   ar
    94    77    79   ar
    95    33    34    1
    96   120   119    1
    97   126   124   ar
    98   126   128   ar
    99   124   125   ar
   100    71    70    1
   101    70    73    1
   102    73    74    1
   103    74    76   ar
   104    34    35    1
   105   128   127   ar
   106    79    78   ar
   107    35    36    1
   108   125   127   ar
   109   173   170    1
   110    76    78   ar
   111   162   164   ar
   112   162   160   ar
   113    36    37    2
   114   164   163   ar
   115   159   160    1
   116   159   156    1
   117   160   161   ar
   118   170   171    1
   119   170   169    1
   120   168   167    2
   121   116   118   ar
   122   116   114   ar
   123   163   161   ar
   124   118   117   ar
   125    37    38    1
   126    37    39    1
   127    27    25    1
   128   171   172    2
   129   167   169   am
   130   167   166    1
   131   114   113    1
   132   114   115   ar
   133    23    22    1
   134    23    24    2
   135   113   110    1
   136   156   157    1
   137   156   155    1
   138   117   115   ar
   139    22    25    1
   140    22    21    1
   141     7     6    1
   142   165   157   am
   143   165   166    1
   144   112   111    2
   145   157   158    2
   146    25    26    1
   147   108   107   ar
   148   108   106   ar
   149     6     8    1
   150     6     5    1
   151    26    28    1
   152   107   105   ar
   153   110   111    1
   154   110   109    1
   155    89    88    1
   156    89    90    1
   157    88    82   am
   158   106   104   ar
   159     1     2    1
   160     5     2    1
   161   105   104   ar
   162    91    90    2
   163   102   101    2
   164    90    92   am
   165    80    81    1
   166    82    81    1
   167    82    83    2
   168     2     3    1
   169   104   103    1
   170    81    84    1
   171   101   100    1
   172    16    15    2
   173    95    94    2
   174    92    93    1
   175    12    11    2
   176     9     3   am
   177     9    10    1
   178    99   100    1
   179     3     4    2
   180    15    14    1
   181   103   100    1
   182    84    85    1
   183    84    86    1
   184    94    93    1
   185    85    87    1
   186    11    10    1
   187    11    13   am
   188    93    96    1
   189    13    14    1
   190    14    17    1
   191    96    98    1
   192    96    97    1
   193    17    18    1
   194    18    20   am
   195    18    19    2
