@<TRIPOS>MOLECULE
tmp/5fpyA00.pdb
 91 87 0 0 0
SMALL
GASTEIGER

@<TRIPOS>ATOM
      1  N         17.8250   18.0670  -18.7690 N.3   383  HIS383     -0.1226
      2  CA        17.3420   17.0500  -19.7180 C.3   383  HIS383      0.1752
      3  C         17.2520   15.6080  -19.1190 C.2   383  HIS383      0.2597
      4  O         16.4150   14.8070  -19.5660 O.2   383  HIS383     -0.2718
      5  CB        18.1730   17.0790  -21.0250 C.3   383  HIS383      0.0759
      6  CG        19.4850   16.3660  -20.9460 C.ar  383  HIS383      0.0818
      7  ND1       20.5190   16.8380  -20.1550 N.ar  383  HIS383     -0.2268
      8  CD2       19.8880   15.2340  -21.5660 C.ar  383  HIS383      0.1154
      9  CE1       21.5110   15.9780  -20.3130 C.ar  383  HIS383      0.1986
     10  NE2       21.1780   14.9950  -21.1530 N.ar  383  HIS383     -0.2212
     11  N         18.1090   15.3030  -18.1100 N.am  384  SER384     -0.1938
     12  CA        18.2510   13.9760  -17.4880 C.3   384  SER384      0.2055
     13  C         18.2860   14.0330  -15.9630 C.2   384  SER384      0.2643
     14  O         18.6720   15.0500  -15.4070 O.2   384  SER384     -0.2714
     15  CB        19.5450   13.3320  -17.9600 C.3   384  SER384      0.2130
     16  OG        20.6560   14.0920  -17.5080 O.3   384  SER384     -0.2179
     17  N         17.8850   12.9210  -15.3090 N.am  385  LYS385     -0.1963
     18  CA        18.0230   12.5830  -13.8820 C.3   385  LYS385      0.1728
     19  C         19.4640   12.8010  -13.4090 C.2   385  LYS385      0.2616
     20  O         19.6540   13.4410  -12.3760 O.2   385  LYS385     -0.2715
     21  CB        17.5900   11.1130  -13.6380 C.3   385  LYS385      0.0311
     22  CG        17.9030   10.5510  -12.2450 C.3   385  LYS385      0.0038
     23  CD        18.0890    9.0360  -12.2370 C.3   385  LYS385      0.0206
     24  CE        18.8620    8.5900  -11.0120 C.3   385  LYS385      0.1093
     25  NZ        19.1560    7.1300  -11.0330 N.3   385  LYS385     -0.1314
     26  N         20.4630   12.2720  -14.1630 N.am  386  LYS386     -0.1977
     27  CA        21.9060   12.4360  -13.9030 C.3   386  LYS386      0.1596
     28  C         22.2930   13.9030  -13.7270 C.2   386  LYS386      0.2287
     29  O         22.7710   14.2660  -12.6510 O.2   386  LYS386     -0.2864
     30  CB        22.7630   11.7740  -15.0060 C.3   386  LYS386      0.0298
     31  CG        24.2530   11.6510  -14.6700 C.3   386  LYS386      0.0038
     32  CD        25.0950   11.4370  -15.9230 C.3   386  LYS386      0.0206
     33  CE        26.5740   11.5750  -15.6500 C.3   386  LYS386      0.1093
     34  NZ        27.3870   11.3710  -16.8760 N.3   386  LYS386     -0.1314
     35  N         12.4330   14.0840  -10.4940 N.3   406  TYR406     -0.1241
     36  CA        12.3100   13.2770  -11.7150 C.3   406  TYR406      0.1605
     37  C         11.3390   12.1030  -11.4890 C.2   406  TYR406      0.2264
     38  O         10.9430   11.8760  -10.3420 O.2   406  TYR406     -0.2867
     39  CB        13.6860   12.7900  -12.2030 C.3   406  TYR406      0.0534
     40  CG        14.6560   12.4090  -11.1060 C.ar  406  TYR406     -0.0201
     41  CD1       14.5650   11.1770  -10.4630 C.ar  406  TYR406     -0.0009
     42  CD2       15.6780   13.2700  -10.7210 C.ar  406  TYR406     -0.0009
     43  CE1       15.4590   10.8180   -9.4590 C.ar  406  TYR406      0.0417
     44  CE2       16.5780   12.9210   -9.7200 C.ar  406  TYR406      0.0417
     45  CZ        16.4650   11.6930   -9.0920 C.ar  406  TYR406      0.1957
     46  OH        17.3520   11.3420   -8.1070 O.3   406  TYR406     -0.2866
     47  N         13.5990   17.4880  -14.3230 N.3   425  THR425     -0.1218
     48  CA        13.2480   17.1140  -15.7060 C.3   425  THR425      0.1862
     49  C         11.7980   17.5990  -16.0180 C.2   425  THR425      0.2287
     50  O         11.1580   18.2060  -15.1580 O.2   425  THR425     -0.2866
     51  CB        13.3760   15.5730  -15.8970 C.3   425  THR425      0.1770
     52  OG1       12.6540   14.8910  -14.8660 O.3   425  THR425     -0.2211
     53  CG2       14.8060   15.0950  -15.8910 C.3   425  THR425      0.0375
     54  N         15.0880   14.8470  -23.6940 N.3   446  VAL446     -0.1231
     55  CA        15.2800   13.4890  -24.1840 C.3   446  VAL446      0.1692
     56  C         14.0250   13.0290  -24.9340 C.2   446  VAL446      0.2593
     57  O         12.9160   13.1870  -24.4300 O.2   446  VAL446     -0.2718
     58  CB        15.7640   12.5180  -23.0690 C.3   446  VAL446      0.0266
     59  CG1       15.9790   11.1100  -23.6120 C.3   446  VAL446      0.0020
     60  CG2       17.0530   13.0320  -22.4230 C.3   446  VAL446      0.0020
     61  N         14.2100   12.4860  -26.1470 N.am  447  THR447     -0.1939
     62  CA        13.1230   11.9780  -26.9830 C.3   447  THR447      0.2028
     63  C         13.4360   10.5930  -27.5460 C.2   447  THR447      0.2642
     64  O         14.5980   10.1740  -27.5940 O.2   447  THR447     -0.2714
     65  CB        12.8240   12.9330  -28.1500 C.3   447  THR447      0.1808
     66  OG1       11.5070   12.6450  -28.6350 O.3   447  THR447     -0.2208
     67  CG2       13.8290   12.7840  -29.3100 C.3   447  THR447      0.0379
     68  N         12.3950    9.8860  -27.9860 N.am  448  GLN448     -0.1976
     69  CA        12.6100    8.6130  -28.6640 C.3   448  GLN448      0.1601
     70  C         12.2420    8.6640  -30.1180 C.2   448  GLN448      0.2287
     71  O         11.2770    9.3220  -30.5050 O.2   448  GLN448     -0.2864
     72  CB        11.9160    7.4790  -27.9320 C.3   448  GLN448      0.0394
     73  CG        12.7660    7.0660  -26.7590 C.3   448  GLN448      0.0908
     74  CD        11.9420    6.5390  -25.6440 C.2   448  GLN448      0.2608
     75  OE1       10.7260    6.7360  -25.6020 O.2   448  GLN448     -0.2717
     76  NE2       12.6010    5.8480  -24.7200 N.am  448  GLN448     -0.0878
     77  N         17.0520    6.4430  -28.1330 N.3   462  THR462     -0.1218
     78  CA        16.9160    7.5390  -27.1600 C.3   462  THR462      0.1862
     79  C         17.9790    8.6110  -27.4910 C.2   462  THR462      0.2287
     80  O         19.1460    8.2900  -27.6780 O.2   462  THR462     -0.2866
     81  CB        16.9600    6.9860  -25.7160 C.3   462  THR462      0.1770
     82  OG1       15.9580    5.9750  -25.5710 O.3   462  THR462     -0.2211
     83  CG2       16.7140    8.0490  -24.6690 C.3   462  THR462      0.0375
     84  N          9.5190    3.0430  -20.3010 N.3   570  ASN570     -0.1240
     85  CA         8.9390    3.0540  -21.6340 C.3   570  ASN570      0.1653
     86  C          8.9520    1.6720  -22.2430 C.2   570  ASN570      0.2266
     87  O          9.8460    0.8800  -21.9530 O.2   570  ASN570     -0.2867
     88  CB         9.7270    4.0110  -22.5220 C.3   570  ASN570      0.1155
     89  CG         9.5650    5.4620  -22.1720 C.2   570  ASN570      0.2627
     90  OD1       10.3370    6.3100  -22.6420 O.2   570  ASN570     -0.2716
     91  ND2        8.5400    5.7970  -21.3840 N.am  570  ASN570     -0.0877
@<TRIPOS>BOND
     1    71    70    2
     2    70    69    1
     3    67    65    1
     4    69    68    1
     5    69    72    1
     6    66    65    1
     7    65    62    1
     8    77    78    1
     9    68    63   am
    10    72    73    1
    11    80    79    2
    12    64    63    2
    13    63    62    1
    14    79    78    1
    15    78    81    1
    16    62    61    1
    17    73    74    1
    18    61    56   am
    19    81    82    1
    20    81    83    1
    21    74    75    2
    22    74    76   am
    23    56    57    2
    24    56    55    1
    25    55    54    1
    26    55    58    1
    27    59    58    1
    28    58    60    1
    29    90    89    2
    30    88    89    1
    31    88    85    1
    32    86    87    2
    33    86    85    1
    34    89    91   am
    35    85    84    1
    36     8    10   ar
    37     8     6   ar
    38    10     9   ar
    39     5     6    1
    40     5     2    1
    41     6     7   ar
    42     9     7   ar
    43     2     3    1
    44     2     1    1
    45     4     3    2
    46     3    11   am
    47    11    12    1
    48    15    16    1
    49    15    12    1
    50    12    13    1
    51    34    33    1
    52    49    48    1
    53    49    50    2
    54    13    14    2
    55    13    17   am
    56    32    33    1
    57    32    31    1
    58    51    53    1
    59    51    48    1
    60    51    52    1
    61    48    47    1
    62    17    18    1
    63    30    31    1
    64    30    27    1
    65    26    27    1
    66    26    19   am
    67    27    28    1
    68    18    21    1
    69    18    19    1
    70    28    29    2
    71    21    22    1
    72    19    20    2
    73    22    23    1
    74    23    24    1
    75    39    36    1
    76    39    40    1
    77    36    37    1
    78    36    35    1
    79    37    38    2
    80    40    42   ar
    81    40    41   ar
    82    25    24    1
    83    42    44   ar
    84    41    43   ar
    85    44    45   ar
    86    43    45   ar
    87    45    46    1
