@<TRIPOS>MOLECULE
tmp/5fpzA00.pdb
 133 126 0 0 0
SMALL
GASTEIGER

@<TRIPOS>ATOM
      1  N        -27.9790   19.7560   -7.0770 N.3    21  ARG21      -0.1245
      2  CA       -26.7460   19.4300   -7.7810 C.3    21  ARG21       0.1563
      3  C        -26.9820   19.1220   -9.2440 C.2    21  ARG21       0.2260
      4  O        -28.0560   18.6560   -9.6160 O.2    21  ARG21      -0.2867
      5  CB       -26.0960   18.2000   -7.1180 C.3    21  ARG21       0.0307
      6  CG       -25.0140   17.4910   -7.9030 C.3    21  ARG21       0.0489
      7  CD       -24.4330   16.3120   -7.1440 C.3    21  ARG21       0.2205
      8  NE       -25.2960   15.1370   -7.0430 N.pl3  21  ARG21      -0.0865
      9  CZ       -25.4340   14.4080   -5.9330 C.cat  21  ARG21       0.5346
     10  NH1      -24.7990   14.7360   -4.8110 N.pl3  21  ARG21       0.1354
     11  NH2      -26.2350   13.3510   -5.9480 N.pl3  21  ARG21       0.1354
     12  N        -22.9470   22.4230   -7.3380 N.3    35  VAL35      -0.1245
     13  CA       -23.7690   22.3090   -6.1400 C.3    35  VAL35       0.1561
     14  C        -24.2610   23.6990   -5.7280 C.2    35  VAL35       0.2260
     15  O        -23.4770   24.6080   -5.4690 O.2    35  VAL35      -0.2867
     16  CB       -23.0280   21.6270   -4.9860 C.3    35  VAL35       0.0252
     17  CG1      -24.0130   21.2940   -3.8390 C.3    35  VAL35       0.0019
     18  CG2      -22.2580   20.4020   -5.4950 C.3    35  VAL35       0.0019
     19  N        -26.6450   26.0850   -3.1990 N.3    37  PHE37      -0.1241
     20  CA       -27.0860   26.1490   -1.7980 C.3    37  PHE37       0.1605
     21  C        -27.9660   27.3800   -1.5470 C.2    37  PHE37       0.2264
     22  O        -27.6350   28.5030   -1.9730 O.2    37  PHE37      -0.2867
     23  CB       -25.8930   26.3240   -0.8660 C.3    37  PHE37       0.0534
     24  CG       -24.9240   25.1840   -0.8210 C.ar   37  PHE37      -0.0203
     25  CD1      -24.0880   24.9130   -1.8850 C.ar   37  PHE37      -0.0042
     26  CD2      -24.7460   24.4550    0.3600 C.ar   37  PHE37      -0.0042
     27  CE1      -23.1610   23.9000   -1.8080 C.ar   37  PHE37      -0.0003
     28  CE2      -23.8150   23.4500    0.4500 C.ar   37  PHE37      -0.0003
     29  CZ       -23.0240   23.1600   -0.6440 C.ar   37  PHE37      -0.0000
     30  N        -23.7570   21.8290    4.0830 N.3    43  GLY43      -0.1225
     31  CA       -23.0770   20.6660    3.5640 C.3    43  GLY43       0.1811
     32  C        -22.4320   19.9300    4.7240 C.2    43  GLY43       0.2280
     33  O        -21.4130   20.3800    5.2920 O.2    43  GLY43      -0.2866
     34  N        -17.9650   15.4640    6.0080 N.3    46  HIS46      -0.1241
     35  CA       -17.7160   14.1130    5.5350 C.3    46  HIS46       0.1621
     36  C        -16.2910   14.0100    4.9730 C.2    46  HIS46       0.2264
     37  O        -15.5850   15.0190    4.8460 O.2    46  HIS46      -0.2867
     38  CB       -18.7320   13.8070    4.4400 C.3    46  HIS46       0.0745
     39  CG       -18.5350   14.6350    3.2150 C.ar   46  HIS46       0.0817
     40  ND1      -18.9320   15.9500    3.1420 N.ar   46  HIS46      -0.2268
     41  CD2      -17.8970   14.3670    2.0460 C.ar   46  HIS46       0.1154
     42  CE1      -18.5640   16.4590    1.9810 C.ar   46  HIS46       0.1986
     43  NE2      -17.9620   15.5100    1.2850 N.ar   46  HIS46      -0.2212
     44  N        -13.8090   11.5170    1.9780 N.3    48  HIS48      -0.1241
     45  CA       -13.7500   10.5370    0.9080 C.3    48  HIS48       0.1621
     46  C        -12.5200    9.6710    1.0850 C.2    48  HIS48       0.2264
     47  O        -11.3940   10.1800    1.1880 O.2    48  HIS48      -0.2867
     48  CB       -13.6970   11.2290   -0.4420 C.3    48  HIS48       0.0745
     49  CG       -14.7500   12.2750   -0.6000 C.ar   48  HIS48       0.0817
     50  ND1      -16.0900   11.9740   -0.7280 N.ar   48  HIS48      -0.2268
     51  CD2      -14.6590   13.6270   -0.6010 C.ar   48  HIS48       0.1154
     52  CE1      -16.7740   13.1030   -0.7980 C.ar   48  HIS48       0.1986
     53  NE2      -15.9290   14.1130   -0.7060 N.ar   48  HIS48      -0.2212
     54  N        -10.5150   16.0810   -3.6880 N.3    53  GLN53      -0.1245
     55  CA       -11.5400   17.0510   -4.0620 C.3    53  GLN53       0.1566
     56  C        -10.9980   18.4770   -4.0420 C.2    53  GLN53       0.2260
     57  O        -10.3300   18.8730   -3.0960 O.2    53  GLN53      -0.2867
     58  CB       -12.7430   16.9250   -3.1260 C.3    53  GLN53       0.0367
     59  CG       -13.8860   17.8630   -3.4330 C.3    53  GLN53       0.0905
     60  CD       -14.9720   17.7820   -2.3870 C.2    53  GLN53       0.2608
     61  OE1      -15.3750   16.6900   -1.9960 O.2    53  GLN53      -0.2717
     62  NE2      -15.4410   18.9350   -1.9240 N.am   53  GLN53      -0.0878
     63  N        -11.0540   25.6400   -2.3260 N.3    79  TYR79      -0.1241
     64  CA       -10.4520   24.8490   -1.2810 C.3    79  TYR79       0.1605
     65  C        -10.2000   23.4300   -1.7170 C.2    79  TYR79       0.2264
     66  O        -10.8540   22.9160   -2.6400 O.2    79  TYR79      -0.2867
     67  CB       -11.2690   24.8850   -0.0100 C.3    79  TYR79       0.0534
     68  CG       -12.6520   24.3000   -0.0470 C.ar   79  TYR79      -0.0201
     69  CD1      -13.7280   25.1130   -0.3460 C.ar   79  TYR79      -0.0009
     70  CD2      -12.8970   22.9830    0.2990 C.ar   79  TYR79      -0.0009
     71  CE1      -15.0090   24.6430   -0.3310 C.ar   79  TYR79       0.0417
     72  CE2      -14.2080   22.4900    0.3070 C.ar   79  TYR79       0.0417
     73  CZ       -15.2350   23.3410    0.0150 C.ar   79  TYR79       0.1957
     74  OH       -16.5660   22.9410    0.0450 O.3    79  TYR79      -0.2866
     75  N        -14.4120   17.4950    5.6490 N.3    87  HIS87      -0.1241
     76  CA       -14.7600   18.7990    5.1050 C.3    87  HIS87       0.1621
     77  C        -16.2710   18.9770    5.0870 C.2    87  HIS87       0.2264
     78  O        -17.0430   18.0220    4.8550 O.2    87  HIS87      -0.2867
     79  CB       -14.1260   19.0130    3.7120 C.3    87  HIS87       0.0745
     80  CG       -14.5040   17.9760    2.7000 C.ar   87  HIS87       0.0817
     81  ND1      -13.9890   16.6910    2.7090 N.ar   87  HIS87      -0.2268
     82  CD2      -15.3100   18.0470    1.6170 C.ar   87  HIS87       0.1154
     83  CE1      -14.5030   16.0030    1.7030 C.ar   87  HIS87       0.1986
     84  NE2      -15.2980   16.8050    1.0180 N.ar   87  HIS87      -0.2212
     85  N        -20.9410   25.9550   -5.3200 N.3    98  LEU98      -0.1245
     86  CA       -19.6430   25.2930   -5.3700 C.3    98  LEU98       0.1561
     87  C        -19.5370   24.4690   -6.6400 C.2    98  LEU98       0.2260
     88  O        -20.4760   23.7610   -7.0300 O.2    98  LEU98      -0.2867
     89  CB       -19.4350   24.3490   -4.1730 C.3    98  LEU98       0.0270
     90  CG       -19.3820   25.0060   -2.7930 C.3    98  LEU98       0.0019
     91  CD1      -19.3470   23.9760   -1.6570 C.3    98  LEU98       0.0001
     92  CD2      -18.2160   25.9800   -2.6830 C.3    98  LEU98       0.0001
     93  N        -17.5270   21.4720   -7.5790 N.3   100  ASP100     -0.1239
     94  CA       -16.7130   20.4290   -6.9980 C.3   100  ASP100      0.1674
     95  C        -16.0450   19.6110   -8.0730 C.2   100  ASP100      0.2266
     96  O        -16.6980   19.1860   -9.0340 O.2   100  ASP100     -0.2867
     97  CB       -17.5630   19.4670   -6.1500 C.3   100  ASP100      0.1410
     98  CG       -18.0010   20.0490   -4.8310 C.2   100  ASP100      0.3668
     99  OD1      -17.3100   20.9480   -4.2980 O.co2 100  ASP100     -0.2456
    100  OD2      -19.0190   19.5830   -4.2750 O.co2 100  ASP100     -0.2456
    101  N        -13.3340   16.2320   -8.6570 N.3   102  PHE102     -0.1241
    102  CA       -12.8710   15.0120   -8.0350 C.3   102  PHE102      0.1605
    103  C        -11.9070   14.2390   -8.9180 C.2   102  PHE102      0.2264
    104  O        -12.0680   14.1980  -10.1610 O.2   102  PHE102     -0.2867
    105  CB       -14.0460   14.0630   -7.7750 C.3   102  PHE102      0.0534
    106  CG       -15.1070   14.6480   -6.8870 C.ar  102  PHE102     -0.0203
    107  CD1      -14.9850   14.5640   -5.4970 C.ar  102  PHE102     -0.0042
    108  CD2      -16.2060   15.2990   -7.4240 C.ar  102  PHE102     -0.0042
    109  CE1      -15.9400   15.1270   -4.6630 C.ar  102  PHE102     -0.0003
    110  CE2      -17.1850   15.8330   -6.5880 C.ar  102  PHE102     -0.0003
    111  CZ       -17.0390   15.7480   -5.2070 C.ar  102  PHE102     -0.0000
    112  N        -16.6470   10.2100   -9.3330 N.3   106  ARG106     -0.1245
    113  CA       -17.5420    9.6690   -8.3030 C.3   106  ARG106      0.1563
    114  C        -18.5220    8.6970   -8.9700 C.2   106  ARG106      0.2260
    115  O        -19.4930    9.1230   -9.5750 O.2   106  ARG106     -0.2867
    116  CB       -18.2920   10.8020   -7.6340 C.3   106  ARG106      0.0307
    117  CG       -17.4060   11.6640   -6.7460 C.3   106  ARG106      0.0489
    118  CD       -17.1620   11.0660   -5.3880 C.3   106  ARG106      0.2205
    119  NE       -18.3800   10.8760   -4.6150 N.pl3 106  ARG106     -0.0865
    120  CZ       -18.9530   11.7730   -3.8180 C.cat 106  ARG106      0.5346
    121  NH1      -18.4320   13.0020   -3.6680 N.pl3 106  ARG106      0.1354
    122  NH2      -20.0480   11.4440   -3.1620 N.pl3 106  ARG106      0.1354
    123  N        -22.2500    9.0860   -8.3060 N.3   109  PHE109     -0.1241
    124  CA       -23.0220   10.1850   -8.8660 C.3   109  PHE109      0.1605
    125  C        -23.6310    9.8150  -10.2150 C.2   109  PHE109      0.2264
    126  O        -24.3800   10.6000  -10.7860 O.2   109  PHE109     -0.2867
    127  CB       -22.1470   11.4360   -8.9940 C.3   109  PHE109      0.0534
    128  CG       -21.9040   12.1660   -7.6960 C.ar  109  PHE109     -0.0203
    129  CD1      -22.5550   11.8210   -6.5220 C.ar  109  PHE109     -0.0042
    130  CD2      -21.0270   13.2410   -7.6700 C.ar  109  PHE109     -0.0042
    131  CE1      -22.3290   12.5160   -5.3590 C.ar  109  PHE109     -0.0003
    132  CE2      -20.8230   13.9710   -6.5030 C.ar  109  PHE109     -0.0003
    133  CZ       -21.4670   13.5850   -5.3410 C.ar  109  PHE109     -0.0000
@<TRIPOS>BOND
     1   126   125    2
     2   125   124    1
     3   104   103    2
     4     4     3    2
     5   115   114    2
     6   112   113    1
     7     3     2    1
     8    96    95    2
     9   127   124    1
    10   127   128    1
    11   114   113    1
    12   103   102    1
    13   124   123    1
    14   101   102    1
    15   113   116    1
    16    95    94    1
    17   102   105    1
    18     6     7    1
    19     6     5    1
    20     2     5    1
    21     2     1    1
    22   105   106    1
    23   128   130   ar
    24   128   129   ar
    25   130   132   ar
    26   116   117    1
    27    93    94    1
    28   108   106   ar
    29   108   110   ar
    30    12    13    1
    31     7     8    1
    32     8     9    2
    33    88    87    2
    34    94    97    1
    35   106   107   ar
    36   117   118    1
    37    87    86    1
    38   110   111   ar
    39   129   131   ar
    40   132   133   ar
    41    97    98    1
    42    13    14    1
    43    13    16    1
    44    11     9    1
    45     9    10    1
    46    14    15    2
    47   107   109   ar
    48    18    16    1
    49   118   119    1
    50    86    85    1
    51    86    89    1
    52   131   133   ar
    53   111   109   ar
    54    16    17    1
    55    98    99   ar
    56    98   100   ar
    57   119   120    2
    58    89    90    1
    59    55    56    1
    60    55    54    1
    61    55    58    1
    62    56    57    2
    63   120   121    1
    64   120   122    1
    65    59    58    1
    66    59    60    1
    67    19    20    1
    68    90    92    1
    69    90    91    1
    70    66    65    2
    71    60    61    2
    72    60    62   am
    73    63    64    1
    74    22    21    2
    75    25    27   ar
    76    25    24   ar
    77    27    29   ar
    78    20    21    1
    79    20    23    1
    80    65    64    1
    81    64    67    1
    82    23    24    1
    83    24    26   ar
    84    52    50   ar
    85    52    53   ar
    86    50    49   ar
    87    53    51   ar
    88    29    28   ar
    89    51    49   ar
    90    49    48    1
    91    48    45    1
    92    69    71   ar
    93    69    68   ar
    94    71    73   ar
    95    68    67    1
    96    68    70   ar
    97    73    74    1
    98    73    72   ar
    99    70    72   ar
   100    26    28   ar
   101    45    46    1
   102    45    44    1
   103    84    82   ar
   104    84    83   ar
   105    46    47    2
   106    43    42   ar
   107    43    41   ar
   108    82    80   ar
   109    83    81   ar
   110    42    40   ar
   111    41    39   ar
   112    80    81   ar
   113    80    79    1
   114    40    39   ar
   115    39    38    1
   116    31    30    1
   117    31    32    1
   118    79    76    1
   119    38    35    1
   120    32    33    2
   121    37    36    2
   122    78    77    2
   123    36    35    1
   124    77    76    1
   125    76    75    1
   126    35    34    1
