@<TRIPOS>MOLECULE
tmp/5fq0A00.pdb
 119 112 0 0 0
SMALL
GASTEIGER

@<TRIPOS>ATOM
      1  N         35.1330   85.0170    7.7450 N.3    15  VAL15      -0.1231
      2  CA        34.7530   84.6270    9.1020 C.3    15  VAL15       0.1692
      3  C         35.0440   85.8190   10.0000 C.2    15  VAL15       0.2591
      4  O         34.1890   86.2500   10.7730 O.2    15  VAL15      -0.2718
      5  CB        35.5360   83.4000    9.6010 C.3    15  VAL15       0.0266
      6  CG1       35.2290   83.1350   11.0730 C.3    15  VAL15       0.0020
      7  CG2       35.2090   82.1760    8.7360 C.3    15  VAL15       0.0020
      8  N         36.2670   86.3270    9.8820 N.am   16  GLU16      -0.1979
      9  CA        36.6920   87.5320   10.5440 C.3    16  GLU16       0.1602
     10  C         38.0270   87.9380    9.9270 C.2    16  GLU16       0.2287
     11  O         38.5840   87.1830    9.1200 O.2    16  GLU16      -0.2864
     12  CB        36.8280   87.2780   12.0370 C.3    16  GLU16       0.0415
     13  CG        37.9020   86.2720   12.4040 C.3    16  GLU16       0.1163
     14  CD        37.9230   86.0340   13.8940 C.2    16  GLU16       0.3649
     15  OE1       36.9800   85.4030   14.4060 O.co2  16  GLU16      -0.2457
     16  OE2       38.8550   86.5300   14.5570 O.co2  16  GLU16      -0.2457
     17  N         36.6910   80.9150    5.2570 N.3    21  ARG21      -0.1245
     18  CA        36.3960   79.4950    5.1500 C.3    21  ARG21       0.1563
     19  C         35.5100   79.1350    3.9710 C.2    21  ARG21       0.2260
     20  O         34.8980   80.0150    3.3420 O.2    21  ARG21      -0.2867
     21  CB        35.7480   79.0000    6.4380 C.3    21  ARG21       0.0307
     22  CG        34.2850   79.3110    6.5400 C.3    21  ARG21       0.0489
     23  CD        33.8070   78.7770    7.8800 C.3    21  ARG21       0.2205
     24  NE        32.5600   79.3950    8.2790 N.pl3  21  ARG21      -0.0865
     25  CZ        32.2850   79.7740    9.5240 C.cat  21  ARG21       0.5346
     26  NH1       33.1710   79.6240   10.4980 N.pl3  21  ARG21       0.1354
     27  NH2       31.1140   80.2980    9.8000 N.pl3  21  ARG21       0.1354
     28  N         39.5420   76.0340    6.2290 N.3    35  VAL35      -0.1245
     29  CA        39.7200   77.3610    6.8290 C.3    35  VAL35       0.1561
     30  C         41.1000   77.8840    6.4930 C.2    35  VAL35       0.2260
     31  O         42.1090   77.1640    6.7050 O.2    35  VAL35      -0.2867
     32  CB        39.5370   77.3610    8.3730 C.3    35  VAL35       0.0252
     33  CG1       39.5180   78.7940    8.9370 C.3    35  VAL35       0.0019
     34  CG2       38.2820   76.6150    8.7730 C.3    35  VAL35       0.0019
     35  N         38.6940   78.0320   22.8250 N.3    46  HIS46      -0.1241
     36  CA        37.2710   77.7950   23.0820 C.3    46  HIS46       0.1621
     37  C         37.0630   76.3050   23.1880 C.2    46  HIS46       0.2264
     38  O         37.9610   75.5290   22.9130 O.2    46  HIS46      -0.2867
     39  CB        36.4060   78.3460   21.9340 C.3    46  HIS46       0.0745
     40  CG        36.6630   77.6540   20.6340 C.ar   46  HIS46       0.0817
     41  ND1       37.7790   77.9130   19.8690 N.ar   46  HIS46      -0.2268
     42  CD2       35.9800   76.6870   19.9830 C.ar   46  HIS46       0.1154
     43  CE1       37.7560   77.1550   18.7870 C.ar   46  HIS46       0.1986
     44  NE2       36.6810   76.3960   18.8370 N.ar   46  HIS46      -0.2212
     45  N         33.8430   73.1420   22.5790 N.3    48  HIS48      -0.1241
     46  CA        32.4920   72.7770   22.1070 C.3    48  HIS48       0.1621
     47  C         31.8500   71.8020   23.0820 C.2    48  HIS48       0.2264
     48  O         32.4300   70.7760   23.4320 O.2    48  HIS48      -0.2867
     49  CB        32.5350   72.1630   20.7050 C.3    48  HIS48       0.0745
     50  CG        33.3220   73.0030   19.7550 C.ar   48  HIS48       0.0817
     51  ND1       32.9290   74.2760   19.4120 N.ar   48  HIS48      -0.2268
     52  CD2       34.5250   72.8050   19.1640 C.ar   48  HIS48       0.1154
     53  CE1       33.8380   74.8200   18.6210 C.ar   48  HIS48       0.1986
     54  NE2       34.8130   73.9440   18.4470 N.ar   48  HIS48      -0.2212
     55  N         35.9600   67.6350   17.3380 N.3    53  GLN53      -0.1245
     56  CA        36.6280   68.3710   16.2590 C.3    53  GLN53       0.1566
     57  C         38.0170   67.8060   16.0680 C.2    53  GLN53       0.2260
     58  O         38.7150   67.4870   17.0500 O.2    53  GLN53      -0.2867
     59  CB        36.7510   69.8820   16.5980 C.3    53  GLN53       0.0367
     60  CG        37.3810   70.6950   15.4640 C.3    53  GLN53       0.0905
     61  CD        37.5060   72.1810   15.8010 C.2    53  GLN53       0.2608
     62  OE1       36.7220   72.7370   16.6090 O.2    53  GLN53      -0.2717
     63  NE2       38.4540   72.8420   15.1610 N.am   53  GLN53      -0.0878
     64  N         40.6470   74.4090   22.9130 N.3    87  HIS87      -0.1241
     65  CA        41.6030   74.3820   21.8150 C.3    87  HIS87       0.1621
     66  C         41.6070   75.7380   21.2120 C.2    87  HIS87       0.2264
     67  O         40.6000   76.4630   21.3010 O.2    87  HIS87      -0.2867
     68  CB        41.2540   73.3300   20.7490 C.3    87  HIS87       0.0745
     69  CG        39.8650   73.4550   20.2060 C.ar   87  HIS87       0.0817
     70  ND1       38.7570   73.0740   20.9320 N.ar   87  HIS87      -0.2268
     71  CD2       39.3980   73.9130   19.0170 C.ar   87  HIS87       0.1154
     72  CE1       37.6620   73.2930   20.2150 C.ar   87  HIS87       0.1986
     73  NE2       38.0200   73.7710   19.0380 N.ar   87  HIS87      -0.2212
     74  N         38.9020   71.6630    9.3210 N.3   100  ASP100     -0.1239
     75  CA        38.1720   71.3700   10.5660 C.3   100  ASP100      0.1674
     76  C         37.0530   70.3840   10.2350 C.2   100  ASP100      0.2266
     77  O         36.2200   70.6070    9.3210 O.2   100  ASP100     -0.2867
     78  CB        37.5790   72.6570   11.1710 C.3   100  ASP100      0.1410
     79  CG        38.6410   73.5640   11.8560 C.2   100  ASP100      0.3668
     80  OD1       39.6750   73.0630   12.3390 O.co2 100  ASP100     -0.2456
     81  OD2       38.4090   74.7810   11.9150 O.co2 100  ASP100     -0.2456
     82  N         34.0320   67.8930   12.0790 N.3   102  PHE102     -0.1241
     83  CA        33.1630   67.9340   13.2470 C.3   102  PHE102      0.1605
     84  C         32.1880   66.7520   13.2150 C.2   102  PHE102      0.2264
     85  O         31.7790   66.2800   12.1340 O.2   102  PHE102     -0.2867
     86  CB        32.3440   69.2220   13.2330 C.3   102  PHE102      0.0534
     87  CG        33.1490   70.4840   13.3600 C.ar  102  PHE102     -0.0203
     88  CD1       33.5740   70.9300   14.6130 C.ar  102  PHE102     -0.0042
     89  CD2       33.4430   71.2600   12.2330 C.ar  102  PHE102     -0.0042
     90  CE1       34.2740   72.1230   14.7410 C.ar  102  PHE102     -0.0003
     91  CE2       34.1460   72.4430   12.3610 C.ar  102  PHE102     -0.0003
     92  CZ        34.5740   72.8750   13.6230 C.ar  102  PHE102     -0.0000
     93  N         28.0580   71.0580   12.3540 N.3   106  ARG106     -0.1245
     94  CA        27.9210   72.3670   13.0080 C.3   106  ARG106      0.1563
     95  C         26.8280   73.2050   12.3080 C.2   106  ARG106      0.2260
     96  O         27.1060   73.9400   11.3450 O.2   106  ARG106     -0.2867
     97  CB        29.2570   73.1150   12.9860 C.3   106  ARG106      0.0307
     98  CG        30.3140   72.5680   13.9400 C.3   106  ARG106      0.0489
     99  CD        30.1300   73.1610   15.3360 C.3   106  ARG106      0.2205
    100  NE        30.1290   74.6330   15.3000 N.pl3 106  ARG106     -0.0865
    101  CZ        31.2140   75.3940   15.4710 C.cat 106  ARG106      0.5346
    102  NH1       32.4110   74.8370   15.6210 N.pl3 106  ARG106      0.1354
    103  NH2       31.1090   76.7170   15.4450 N.pl3 106  ARG106      0.1354
    104  N         25.2180   75.7990   13.1890 N.3   108  ASP108     -0.1225
    105  CA        25.4890   77.2370   13.2790 C.3   108  ASP108      0.1805
    106  C         26.3010   77.8090   12.1160 C.2   108  ASP108      0.2597
    107  O         26.1710   78.9850   11.8000 O.2   108  ASP108     -0.2718
    108  CB        26.1460   77.5810   14.6230 C.3   108  ASP108      0.1424
    109  CG        27.5080   76.9060   14.7920 C.2   108  ASP108      0.3668
    110  OD1       27.5750   75.6640   14.7540 O.co2 108  ASP108     -0.2456
    111  OD2       28.5110   77.6210   14.9440 O.co2 108  ASP108     -0.2456
    112  N         27.1210   76.9940   11.4580 N.am  109  MET109     -0.1979
    113  CA        27.8270   77.4450   10.2440 C.3   109  MET109      0.1605
    114  C         26.9630   77.2900    8.9860 C.2   109  MET109      0.2287
    115  O         27.4140   77.6350    7.8820 O.2   109  MET109     -0.2864
    116  CB        29.1520   76.6760   10.0340 C.3   109  MET109      0.0413
    117  CG        30.0550   76.5840   11.2460 C.3   109  MET109      0.0598
    118  SD        31.7180   75.9820   10.8330 S.3   109  MET109     -0.1393
    119  CE        32.1830   75.3890   12.4140 C.3   109  MET109      0.0692
@<TRIPOS>BOND
     1    20    19    2
     2    19    18    1
     3    18    17    1
     4    18    21    1
     5    28    29    1
     6    21    22    1
     7    30    31    2
     8    30    29    1
     9    22    23    1
    10    29    32    1
    11     1     2    1
    12    23    24    1
    13   115   114    2
    14    24    25    2
    15    32    34    1
    16    32    33    1
    17     7     5    1
    18   114   113    1
    19     2     5    1
    20     2     3    1
    21    11    10    2
    22    77    76    2
    23    74    75    1
    24    25    27    1
    25    25    26    1
    26     5     6    1
    27     8     3   am
    28     8     9    1
    29    10     9    1
    30     3     4    2
    31   116   113    1
    32   116   117    1
    33    76    75    1
    34   113   112    1
    35     9    12    1
    36    75    78    1
    37   118   117    1
    38   118   119    1
    39    78    79    1
    40    96    95    2
    41   112   106   am
    42   107   106    2
    43    79    81   ar
    44    79    80   ar
    45    12    13    1
    46    82    83    1
    47   106   105    1
    48    85    84    2
    49    89    91   ar
    50    89    87   ar
    51    95    94    1
    52    93    94    1
    53    91    92   ar
    54    13    14    1
    55    97    94    1
    56    97    98    1
    57   104   105    1
    58    84    83    1
    59    86    83    1
    60    86    87    1
    61   105   108    1
    62    87    88   ar
    63    92    90   ar
    64    14    15   ar
    65    14    16   ar
    66    98    99    1
    67    88    90   ar
    68   108   109    1
    69   110   109   ar
    70   109   111   ar
    71    63    61   am
    72   100    99    1
    73   100   101    2
    74   103   101    1
    75    60    61    1
    76    60    59    1
    77   101   102    1
    78    61    62    2
    79    57    56    1
    80    57    58    2
    81    56    59    1
    82    56    55    1
    83    54    53   ar
    84    54    52   ar
    85    53    51   ar
    86    43    44   ar
    87    43    41   ar
    88    44    42   ar
    89    71    73   ar
    90    71    69   ar
    91    73    72   ar
    92    52    50   ar
    93    51    50   ar
    94    50    49    1
    95    41    40   ar
    96    42    40   ar
    97    69    68    1
    98    69    70   ar
    99    72    70   ar
   100    40    39    1
   101    49    46    1
   102    68    65    1
   103    66    67    2
   104    66    65    1
   105    65    64    1
   106    39    36    1
   107    46    45    1
   108    46    47    1
   109    35    36    1
   110    38    37    2
   111    47    48    2
   112    36    37    1
