@<TRIPOS>MOLECULE
tmp/5fq6M02.pdb
 145 137 0 0 0
SMALL
GASTEIGER

@<TRIPOS>ATOM
      1  N       -182.5710   -5.8910  -31.5030 N.3   352  PHE352     -0.1241
      2  CA      -183.0790   -5.4070  -30.2270 C.3   352  PHE352      0.1605
      3  C       -183.9620   -4.2180  -30.5300 C.2   352  PHE352      0.2264
      4  O       -183.5680   -3.3290  -31.2960 O.2   352  PHE352     -0.2867
      5  CB      -181.9740   -5.0000  -29.2350 C.3   352  PHE352      0.0534
      6  CG      -182.4910   -4.2910  -27.9920 C.ar  352  PHE352     -0.0203
      7  CD1     -182.9810   -5.0200  -26.9100 C.ar  352  PHE352     -0.0042
      8  CD2     -182.4940   -2.9060  -27.9240 C.ar  352  PHE352     -0.0042
      9  CE1     -183.4580   -4.3860  -25.7720 C.ar  352  PHE352     -0.0003
     10  CE2     -182.9620   -2.2600  -26.8010 C.ar  352  PHE352     -0.0003
     11  CZ      -183.4490   -3.0000  -25.7110 C.ar  352  PHE352     -0.0000
     12  N       -186.8540   -1.4830  -28.6840 N.3   354  LEU354     -0.1245
     13  CA      -187.4030   -0.9150  -27.4710 C.3   354  LEU354      0.1561
     14  C       -188.4570    0.1040  -27.8640 C.2   354  LEU354      0.2260
     15  O       -188.1620    1.0360  -28.6190 O.2   354  LEU354     -0.2867
     16  CB      -186.3110   -0.2590  -26.6420 C.3   354  LEU354      0.0270
     17  CG      -186.9860    0.5140  -25.5320 C.3   354  LEU354      0.0019
     18  CD1     -186.5640   -0.1050  -24.2490 C.3   354  LEU354      0.0001
     19  CD2     -186.6240    1.9810  -25.5960 C.3   354  LEU354      0.0001
     20  N       -191.9530    6.1400  -29.0400 N.3   364  PHE364     -0.1241
     21  CA      -190.5340    6.1560  -29.3790 C.3   364  PHE364      0.1605
     22  C       -190.0540    4.7290  -29.5910 C.2   364  PHE364      0.2264
     23  O       -190.3470    3.8440  -28.7790 O.2   364  PHE364     -0.2867
     24  CB      -189.7150    6.8300  -28.2820 C.3   364  PHE364      0.0534
     25  CG      -188.2160    6.6880  -28.4480 C.ar  364  PHE364     -0.0203
     26  CD1     -187.5510    5.5400  -28.0120 C.ar  364  PHE364     -0.0042
     27  CD2     -187.4630    7.7210  -28.9900 C.ar  364  PHE364     -0.0042
     28  CE1     -186.1830    5.4160  -28.1420 C.ar  364  PHE364     -0.0003
     29  CE2     -186.0910    7.6050  -29.1110 C.ar  364  PHE364     -0.0003
     30  CZ      -185.4500    6.4470  -28.6880 C.ar  364  PHE364     -0.0000
     31  N       -186.6000    2.4760  -30.7270 N.3   366  TYR366     -0.1241
     32  CA      -185.2140    2.2490  -31.0900 C.3   366  TYR366      0.1605
     33  C       -185.1180    0.8130  -31.5960 C.2   366  TYR366      0.2264
     34  O       -185.7010   -0.0990  -31.0020 O.2   366  TYR366     -0.2867
     35  CB      -184.2770    2.5070  -29.8910 C.3   366  TYR366      0.0534
     36  CG      -182.8540    2.0540  -30.1480 C.ar  366  TYR366     -0.0201
     37  CD1     -182.0540    2.7090  -31.0850 C.ar  366  TYR366     -0.0009
     38  CD2     -182.3350    0.9340  -29.5120 C.ar  366  TYR366     -0.0009
     39  CE1     -180.7750    2.2790  -31.3600 C.ar  366  TYR366      0.0417
     40  CE2     -181.0480    0.4940  -29.7770 C.ar  366  TYR366      0.0417
     41  CZ      -180.2710    1.1700  -30.7060 C.ar  366  TYR366      0.1957
     42  OH      -178.9890    0.7510  -30.9820 O.3   366  TYR366     -0.2866
     43  N       -182.2280   -2.0170  -33.3330 N.3   368  MET368     -0.1245
     44  CA      -180.8440   -2.2460  -33.7130 C.3   368  MET368      0.1570
     45  C       -180.7230   -3.6400  -34.2960 C.2   368  MET368      0.2261
     46  O       -181.2440   -4.6140  -33.7420 O.2   368  MET368     -0.2867
     47  CB      -179.8620   -2.0810  -32.5240 C.3   368  MET368      0.0387
     48  CG      -178.3870   -2.3910  -32.9090 C.3   368  MET368      0.0595
     49  SD      -177.0490   -1.9100  -31.7820 S.3   368  MET368     -0.1393
     50  CE      -175.6970   -2.8170  -32.5410 C.3   368  MET368      0.0692
     51  N       -170.3470   -8.5340  -42.1280 N.3   419  ARG419     -0.1245
     52  CA      -170.9480   -7.9700  -40.9310 C.3   419  ARG419      0.1563
     53  C       -171.7320   -6.7190  -41.3010 C.2   419  ARG419      0.2260
     54  O       -171.1730   -5.8120  -41.9340 O.2   419  ARG419     -0.2867
     55  CB      -169.8720   -7.6620  -39.9000 C.3   419  ARG419      0.0307
     56  CG      -170.3640   -7.1000  -38.5940 C.3   419  ARG419      0.0489
     57  CD      -169.2630   -7.2100  -37.5580 C.3   419  ARG419      0.2205
     58  NE      -169.6010   -6.5640  -36.2980 N.pl3 419  ARG419     -0.0865
     59  CZ      -169.4130   -5.2700  -36.0650 C.cat 419  ARG419      0.5346
     60  NH1     -168.8950   -4.4960  -37.0230 N.pl3 419  ARG419      0.1354
     61  NH2     -169.7320   -4.7510  -34.8790 N.pl3 419  ARG419      0.1354
     62  N       -174.4910   -3.7800  -39.6560 N.3   421  ILE421     -0.1245
     63  CA      -175.1770   -3.1370  -38.5520 C.3   421  ILE421      0.1561
     64  C       -176.2060   -2.1840  -39.1340 C.2   421  ILE421      0.2260
     65  O       -175.9080   -1.4460  -40.0840 O.2   421  ILE421     -0.2867
     66  CB      -174.2000   -2.3650  -37.6540 C.3   421  ILE421      0.0252
     67  CG1     -173.2420   -3.3220  -36.9490 C.3   421  ILE421      0.0019
     68  CG2     -174.9810   -1.4950  -36.6590 C.3   421  ILE421      0.0019
     69  CD1     -173.8460   -4.0030  -35.7750 C.3   421  ILE421      0.0001
     70  N       -179.2910    0.6850  -37.6580 N.3   423  GLN423     -0.1245
     71  CA      -179.8530    1.3570  -36.4960 C.3   423  GLN423      0.1566
     72  C       -180.9800    2.2830  -36.9050 C.2   423  GLN423      0.2260
     73  O       -180.8110    3.0990  -37.8150 O.2   423  GLN423     -0.2867
     74  CB      -178.7940    2.1690  -35.7530 C.3   423  GLN423      0.0367
     75  CG      -177.6020    1.3760  -35.3470 C.3   423  GLN423      0.0905
     76  CD      -177.2490    1.6210  -33.9380 C.2   423  GLN423      0.2608
     77  OE1     -178.1240    1.8280  -33.0960 O.2   423  GLN423     -0.2717
     78  NE2     -175.9540    1.6320  -33.6550 N.am  423  GLN423     -0.0878
     79  N       -183.8950    4.9560  -35.2120 N.3   425  ILE425     -0.1245
     80  CA      -184.4580    5.7220  -34.1010 C.3   425  ILE425      0.1561
     81  C       -185.6530    6.4870  -34.6610 C.2   425  ILE425      0.2260
     82  O       -185.4830    7.3490  -35.5330 O.2   425  ILE425     -0.2867
     83  CB      -183.4230    6.6710  -33.4610 C.3   425  ILE425      0.0252
     84  CG1     -182.2240    5.8820  -32.9370 C.3   425  ILE425      0.0019
     85  CG2     -184.0070    7.4250  -32.2760 C.3   425  ILE425      0.0019
     86  CD1     -180.9330    6.6680  -32.9510 C.3   425  ILE425      0.0001
     87  N       -184.5010    8.3060  -37.8440 N.3   444  PHE444     -0.1241
     88  CA      -183.1080    8.3080  -38.2530 C.3   444  PHE444      0.1605
     89  C       -182.6960    6.8760  -38.5680 C.2   444  PHE444      0.2264
     90  O       -183.0700    5.9440  -37.8520 O.2   444  PHE444     -0.2867
     91  CB      -182.2130    8.9110  -37.1630 C.3   444  PHE444      0.0534
     92  CG      -180.7580    8.5430  -37.3080 C.ar  444  PHE444     -0.0203
     93  CD1     -179.8940    9.3320  -38.0720 C.ar  444  PHE444     -0.0042
     94  CD2     -180.2510    7.3970  -36.6890 C.ar  444  PHE444     -0.0042
     95  CE1     -178.5680    8.9740  -38.2180 C.ar  444  PHE444     -0.0003
     96  CE2     -178.9310    7.0370  -36.8360 C.ar  444  PHE444     -0.0003
     97  CZ      -178.0920    7.8200  -37.6010 C.ar  444  PHE444     -0.0000
     98  N       -179.2290    4.4810  -39.6590 N.3   446  GLY446     -0.1210
     99  CA      -177.7900    4.3710  -39.8410 C.3   446  GLY446      0.1956
    100  C       -177.4380    2.9330  -40.1370 C.2   446  GLY446      0.2612
    101  O       -178.0570    2.0100  -39.6050 O.2   446  GLY446     -0.2717
    102  N       -176.4520    2.7510  -41.0090 N.am  447  ASN447     -0.1960
    103  CA      -176.1740    1.4510  -41.5890 C.3   447  ASN447      0.1819
    104  C       -174.6890    1.3590  -41.9080 C.2   447  ASN447      0.2621
    105  O       -174.0690    2.3440  -42.3180 O.2   447  ASN447     -0.2715
    106  CB      -177.0160    1.2470  -42.8520 C.3   447  ASN447      0.1195
    107  CG      -176.8510   -0.1310  -43.4390 C.2   447  ASN447      0.2630
    108  OD1     -176.1390   -0.3210  -44.4240 O.2   447  ASN447     -0.2716
    109  ND2     -177.5220   -1.1050  -42.8430 N.am  447  ASN447     -0.0877
    110  N       -174.1240    0.1720  -41.7310 N.am  448  GLU448     -0.1977
    111  CA      -172.7080   -0.0560  -42.0060 C.3   448  GLU448      0.1602
    112  C       -172.5720   -1.4970  -42.4540 C.2   448  GLU448      0.2287
    113  O       -173.0820   -2.4050  -41.7940 O.2   448  GLU448     -0.2864
    114  CB      -171.8380    0.2260  -40.7820 C.3   448  GLU448      0.0415
    115  CG      -170.4070   -0.2910  -40.8540 C.3   448  GLU448      0.1163
    116  CD      -169.7020   -0.2260  -39.4880 C.2   448  GLU448      0.3649
    117  OE1     -169.3050    0.8960  -39.0800 O.co2 448  GLU448     -0.2457
    118  OE2     -169.5650   -1.2900  -38.8200 O.co2 448  GLU448     -0.2457
    119  N       -170.8570    2.8500  -45.5710 N.3   486  ARG486     -0.1231
    120  CA      -171.6500    3.4130  -44.4970 C.3   486  ARG486      0.1694
    121  C       -172.6710    4.3810  -45.0810 C.2   486  ARG486      0.2592
    122  O       -172.5480    4.8520  -46.2230 O.2   486  ARG486     -0.2718
    123  CB      -170.7640    4.1110  -43.4520 C.3   486  ARG486      0.0321
    124  CG      -169.9610    3.1120  -42.5980 C.3   486  ARG486      0.0489
    125  CD      -169.6660    3.6160  -41.2140 C.3   486  ARG486      0.2205
    126  NE      -168.3690    4.2760  -41.1590 N.pl3 486  ARG486     -0.0865
    127  CZ      -167.2490    3.7310  -40.6820 C.cat 486  ARG486      0.5346
    128  NH1     -167.2360    2.4950  -40.1940 N.pl3 486  ARG486      0.1354
    129  NH2     -166.1330    4.4360  -40.6980 N.pl3 486  ARG486      0.1354
    130  N       -173.7040    4.6500  -44.2800 N.am  487  LEU487     -0.1966
    131  CA      -174.8350    5.4680  -44.7060 C.3   487  LEU487      0.1728
    132  C       -175.6850    5.8650  -43.5120 C.2   487  LEU487      0.2616
    133  O       -176.0010    5.0200  -42.6660 O.2   487  LEU487     -0.2715
    134  CB      -175.6880    4.7160  -45.7330 C.3   487  LEU487      0.0311
    135  CG      -177.1600    5.1130  -45.9120 C.3   487  LEU487      0.0022
    136  CD1     -177.3160    6.4950  -46.4870 C.3   487  LEU487      0.0001
    137  CD2     -177.8740    4.1170  -46.7890 C.3   487  LEU487      0.0001
    138  N       -176.0380    7.1460  -43.4170 N.am  488  MET488     -0.1977
    139  CA      -177.0840    7.5820  -42.5070 C.3   488  MET488      0.1605
    140  C       -178.1800    8.3020  -43.2960 C.2   488  MET488      0.2287
    141  O       -177.9630    8.7890  -44.4140 O.2   488  MET488     -0.2864
    142  CB      -176.5470    8.4740  -41.3790 C.3   488  MET488      0.0413
    143  CG      -175.0970    8.8580  -41.4870 C.3   488  MET488      0.0598
    144  SD      -174.4200    9.6520  -39.9780 S.3   488  MET488     -0.1393
    145  CE      -174.8880    8.4250  -38.7540 C.3   488  MET488      0.0692
@<TRIPOS>BOND
     1   137   135    1
     2   136   135    1
     3   122   121    2
     4   135   134    1
     5   134   131    1
     6   119   120    1
     7   121   120    1
     8   121   130   am
     9   131   130    1
    10   131   132    1
    11   120   123    1
    12   108   107    2
    13   141   140    2
    14   132   138   am
    15   132   133    2
    16   123   124    1
    17   107   106    1
    18   107   109   am
    19   138   139    1
    20   140   139    1
    21   106   103    1
    22   124   125    1
    23   139   142    1
    24   112   111    1
    25   112   113    2
    26   105   104    2
    27    51    52    1
    28   111   110    1
    29   111   114    1
    30    54    53    2
    31   104   110   am
    32   104   103    1
    33   103   102    1
    34   143   142    1
    35   143   144    1
    36    53    52    1
    37   125   126    1
    38   126   127    2
    39   102   100   am
    40    52    55    1
    41   115   114    1
    42   115   116    1
    43   129   127    1
    44   127   128    1
    45   100    99    1
    46   100   101    2
    47    65    64    2
    48   144   145    1
    49    55    56    1
    50    99    98    1
    51    62    63    1
    52   116   117   ar
    53   116   118   ar
    54    64    63    1
    55    56    57    1
    56    89    88    1
    57    89    90    2
    58    63    66    1
    59    88    87    1
    60    88    91    1
    61    95    93   ar
    62    95    97   ar
    63    93    92   ar
    64    73    72    2
    65    70    71    1
    66    66    67    1
    67    66    68    1
    68    97    96   ar
    69    57    58    1
    70    92    91    1
    71    92    94   ar
    72    60    59    1
    73    67    69    1
    74    72    71    1
    75    96    94   ar
    76    71    74    1
    77    58    59    2
    78    59    61    1
    79    74    75    1
    80    82    81    2
    81    75    76    1
    82    79    80    1
    83    81    80    1
    84    45    46    2
    85    45    44    1
    86    80    83    1
    87    76    78   am
    88    76    77    2
    89    44    43    1
    90    44    47    1
    91    83    84    1
    92    83    85    1
    93    86    84    1
    94    48    47    1
    95    48    49    1
    96    50    49    1
    97    33    32    1
    98    33    34    2
    99     1     2    1
   100    39    37   ar
   101    39    41   ar
   102     4     3    2
   103    32    31    1
   104    32    35    1
   105    37    36   ar
   106    42    41    1
   107    41    40   ar
   108     3     2    1
   109     2     5    1
   110    36    35    1
   111    36    38   ar
   112    40    38   ar
   113    22    21    1
   114    22    23    2
   115    21    20    1
   116    21    24    1
   117     5     6    1
   118    29    27   ar
   119    29    30   ar
   120    27    25   ar
   121    30    28   ar
   122    12    13    1
   123    15    14    2
   124    25    24    1
   125    25    26   ar
   126    28    26   ar
   127     6     8   ar
   128     6     7   ar
   129     8    10   ar
   130    14    13    1
   131    13    16    1
   132     7     9   ar
   133    10    11   ar
   134    16    17    1
   135     9    11   ar
   136    19    17    1
   137    17    18    1
