@<TRIPOS>MOLECULE
tmp/5fq9A00.pdb
 116 109 0 0 0
SMALL
GASTEIGER

@<TRIPOS>ATOM
      1  N        -20.2210   16.1430   -3.0460 N.3    49  SER49      -0.1217
      2  CA       -19.7100   15.5040   -1.8230 C.3    49  SER49       0.1889
      3  C        -18.7850   14.3330   -2.0860 C.2    49  SER49       0.2288
      4  O        -18.1500   13.8440   -1.1340 O.2    49  SER49      -0.2866
      5  CB       -20.8880   15.0970   -0.9360 C.3    49  SER49       0.2089
      6  OG       -21.4930   16.2830   -0.4750 O.3    49  SER49      -0.2183
      7  N        -28.8000   20.7180    7.3670 N.3    80  MET80      -0.1245
      8  CA       -29.4660   19.4370    7.5720 C.3    80  MET80       0.1570
      9  C        -29.3920   19.0970    9.0550 C.2    80  MET80       0.2261
     10  O        -28.3580   19.2700    9.6800 O.2    80  MET80      -0.2867
     11  CB       -28.8070   18.3040    6.7780 C.3    80  MET80       0.0387
     12  CG       -28.7870   18.5840    5.2800 C.3    80  MET80       0.0595
     13  SD       -28.3650   17.1580    4.3410 S.3    80  MET80      -0.1393
     14  CE       -29.9570   16.3160    4.4000 C.3    80  MET80       0.0692
     15  N        -26.5490   17.0230   10.4540 N.3    83  TRP83      -0.1241
     16  CA       -25.2760   17.6760   10.6960 C.3    83  TRP83       0.1605
     17  C        -25.1810   18.3750   12.0360 C.2    83  TRP83       0.2264
     18  O        -24.0870   18.8500   12.3800 O.2    83  TRP83      -0.2867
     19  CB       -24.9880   18.6970    9.6110 C.3    83  TRP83       0.0550
     20  CG       -24.9990   18.1420    8.1920 C.ar   83  TRP83       0.0003
     21  CD1      -24.9650   16.8360    7.8140 C.ar   83  TRP83       0.0946
     22  CD2      -25.0650   18.9180    6.9820 C.ar   83  TRP83       0.0152
     23  NE1      -24.9960   16.7450    6.4260 N.ar   83  TRP83      -0.2442
     24  CE2      -25.1020   18.0110    5.8910 C.ar   83  TRP83       0.0810
     25  CE3      -25.1090   20.2770    6.7100 C.ar   83  TRP83       0.0012
     26  CZ2      -25.1230   18.4460    4.5830 C.ar   83  TRP83       0.0191
     27  CZ3      -25.1720   20.7100    5.4120 C.ar   83  TRP83       0.0001
     28  CH2      -25.1970   19.7980    4.3460 C.ar   83  TRP83       0.0015
     29  N        -22.5890   11.1580    6.7300 N.3    95  VAL95      -0.1231
     30  CA       -23.7670   12.0390    6.6770 C.3    95  VAL95       0.1692
     31  C        -23.5160   13.2360    5.7560 C.2    95  VAL95       0.2592
     32  O        -24.4220   14.0690    5.5680 O.2    95  VAL95      -0.2718
     33  CB       -24.2640   12.5340    8.0530 C.3    95  VAL95       0.0266
     34  CG1      -24.5240   11.3050    8.9770 C.3    95  VAL95       0.0020
     35  CG2      -23.2950   13.5200    8.6760 C.3    95  VAL95       0.0020
     36  N        -22.3560   13.2600    5.0790 N.am   96  SER96      -0.1952
     37  CA       -22.0120   14.2880    4.1030 C.3    96  SER96       0.1924
     38  C        -22.1010   15.7020    4.6910 C.2    96  SER96       0.2314
     39  O        -22.6710   16.5930    4.0980 O.2    96  SER96      -0.2863
     40  CB       -22.8300   14.1470    2.8440 C.3    96  SER96       0.2116
     41  OG       -22.0040   14.4550    1.7550 O.3    96  SER96      -0.2180
     42  N        -21.2960   18.9810    5.0220 N.3    98  VAL98      -0.1245
     43  CA       -20.6570   20.0690    4.2750 C.3    98  VAL98       0.1561
     44  C        -19.9290   21.0400    5.1740 C.2    98  VAL98       0.2260
     45  O        -18.7570   21.3360    4.8990 O.2    98  VAL98      -0.2867
     46  CB       -21.6860   20.7550    3.3700 C.3    98  VAL98       0.0252
     47  CG1      -21.1030   22.0240    2.7740 C.3    98  VAL98       0.0019
     48  CG2      -22.1380   19.7670    2.2820 C.3    98  VAL98       0.0019
     49  N        -18.4700   22.2780   -4.8800 N.3   136  LEU136     -0.1245
     50  CA       -19.9180   22.3130   -4.7480 C.3   136  LEU136      0.1561
     51  C        -20.5600   23.2250   -5.7710 C.2   136  LEU136      0.2260
     52  O        -21.6610   22.9180   -6.2710 O.2   136  LEU136     -0.2867
     53  CB       -20.2690   22.8370   -3.3620 C.3   136  LEU136      0.0270
     54  CG       -19.7660   22.0400   -2.1610 C.3   136  LEU136      0.0019
     55  CD1      -19.9750   22.7900   -0.8440 C.3   136  LEU136      0.0001
     56  CD2      -20.4720   20.7550   -2.1590 C.3   136  LEU136      0.0001
     57  N        -21.6150    8.9980   -1.8660 N.3   187  THR187     -0.1203
     58  CA       -22.6110    9.7040   -2.6300 C.3   187  THR187      0.1994
     59  C        -22.1840   11.1690   -2.8300 C.2   187  THR187      0.2618
     60  O        -21.4100   11.7640   -2.0690 O.2   187  THR187     -0.2717
     61  CB       -23.9690    9.6790   -1.9500 C.3   187  THR187      0.1784
     62  OG1      -23.7820   10.0970   -0.6080 O.3   187  THR187     -0.2211
     63  CG2      -24.5660    8.2480   -1.9550 C.3   187  THR187      0.0376
     64  N        -22.7210   11.7410   -3.9080 N.am  188  GLY188     -0.1942
     65  CA       -22.6320   13.1780   -4.1230 C.3   188  GLY188      0.2014
     66  C        -23.8810   13.6800   -4.7960 C.2   188  GLY188      0.2639
     67  O        -24.6110   12.9400   -5.4800 O.2   188  GLY188     -0.2714
     68  N        -24.1630   14.9650   -4.5760 N.am  189  PHE189     -0.1959
     69  CA       -25.3650   15.5810   -5.1180 C.3   189  PHE189      0.1771
     70  C        -25.0780   17.0820   -5.1750 C.2   189  PHE189      0.2620
     71  O        -24.8690   17.7070   -4.1330 O.2   189  PHE189     -0.2715
     72  CB       -26.5730   15.2920   -4.2290 C.3   189  PHE189      0.0574
     73  CG       -27.8280   16.0220   -4.5960 C.ar  189  PHE189     -0.0200
     74  CD1      -28.2800   16.1180   -5.9360 C.ar  189  PHE189     -0.0042
     75  CD2      -28.6030   16.6050   -3.6150 C.ar  189  PHE189     -0.0042
     76  CE1      -29.5010   16.7850   -6.2520 C.ar  189  PHE189     -0.0003
     77  CE2      -29.7830   17.2430   -3.8960 C.ar  189  PHE189     -0.0003
     78  CZ       -30.2570   17.3530   -5.2260 C.ar  189  PHE189     -0.0000
     79  N        -25.0710   17.6710   -6.3640 N.am  190  SER190     -0.1936
     80  CA       -24.7470   19.0840   -6.4920 C.3   190  SER190      0.2055
     81  C        -25.9530   20.0030   -6.2850 C.2   190  SER190      0.2643
     82  O        -25.7650   21.1960   -6.0490 O.2   190  SER190     -0.2714
     83  CB       -24.0340   19.4290   -7.8040 C.3   190  SER190      0.2130
     84  OG       -24.9800   19.3530   -8.8770 O.3   190  SER190     -0.2179
     85  N        -27.1540   19.4680   -6.3520 N.am  191  GLY191     -0.1954
     86  CA       -28.3730   20.2620   -6.3330 C.3   191  GLY191      0.1869
     87  C        -29.1640   19.9940   -7.5970 C.2   191  GLY191      0.2309
     88  O        -28.8120   19.1190   -8.3950 O.2   191  GLY191     -0.2863
     89  N        -35.1140   16.5740   -6.4510 N.3   225  GLU225     -0.1245
     90  CA       -34.6060   15.7330   -5.3690 C.3   225  GLU225      0.1567
     91  C        -35.3120   14.3910   -5.2800 C.2   225  GLU225      0.2260
     92  O        -34.7440   13.4460   -4.7310 O.2   225  GLU225     -0.2867
     93  CB       -34.7030   16.4100   -3.9830 C.3   225  GLU225      0.0388
     94  CG       -33.6650   17.4350   -3.7870 C.3   225  GLU225      0.1160
     95  CD       -33.6010   17.9940   -2.3600 C.2   225  GLU225      0.3649
     96  OE1      -34.6370   17.9560   -1.6450 O.co2 225  GLU225     -0.2457
     97  OE2      -32.5160   18.5000   -1.9870 O.co2 225  GLU225     -0.2457
     98  N        -33.3340   11.3020   -6.3910 N.3   228  LEU228     -0.1245
     99  CA       -32.0350   10.9730   -5.8330 C.3   228  LEU228      0.1561
    100  C        -31.8360    9.4930   -5.5040 C.2   228  LEU228      0.2260
    101  O        -30.6860    9.0290   -5.6300 O.2   228  LEU228     -0.2867
    102  CB       -31.7670   11.8620   -4.6280 C.3   228  LEU228      0.0270
    103  CG       -30.3270   12.0120   -4.2200 C.3   228  LEU228      0.0019
    104  CD1      -29.4630   12.5320   -5.3540 C.3   228  LEU228      0.0001
    105  CD2      -30.3400   12.9730   -3.0740 C.3   228  LEU228      0.0001
    106  N        -29.6980    7.2580   -7.9230 N.3   231  ARG231     -0.1245
    107  CA       -28.2640    7.2710   -8.0040 C.3   231  ARG231      0.1563
    108  C        -27.6540    6.0180   -7.3370 C.2   231  ARG231      0.2260
    109  O        -26.5230    5.6470   -7.6630 O.2   231  ARG231     -0.2867
    110  CB       -27.8170    8.6230   -7.4260 C.3   231  ARG231      0.0307
    111  CG       -26.5430    8.7050   -6.8840 C.3   231  ARG231      0.0489
    112  CD       -26.4950    8.1450   -5.4520 C.3   231  ARG231      0.2205
    113  NE       -27.2580    8.7900   -4.3600 N.pl3 231  ARG231     -0.0865
    114  CZ       -27.0020    9.9690   -3.8090 C.cat 231  ARG231      0.5346
    115  NH1      -26.0070   10.7570   -4.2600 N.pl3 231  ARG231      0.1354
    116  NH2      -27.6920   10.3560   -2.7770 N.pl3 231  ARG231      0.1354
@<TRIPOS>BOND
     1    84    83    1
     2    88    87    2
     3   107   106    1
     4   107   110    1
     5   107   108    1
     6    83    80    1
     7   109   108    2
     8    87    86    1
     9   110   111    1
    10   111   112    1
    11    80    79    1
    12    80    81    1
    13    89    90    1
    14    98    99    1
    15    79    70   am
    16    85    86    1
    17    85    81   am
    18    81    82    2
    19    52    51    2
    20    76    74   ar
    21    76    78   ar
    22    74    73   ar
    23    99   100    1
    24    99   102    1
    25    51    50    1
    26   101   100    2
    27    67    66    2
    28   112   113    1
    29    90    91    1
    30    90    93    1
    31   104   103    1
    32    91    92    2
    33    78    77   ar
    34    70    69    1
    35    70    71    2
    36    69    68    1
    37    69    72    1
    38    49    50    1
    39    66    68   am
    40    66    65    1
    41    50    53    1
    42   102   103    1
    43    73    72    1
    44    73    75   ar
    45   113   114    2
    46   115   114    1
    47   103   105    1
    48    65    64    1
    49    93    94    1
    50    64    59   am
    51    77    75   ar
    52   114   116    1
    53    94    95    1
    54    53    54    1
    55     1     2    1
    56    59    58    1
    57    59    60    2
    58    58    61    1
    59    58    57    1
    60    95    97   ar
    61    95    96   ar
    62    54    56    1
    63    54    55    1
    64     3     2    1
    65     3     4    2
    66    63    61    1
    67    61    62    1
    68     2     5    1
    69     5     6    1
    70    41    40    1
    71    48    46    1
    72    47    46    1
    73    40    37    1
    74    46    43    1
    75    39    38    2
    76    37    38    1
    77    37    36    1
    78    43    42    1
    79    43    44    1
    80    13    14    1
    81    13    12    1
    82    28    26   ar
    83    28    27   ar
    84    26    24   ar
    85    45    44    2
    86    36    31   am
    87    12    11    1
    88    27    25   ar
    89    32    31    2
    90    31    30    1
    91    24    23   ar
    92    24    22   ar
    93    23    21   ar
    94    30    29    1
    95    30    33    1
    96    25    22   ar
    97    11     8    1
    98    22    20   ar
    99     7     8    1
   100     8     9    1
   101    21    20   ar
   102    33    35    1
   103    33    34    1
   104    20    19    1
   105     9    10    2
   106    19    16    1
   107    15    16    1
   108    16    17    1
   109    17    18    2
