@<TRIPOS>MOLECULE
tmp/5fqbA00.pdb
 143 138 0 0 0
SMALL
GASTEIGER

@<TRIPOS>ATOM
      1  N         63.4660   17.4310   22.1730 N.3    29  PHE29      -0.1241
      2  CA        62.8970   16.9660   23.4310 C.3    29  PHE29       0.1605
      3  C         63.4900   17.7600   24.5880 C.2    29  PHE29       0.2264
      4  O         62.8270   17.9850   25.5960 O.2    29  PHE29      -0.2867
      5  CB        63.1590   15.4690   23.6240 C.3    29  PHE29       0.0534
      6  CG        62.4880   14.8820   24.8370 C.ar   29  PHE29      -0.0203
      7  CD1       63.1250   14.8930   26.0710 C.ar   29  PHE29      -0.0042
      8  CD2       61.2240   14.3130   24.7430 C.ar   29  PHE29      -0.0042
      9  CE1       62.5150   14.3560   27.1910 C.ar   29  PHE29      -0.0003
     10  CE2       60.6080   13.7700   25.8580 C.ar   29  PHE29      -0.0003
     11  CZ        61.2570   13.7960   27.0880 C.ar   29  PHE29      -0.0000
     12  N         67.5550   14.9880   20.2050 N.3    31  VAL31      -0.1245
     13  CA        67.7060   13.6160   20.6760 C.3    31  VAL31       0.1561
     14  C         67.6090   12.6250   19.5230 C.2    31  VAL31       0.2260
     15  O         66.5900   12.5870   18.8340 O.2    31  VAL31      -0.2867
     16  CB        66.6220   13.2760   21.7250 C.3    31  VAL31       0.0252
     17  CG1       66.8760   11.9050   22.3480 C.3    31  VAL31       0.0019
     18  CG2       66.5570   14.3610   22.8000 C.3    31  VAL31       0.0019
     19  N         59.5550   10.1620   15.7340 N.3    51  TRP51      -0.1241
     20  CA        59.0490   11.1480   16.6890 C.3    51  TRP51       0.1605
     21  C         57.7070   11.7680   16.3310 C.2    51  TRP51       0.2264
     22  O         56.9220   12.1180   17.2140 O.2    51  TRP51      -0.2867
     23  CB        60.0570   12.2900   16.8310 C.3    51  TRP51       0.0550
     24  CG        61.3720   11.8970   17.3850 C.ar   51  TRP51       0.0003
     25  CD1       62.4790   11.5050   16.6870 C.ar   51  TRP51       0.0946
     26  CD2       61.7360   11.8710   18.7710 C.ar   51  TRP51       0.0152
     27  NE1       63.5110   11.2340   17.5540 N.ar   51  TRP51      -0.2442
     28  CE2       63.0840   11.4480   18.8400 C.ar   51  TRP51       0.0810
     29  CE3       61.0540   12.1600   19.9570 C.ar   51  TRP51       0.0012
     30  CZ2       63.7730   11.3190   20.0560 C.ar   51  TRP51       0.0191
     31  CZ3       61.7420   12.0370   21.1670 C.ar   51  TRP51       0.0001
     32  CH2       63.0870   11.6080   21.2010 C.ar   51  TRP51       0.0015
     33  N         55.4280    5.6630   23.6520 N.3    80  HIS80      -0.1226
     34  CA        55.9730    7.0220   23.7190 C.3    80  HIS80       0.1752
     35  C         56.1660    7.5870   22.3060 C.2    80  HIS80       0.2596
     36  O         56.1970    6.8350   21.3450 O.2    80  HIS80      -0.2718
     37  CB        57.3100    7.0270   24.4750 C.3    80  HIS80       0.0759
     38  CG        57.1740    7.0450   25.9570 C.ar   80  HIS80       0.0818
     39  ND1       58.1870    6.6170   26.7990 N.ar   80  HIS80      -0.2268
     40  CD2       56.1780    7.4930   26.7580 C.ar   80  HIS80       0.1154
     41  CE1       57.8100    6.8010   28.0490 C.ar   80  HIS80       0.1986
     42  NE2       56.5970    7.3290   28.0510 N.ar   80  HIS80      -0.2212
     43  N         56.3270    8.9060   22.1950 N.am   81  ALA81      -0.1966
     44  CA        56.4070    9.5860   20.9070 C.3    81  ALA81       0.1728
     45  C         57.5390    9.1330   19.9960 C.2    81  ALA81       0.2616
     46  O         57.3270    9.0370   18.7800 O.2    81  ALA81      -0.2715
     47  CB        56.5180   11.0690   21.1200 C.3    81  ALA81       0.0334
     48  N         58.7300    8.8630   20.5330 N.am   82  ASP82      -0.1971
     49  CA        59.8270    8.4710   19.6500 C.3    82  ASP82       0.1709
     50  C         59.5110    7.1460   18.9780 C.2    82  ASP82       0.2293
     51  O         60.0530    6.8280   17.9130 O.2    82  ASP82      -0.2864
     52  CB        61.1940    8.4200   20.3870 C.3    82  ASP82       0.1436
     53  CG        61.1980    7.5520   21.6580 C.2    82  ASP82       0.3671
     54  OD1       60.1210    7.2790   22.2280 O.co2  82  ASP82      -0.2456
     55  OD2       62.3210    7.1730   22.1020 O.co2  82  ASP82      -0.2456
     56  N         46.7260    8.1280   25.7100 N.3   110  ASN110     -0.1240
     57  CA        47.5290    9.3170   25.4800 C.3   110  ASN110      0.1653
     58  C         47.1530   10.0720   24.1870 C.2   110  ASN110      0.2266
     59  O         47.8220   11.0150   23.7890 O.2   110  ASN110     -0.2867
     60  CB        48.9880    8.9230   25.4820 C.3   110  ASN110      0.1155
     61  CG        49.4060    8.3180   26.8260 C.2   110  ASN110      0.2627
     62  OD1       48.8840    8.6910   27.8630 O.2   110  ASN110     -0.2716
     63  ND2       50.2860    7.3700   26.7970 N.am  110  ASN110     -0.0877
     64  N         46.7760    9.0450   20.9950 N.3   112  TYR112     -0.1241
     65  CA        47.2810    8.5700   19.7200 C.3   112  TYR112      0.1605
     66  C         46.2930    7.6170   19.0870 C.2   112  TYR112      0.2264
     67  O         45.5380    6.9520   19.7810 O.2   112  TYR112     -0.2867
     68  CB        48.6080    7.8580   19.8910 C.3   112  TYR112      0.0534
     69  CG        49.7780    8.7670   20.1500 C.ar  112  TYR112     -0.0201
     70  CD1       50.2290    9.6450   19.1810 C.ar  112  TYR112     -0.0009
     71  CD2       50.4570    8.7190   21.3590 C.ar  112  TYR112     -0.0009
     72  CE1       51.3090   10.4650   19.4110 C.ar  112  TYR112      0.0417
     73  CE2       51.5390    9.5380   21.6000 C.ar  112  TYR112      0.0417
     74  CZ        51.9580   10.4120   20.6200 C.ar  112  TYR112      0.1957
     75  OH        53.0400   11.2200   20.8490 O.3   112  TYR112     -0.2866
     76  N         61.6940    0.4770   31.2060 N.3   141  HIS141     -0.1241
     77  CA        61.6540    1.8360   30.7170 C.3   141  HIS141      0.1621
     78  C         60.2190    2.3630   30.7290 C.2   141  HIS141      0.2264
     79  O         59.9760    3.5130   31.0980 O.2   141  HIS141     -0.2867
     80  CB        62.2180    1.9180   29.3090 C.3   141  HIS141      0.0745
     81  CG        61.8540    3.1890   28.6140 C.ar  141  HIS141      0.0817
     82  ND1       62.4370    4.3880   28.9390 N.ar  141  HIS141     -0.2268
     83  CD2       60.9460    3.4580   27.6460 C.ar  141  HIS141      0.1154
     84  CE1       61.9230    5.3440   28.1870 C.ar  141  HIS141      0.1986
     85  NE2       61.0100    4.8090   27.4030 N.ar  141  HIS141     -0.2212
     86  N         63.8910    1.2720   24.1950 N.3   160  CYS160     -0.1235
     87  CA        64.3260    2.1810   25.2380 C.3   160  CYS160      0.1677
     88  C         64.5780    1.4450   26.5660 C.2   160  CYS160      0.2270
     89  O         65.1280    2.0200   27.4960 O.2   160  CYS160     -0.2867
     90  CB        63.3200    3.3030   25.3610 C.3   160  CYS160      0.0956
     91  SG        63.1770    4.1940   23.7570 S.3   160  CYS160     -0.0801
     92  N         69.8700    0.7620   27.3440 N.3   163  LYS163     -0.1245
     93  CA        70.6770    1.9740   27.2230 C.3   163  LYS163      0.1561
     94  C         71.9580    1.7490   26.4160 C.2   163  LYS163      0.2260
     95  O         72.5740    0.6920   26.4980 O.2   163  LYS163     -0.2867
     96  CB        71.0240    2.4980   28.6330 C.3   163  LYS163      0.0271
     97  CG        69.8270    2.6020   29.5500 C.3   163  LYS163      0.0035
     98  CD        68.7060    3.4640   28.9800 C.3   163  LYS163      0.0206
     99  CE        69.1250    4.9130   28.7970 C.3   163  LYS163      0.1093
    100  NZ        67.9440    5.7220   28.3550 N.3   163  LYS163     -0.1314
    101  N         69.6630    6.7630   33.3660 N.3   170  LEU170     -0.1231
    102  CA        68.5770    5.9990   32.7830 C.3   170  LEU170      0.1693
    103  C         67.7390    6.8330   31.8230 C.2   170  LEU170      0.2593
    104  O         66.8290    6.3060   31.1890 O.2   170  LEU170     -0.2718
    105  CB        67.6870    5.4230   33.8780 C.3   170  LEU170      0.0284
    106  CG        68.3610    4.3390   34.7220 C.3   170  LEU170      0.0019
    107  CD1       67.5410    4.0450   35.9630 C.3   170  LEU170      0.0001
    108  CD2       68.5610    3.0910   33.8650 C.3   170  LEU170      0.0001
    109  N         68.0430    8.1250   31.7310 N.am  171  GLY171     -0.1942
    110  CA        67.3420    9.0040   30.8180 C.3   171  GLY171      0.2014
    111  C         65.9330    9.2890   31.2970 C.2   171  GLY171      0.2638
    112  O         65.6940    9.5740   32.4660 O.2   171  GLY171     -0.2714
    113  N         64.9770    9.2060   30.3870 N.am  172  ASN172     -0.1972
    114  CA        63.6190    9.5840   30.7300 C.3   172  ASN172      0.1688
    115  C         62.8870    8.5030   31.5110 C.2   172  ASN172      0.2292
    116  O         62.4750    7.5160   30.9130 O.2   172  ASN172     -0.2864
    117  CB        62.8470    9.8980   29.4540 C.3   172  ASN172      0.1181
    118  CG        61.4590   10.3600   29.7380 C.2   172  ASN172      0.2629
    119  OD1       61.1860   10.9320   30.7990 O.2   172  ASN172     -0.2716
    120  ND2       60.5520   10.0820   28.8250 N.am  172  ASN172     -0.0877
    121  N         60.1540    9.0240   33.7070 N.3   174  ALA174     -0.1231
    122  CA        58.8410    9.4720   34.1460 C.3   174  ALA174      0.1694
    123  C         57.8360    8.3140   34.2340 C.2   174  ALA174      0.2592
    124  O         57.0440    8.2450   35.1580 O.2   174  ALA174     -0.2718
    125  CB        58.3190   10.5570   33.1900 C.3   174  ALA174      0.0304
    126  N         57.8940    7.4030   33.2750 N.am  175  ASP175     -0.1974
    127  CA        56.9300    6.3020   33.1950 C.3   175  ASP175      0.1709
    128  C         57.5820    4.9480   33.4430 C.2   175  ASP175      0.2293
    129  O         57.0770    3.9210   32.9970 O.2   175  ASP175     -0.2864
    130  CB        56.2520    6.3170   31.8180 C.3   175  ASP175      0.1436
    131  CG        55.4700    7.5920   31.5750 C.2   175  ASP175      0.3671
    132  OD1       54.8260    8.1050   32.5220 O.co2 175  ASP175     -0.2456
    133  OD2       55.5050    8.0890   30.4390 O.co2 175  ASP175     -0.2456
    134  N         68.2350    4.5350   21.7310 N.3   202  HIS202     -0.1241
    135  CA        69.0360    5.7230   21.4200 C.3   202  HIS202      0.1621
    136  C         70.5100    5.3600   21.5240 C.2   202  HIS202      0.2264
    137  O         70.8960    4.6970   22.4720 O.2   202  HIS202     -0.2867
    138  CB        68.7440    6.8830   22.3860 C.3   202  HIS202      0.0745
    139  CG        67.2880    7.1780   22.5460 C.ar  202  HIS202      0.0817
    140  ND1       66.6340    8.1150   21.7760 N.ar  202  HIS202     -0.2268
    141  CD2       66.3490    6.6340   23.3570 C.ar  202  HIS202      0.1154
    142  CE1       65.3560    8.1410   22.1080 C.ar  202  HIS202      0.1986
    143  NE2       65.1580    7.2530   23.0650 N.ar  202  HIS202     -0.2212
@<TRIPOS>BOND
     1    19    20    1
     2    21    20    1
     3    21    22    2
     4    25    24   ar
     5    25    27   ar
     6    20    23    1
     7    23    24    1
     8    24    26   ar
     9    27    28   ar
    10    51    50    2
    11    26    28   ar
    12    26    29   ar
    13    46    45    2
    14    15    14    2
    15    28    30   ar
    16    50    49    1
    17    66    65    1
    18    66    67    2
    19    70    72   ar
    20    70    69   ar
    21    72    74   ar
    22    14    13    1
    23    49    52    1
    24    49    48    1
    25    65    68    1
    26    65    64    1
    27    68    69    1
    28    29    31   ar
    29    45    48   am
    30    45    44    1
    31    30    32   ar
    32    69    71   ar
    33    12    13    1
    34    52    53    1
    35    74    75    1
    36    74    73   ar
    37    13    16    1
    38    44    47    1
    39    44    43    1
    40    31    32   ar
    41    36    35    2
    42    71    73   ar
    43   135   136    1
    44   135   134    1
    45   135   138    1
    46   136   137    2
    47    53    55   ar
    48    53    54   ar
    49    16    17    1
    50    16    18    1
    51   140   142   ar
    52   140   139   ar
    53   142   143   ar
    54     1     2    1
    55    43    35   am
    56    35    34    1
    57   138   139    1
    58   139   141   ar
    59   143   141   ar
    60     2     5    1
    61     2     3    1
    62     5     6    1
    63    33    34    1
    64    34    37    1
    65    91    90    1
    66    59    58    2
    67    58    57    1
    68    86    87    1
    69    37    38    1
    70     3     4    2
    71     8     6   ar
    72     8    10   ar
    73     6     7   ar
    74    87    90    1
    75    87    88    1
    76    57    60    1
    77    57    56    1
    78    60    61    1
    79    10    11   ar
    80    38    40   ar
    81    38    39   ar
    82     7     9   ar
    83    94    95    2
    84    94    93    1
    85    88    89    2
    86    40    42   ar
    87    63    61   am
    88    39    41   ar
    89    61    62    2
    90    11     9   ar
    91    93    92    1
    92    93    96    1
    93    85    83   ar
    94    85    84   ar
    95    83    81   ar
    96    41    42   ar
    97    84    82   ar
    98   100    99    1
    99    81    82   ar
   100    81    80    1
   101    96    97    1
   102    99    98    1
   103   120   118   am
   104    98    97    1
   105    80    77    1
   106   117   118    1
   107   117   114    1
   108   118   119    2
   109   113   114    1
   110   113   111   am
   111   133   131   ar
   112    77    78    1
   113    77    76    1
   114    78    79    2
   115   114   115    1
   116   110   111    1
   117   110   109    1
   118   116   115    2
   119   104   103    2
   120   111   112    2
   121   131   130    1
   122   131   132   ar
   123   109   103   am
   124   130   127    1
   125   103   102    1
   126   102   101    1
   127   102   105    1
   128   129   128    2
   129   125   122    1
   130   127   126    1
   131   127   128    1
   132   126   123   am
   133   121   122    1
   134   108   106    1
   135   105   106    1
   136   122   123    1
   137   123   124    2
   138   106   107    1
