@<TRIPOS>MOLECULE
tmp/5fqcA00.pdb
 146 142 0 0 0
SMALL
GASTEIGER

@<TRIPOS>ATOM
      1  N        -27.8270    4.3290   67.6850 N.3    31  PHE31      -0.1241
      2  CA       -28.9060    4.6280   66.7450 C.3    31  PHE31       0.1605
      3  C        -30.0250    3.6350   67.0250 C.2    31  PHE31       0.2264
      4  O        -29.8410    2.4380   66.8020 O.2    31  PHE31      -0.2867
      5  CB       -28.3900    4.5030   65.3100 C.3    31  PHE31       0.0534
      6  CG       -29.3300    5.0070   64.2710 C.ar   31  PHE31      -0.0203
      7  CD1      -29.2530    6.3390   63.8280 C.ar   31  PHE31      -0.0042
      8  CD2      -30.2300    4.1600   63.6730 C.ar   31  PHE31      -0.0042
      9  CE1      -30.0770    6.7930   62.8480 C.ar   31  PHE31      -0.0003
     10  CE2      -31.1070    4.6170   62.6920 C.ar   31  PHE31      -0.0003
     11  CZ       -31.0300    5.9580   62.2810 C.ar   31  PHE31      -0.0000
     12  N        -23.4790    1.2710   66.2090 N.3    36  TYR36      -0.1241
     13  CA       -22.9130    1.1180   64.8830 C.3    36  TYR36       0.1605
     14  C        -21.5290    1.7130   64.8040 C.2    36  TYR36       0.2264
     15  O        -21.3200    2.8370   65.2880 O.2    36  TYR36      -0.2867
     16  CB       -23.7550    1.8740   63.8480 C.3    36  TYR36       0.0534
     17  CG       -25.1130    1.3340   63.6350 C.ar   36  TYR36      -0.0201
     18  CD1      -26.1220    1.5480   64.5580 C.ar   36  TYR36      -0.0009
     19  CD2      -25.4160    0.5720   62.5260 C.ar   36  TYR36      -0.0009
     20  CE1      -27.3730    1.0690   64.3590 C.ar   36  TYR36       0.0417
     21  CE2      -26.6430    0.1270   62.2830 C.ar   36  TYR36       0.0417
     22  CZ       -27.6690    0.3170   63.2080 C.ar   36  TYR36       0.1957
     23  OH       -28.9310   -0.1250   63.0140 O.3    36  TYR36      -0.2866
     24  N        -19.4160   11.2870   62.6990 N.3    56  TRP56      -0.1241
     25  CA       -20.7830   11.0390   63.1330 C.3    56  TRP56       0.1605
     26  C        -21.0870   11.7620   64.4310 C.2    56  TRP56       0.2264
     27  O        -21.2910   11.1820   65.5010 O.2    56  TRP56      -0.2867
     28  CB       -21.0640    9.5500   63.2030 C.3    56  TRP56       0.0550
     29  CG       -22.5110    9.1880   63.1990 C.ar   56  TRP56       0.0003
     30  CD1      -23.6030    9.9810   63.2550 C.ar   56  TRP56       0.0946
     31  CD2      -23.0020    7.8530   63.0980 C.ar   56  TRP56       0.0152
     32  NE1      -24.7500    9.2210   63.2130 N.ar   56  TRP56      -0.2442
     33  CE2      -24.3920    7.9080   63.1210 C.ar   56  TRP56       0.0810
     34  CE3      -22.3720    6.6170   62.9960 C.ar   56  TRP56       0.0012
     35  CZ2      -25.1950    6.7630   63.0290 C.ar   56  TRP56       0.0191
     36  CZ3      -23.1650    5.4780   62.9260 C.ar   56  TRP56       0.0001
     37  CH2      -24.5500    5.5650   62.9670 C.ar   56  TRP56       0.0015
     38  N        -26.3080   12.9270   55.1740 N.3    85  HIS85      -0.1226
     39  CA       -26.7480   12.4480   56.4670 C.3    85  HIS85       0.1752
     40  C        -25.6900   12.7110   57.5450 C.2    85  HIS85       0.2596
     41  O        -24.5370   13.0260   57.2590 O.2    85  HIS85      -0.2718
     42  CB       -27.0300   10.9320   56.4040 C.3    85  HIS85       0.0759
     43  CG       -28.2860   10.5790   55.6990 C.ar   85  HIS85       0.0818
     44  ND1      -28.3890    9.4270   54.9350 N.ar   85  HIS85      -0.2268
     45  CD2      -29.4880   11.1940   55.6210 C.ar   85  HIS85       0.1154
     46  CE1      -29.6170    9.3450   54.4440 C.ar   85  HIS85       0.1986
     47  NE2      -30.2880   10.4330   54.8060 N.ar   85  HIS85      -0.2212
     48  N        -26.1130   12.5390   58.8080 N.am   86  ASP86      -0.1960
     49  CA       -25.3090   12.9460   59.9630 C.3    86  ASP86       0.1840
     50  C        -24.0300   12.1560   60.1820 C.2    86  ASP86       0.2622
     51  O        -23.1140   12.6640   60.8300 O.2    86  ASP86      -0.2715
     52  CB       -26.1590   12.9130   61.2320 C.3    86  ASP86       0.1450
     53  CG       -26.8220   14.2330   61.5190 C.2    86  ASP86       0.3671
     54  OD1      -26.5300   15.2330   60.8150 O.co2  86  ASP86      -0.2456
     55  OD2      -27.5380   14.2550   62.5170 O.co2  86  ASP86      -0.2456
     56  N        -23.9140   10.9280   59.6570 N.am   87  ASP87      -0.1971
     57  CA       -22.6300   10.2410   59.7670 C.3    87  ASP87       0.1709
     58  C        -21.5840   10.7780   58.7880 C.2    87  ASP87       0.2293
     59  O        -20.4350   10.3130   58.7900 O.2    87  ASP87      -0.2864
     60  CB       -22.7790    8.6970   59.6600 C.3    87  ASP87       0.1436
     61  CG       -23.5190    8.2510   58.4170 C.2    87  ASP87       0.3671
     62  OD1      -24.2960    8.9940   57.7650 O.co2  87  ASP87      -0.2456
     63  OD2      -23.3910    7.0310   58.1060 O.co2  87  ASP87      -0.2456
     64  N        -32.8440   19.1250   55.1590 N.3   115  GLU115     -0.1245
     65  CA       -32.9400   18.1860   56.2560 C.3   115  GLU115      0.1567
     66  C        -32.6710   18.8370   57.5870 C.2   115  GLU115      0.2260
     67  O        -32.9140   18.2090   58.6170 O.2   115  GLU115     -0.2867
     68  CB       -31.8740   17.1170   56.0820 C.3   115  GLU115      0.0388
     69  CG       -32.0760   15.8630   56.8530 C.3   115  GLU115      0.1160
     70  CD       -33.1780   15.0210   56.2570 C.2   115  GLU115      0.3649
     71  OE1      -33.7530   15.4150   55.1930 O.co2 115  GLU115     -0.2457
     72  OE2      -33.5360   14.0140   56.9000 O.co2 115  GLU115     -0.2457
     73  N        -27.4520    4.6380   48.0300 N.3   148  HIS148     -0.1241
     74  CA       -27.9190    4.8450   49.4020 C.3   148  HIS148      0.1621
     75  C        -28.6120    6.1800   49.5510 C.2   148  HIS148      0.2264
     76  O        -29.5290    6.3270   50.3540 O.2   148  HIS148     -0.2867
     77  CB       -26.6990    4.7700   50.3030 C.3   148  HIS148      0.0745
     78  CG       -26.9290    5.2900   51.6910 C.ar  148  HIS148      0.0817
     79  ND1      -27.3870    4.5000   52.7070 N.ar  148  HIS148     -0.2268
     80  CD2      -26.7690    6.5260   52.2300 C.ar  148  HIS148      0.1154
     81  CE1      -27.5300    5.2150   53.8140 C.ar  148  HIS148      0.1986
     82  NE2      -27.1250    6.4570   53.5600 N.ar  148  HIS148     -0.2212
     83  N        -21.6430    5.1080   52.3640 N.3   167  CYS167     -0.1235
     84  CA       -22.7860    4.3040   52.7590 C.3   167  CYS167      0.1677
     85  C        -23.4260    3.6020   51.5680 C.2   167  CYS167      0.2270
     86  O        -24.3160    2.7590   51.7640 O.2   167  CYS167     -0.2867
     87  CB       -23.8010    5.1270   53.5280 C.3   167  CYS167      0.0956
     88  SG       -23.0780    5.8300   55.0190 S.3   167  CYS167     -0.0801
     89  N        -21.8970   -1.7060   51.4590 N.3   170  TYR170     -0.1241
     90  CA       -22.0960   -2.4530   52.6890 C.3   170  TYR170      0.1605
     91  C        -20.8980   -3.3590   52.9770 C.2   170  TYR170      0.2264
     92  O        -20.2860   -3.9280   52.0620 O.2   170  TYR170     -0.2867
     93  CB       -23.3370   -3.3240   52.5270 C.3   170  TYR170      0.0534
     94  CG       -24.6570   -2.5900   52.6040 C.ar  170  TYR170     -0.0201
     95  CD1      -24.7510   -1.2480   52.9610 C.ar  170  TYR170     -0.0009
     96  CD2      -25.8300   -3.2610   52.3890 C.ar  170  TYR170     -0.0009
     97  CE1      -25.9680   -0.6370   53.0510 C.ar  170  TYR170      0.0417
     98  CE2      -27.0560   -2.6310   52.4890 C.ar  170  TYR170      0.0417
     99  CZ       -27.1000   -1.3140   52.8530 C.ar  170  TYR170      0.1957
    100  OH       -28.3440   -0.7150   52.9940 O.3   170  TYR170     -0.2866
    101  N        -23.1070   -7.4370   56.7770 N.3   174  ARG174     -0.1245
    102  CA       -24.4460   -6.8660   56.6650 C.3   174  ARG174      0.1563
    103  C        -25.1630   -7.6640   55.5920 C.2   174  ARG174      0.2260
    104  O        -24.8220   -7.5640   54.4190 O.2   174  ARG174     -0.2867
    105  CB       -24.4090   -5.3910   56.3010 C.3   174  ARG174      0.0307
    106  CG       -25.8230   -4.8640   56.0580 C.3   174  ARG174      0.0489
    107  CD       -26.0050   -3.3920   55.9680 C.3   174  ARG174      0.2205
    108  NE       -25.9910   -2.7640   57.2590 N.pl3 174  ARG174     -0.0865
    109  CZ       -26.9540   -2.8760   58.1800 C.cat 174  ARG174      0.5346
    110  NH1      -28.0230   -3.6360   58.0080 N.pl3 174  ARG174      0.1354
    111  NH2      -26.8240   -2.1850   59.3170 N.pl3 174  ARG174      0.1354
    112  N        -29.6180   -1.7340   55.4870 N.3   178  GLY178     -0.1210
    113  CA       -29.3800   -0.7460   56.5330 C.3   178  GLY178      0.1956
    114  C        -30.4200    0.3450   56.4500 C.2   178  GLY178      0.2611
    115  O        -31.5860    0.0930   56.1620 O.2   178  GLY178     -0.2717
    116  N        -29.9930    1.5860   56.7190 N.am  179  ASN179     -0.1974
    117  CA       -30.9120    2.7170   56.7250 C.3   179  ASN179      0.1688
    118  C        -31.1490    3.1210   55.2820 C.2   179  ASN179      0.2292
    119  O        -30.2110    3.5610   54.5980 O.2   179  ASN179     -0.2864
    120  CB       -30.2620    3.8050   57.5600 C.3   179  ASN179      0.1181
    121  CG       -31.1140    5.0170   57.7170 C.2   179  ASN179      0.2629
    122  OD1      -30.6600    6.1160   57.3270 O.2   179  ASN179     -0.2716
    123  ND2      -32.2830    4.8610   58.3190 N.am  179  ASN179     -0.0877
    124  N        -34.1430    4.8610   54.0660 N.3   181  ALA181     -0.1231
    125  CA       -35.2640    5.7790   53.8900 C.3   181  ALA181      0.1694
    126  C        -35.0730    6.7540   52.7280 C.2   181  ALA181      0.2592
    127  O        -36.0540    7.1150   52.0740 O.2   181  ALA181     -0.2718
    128  CB       -35.5290    6.5360   55.1900 C.3   181  ALA181      0.0304
    129  N        -33.8350    7.1800   52.4420 N.am  182  ASP182     -0.1974
    130  CA       -33.5590    8.1510   51.3940 C.3   182  ASP182      0.1709
    131  C        -32.8850    7.5260   50.1730 C.2   182  ASP182      0.2293
    132  O        -32.3470    8.2310   49.3200 O.2   182  ASP182     -0.2864
    133  CB       -32.7180    9.2860   51.9890 C.3   182  ASP182      0.1436
    134  CG       -33.5120   10.1090   53.0400 C.2   182  ASP182      0.3671
    135  OD1      -34.7320   10.2710   52.9240 O.co2 182  ASP182     -0.2456
    136  OD2      -32.9130   10.6120   54.0150 O.co2 182  ASP182     -0.2456
    137  N        -19.7980    1.6170   56.9210 N.3   209  HIS209     -0.1241
    138  CA       -19.9010    1.0420   58.2570 C.3   209  HIS209      0.1621
    139  C        -19.3060   -0.3530   58.1990 C.2   209  HIS209      0.2264
    140  O        -19.7810   -1.1960   57.4270 O.2   209  HIS209     -0.2867
    141  CB       -21.3750    0.9630   58.7040 C.3   209  HIS209      0.0745
    142  CG       -22.0800    2.2890   58.6660 C.ar  209  HIS209      0.0817
    143  ND1      -21.9990    3.2540   59.6590 N.ar  209  HIS209     -0.2268
    144  CD2      -22.8450    2.8200   57.6880 C.ar  209  HIS209      0.1154
    145  CE1      -22.6950    4.3120   59.2840 C.ar  209  HIS209      0.1986
    146  NE2      -23.2210    4.0810   58.0940 N.ar  209  HIS209     -0.2212
@<TRIPOS>BOND
     1    73    74    1
     2   132   131    2
     3    74    75    1
     4    74    77    1
     5    75    76    2
     6   131   130    1
     7    77    78    1
     8   130   133    1
     9   130   129    1
    10    89    90    1
    11    85    86    2
    12    85    84    1
    13    78    80   ar
    14    78    79   ar
    15   133   134    1
    16    92    91    2
    17   127   126    2
    18    80    82   ar
    19    83    84    1
    20    96    98   ar
    21    96    94   ar
    22   129   126   am
    23    98    99   ar
    24    93    94    1
    25    93    90    1
    26    94    95   ar
    27    90    91    1
    28    79    81   ar
    29   126   125    1
    30    84    87    1
    31    99   100    1
    32    99    97   ar
    33   135   134   ar
    34    95    97   ar
    35   134   136   ar
    36    87    88    1
    37    82    81   ar
    38   125   124    1
    39   125   128    1
    40   104   103    2
    41    46    47   ar
    42    46    44   ar
    43   119   118    2
    44    47    45   ar
    45    44    43   ar
    46    64    65    1
    47    38    39    1
    48    71    70   ar
    49   118   117    1
    50   112   113    1
    51   103   102    1
    52    45    43   ar
    53    43    42    1
    54   107   106    1
    55   107   108    1
    56   106   105    1
    57    68    65    1
    58    68    69    1
    59   115   114    2
    60    65    66    1
    61    70    69    1
    62    70    72   ar
    63   105   102    1
    64    42    39    1
    65   114   113    1
    66   114   116   am
    67    39    40    1
    68   102   101    1
    69   116   117    1
    70   117   120    1
    71   137   138    1
    72   108   109    2
    73    41    40    2
    74   122   121    2
    75   140   139    2
    76    40    48   am
    77   120   121    1
    78    66    67    2
    79   144   146   ar
    80   144   142   ar
    81   121   123   am
    82    62    61   ar
    83   110   109    1
    84   146   145   ar
    85    63    61   ar
    86   109   111    1
    87   139   138    1
    88   138   141    1
    89    61    60    1
    90   142   141    1
    91   142   143   ar
    92    58    59    2
    93    58    57    1
    94    48    49    1
    95   145   143   ar
    96    56    57    1
    97    56    50   am
    98    60    57    1
    99    49    50    1
   100    49    52    1
   101    50    51    2
   102    54    53   ar
   103    52    53    1
   104    53    55   ar
   105    11    10   ar
   106    11     9   ar
   107    21    19   ar
   108    21    22   ar
   109    19    17   ar
   110    10     8   ar
   111    24    25    1
   112     9     7   ar
   113    36    37   ar
   114    36    34   ar
   115    37    35   ar
   116    34    31   ar
   117    23    22    1
   118    35    33   ar
   119    31    33   ar
   120    31    29   ar
   121    33    32   ar
   122    25    28    1
   123    25    26    1
   124    29    28    1
   125    29    30   ar
   126    22    20   ar
   127    32    30   ar
   128    17    16    1
   129    17    18   ar
   130     8     6   ar
   131     7     6   ar
   132    16    13    1
   133     6     5    1
   134    20    18   ar
   135    26    27    2
   136    14    13    1
   137    14    15    2
   138    13    12    1
   139     5     2    1
   140     2     3    1
   141     2     1    1
   142     4     3    2
