@<TRIPOS>MOLECULE
tmp/5fqdE00.pdb
 113 118 0 0 0
SMALL
GASTEIGER

@<TRIPOS>ATOM
      1  N         13.6500   45.5030  -55.9500 N.3   282  ASN282     -0.1226
      2  CA        13.5340   44.4140  -56.9090 C.3   282  ASN282      0.1770
      3  C         14.3930   44.7220  -58.1820 C.2   282  ASN282      0.2439
      4  O         14.9440   45.8310  -58.2530 O.2   282  ASN282     -0.2733
      5  CB        12.0440   44.0920  -57.1740 C.3   282  ASN282      0.1168
      6  CG        11.3560   44.7460  -58.3500 C.2   282  ASN282      0.2627
      7  OD1       11.7630   45.7690  -58.9000 O.2   282  ASN282     -0.2716
      8  ND2       10.2610   44.1520  -58.7530 N.am  282  ASN282     -0.0877
      9  N         14.5480   43.7920  -59.1740 N.am  283  PRO283     -0.2718
     10  CA        15.4290   44.0880  -60.3430 C.3   283  PRO283      0.1535
     11  C         15.0800   45.3090  -61.2150 C.2   283  PRO283      0.2598
     12  O         15.9130   45.7590  -62.0020 O.2   283  PRO283     -0.2715
     13  CB        15.3550   42.8070  -61.1830 C.3   283  PRO283      0.0310
     14  CG        14.9020   41.7560  -60.2640 C.3   283  PRO283      0.0237
     15  CD        14.0400   42.4060  -59.2230 C.3   283  PRO283      0.0939
     16  N         13.8480   45.8090  -61.1080 N.am  284  HIS284     -0.1974
     17  CA        13.3230   46.9360  -61.8770 C.3   284  HIS284      0.1656
     18  C         13.1180   48.1950  -60.9910 C.2   284  HIS284      0.2291
     19  O         12.4180   49.1380  -61.3690 O.2   284  HIS284     -0.2864
     20  CB        12.0430   46.4970  -62.6130 C.3   284  HIS284      0.0771
     21  CG        12.2640   45.3480  -63.5510 C.ar  284  HIS284      0.0820
     22  ND1       12.5470   45.5530  -64.8980 N.ar  284  HIS284     -0.2267
     23  CD2       12.2550   44.0170  -63.3090 C.ar  284  HIS284      0.1154
     24  CE1       12.6990   44.3480  -65.4250 C.ar  284  HIS284      0.1986
     25  NE2       12.5300   43.3910  -64.5130 N.ar  284  HIS284     -0.2212
     26  N         10.0400   47.2720  -51.8130 N.3   288  HIS288     -0.1241
     27  CA         9.0240   46.5970  -51.0040 C.3   288  HIS288      0.1621
     28  C          9.4960   46.5100  -49.5680 C.2   288  HIS288      0.2264
     29  O         10.5790   45.9720  -49.3040 O.2   288  HIS288     -0.2867
     30  CB         8.7510   45.1650  -51.5310 C.3   288  HIS288      0.0745
     31  CG         8.2690   45.0950  -52.9510 C.ar  288  HIS288      0.0817
     32  ND1        6.9210   45.0400  -53.2520 N.ar  288  HIS288     -0.2268
     33  CD2        8.9770   45.0540  -54.1060 C.ar  288  HIS288      0.1154
     34  CE1        6.8520   44.9750  -54.5700 C.ar  288  HIS288      0.1986
     35  NE2        8.0630   44.9920  -55.1270 N.ar  288  HIS288     -0.2212
     36  N         16.0250   33.5720  -58.2220 N.3   308  GLU308     -0.1231
     37  CA        16.4240   34.7690  -58.9580 C.3   308  GLU308      0.1699
     38  C         16.1230   36.0580  -58.1970 C.2   308  GLU308      0.2592
     39  O         14.9530   36.3740  -57.9610 O.2   308  GLU308     -0.2718
     40  CB        15.7600   34.7740  -60.3420 C.3   308  GLU308      0.0402
     41  CG        16.3830   35.7400  -61.3340 C.3   308  GLU308      0.1161
     42  CD        15.9510   35.5290  -62.7740 C.2   308  GLU308      0.3649
     43  OE1       14.7320   35.6030  -63.0640 O.co2 308  GLU308     -0.2457
     44  OE2       16.8440   35.3080  -63.6230 O.co2 308  GLU308     -0.2457
     45  N         17.1950   36.7890  -57.8130 N.am  309  HIS309     -0.1962
     46  CA        17.1640   38.0670  -57.0880 C.3   309  HIS309      0.1787
     47  C         16.5180   37.9380  -55.6890 C.2   309  HIS309      0.2621
     48  O         15.9750   38.9200  -55.1800 O.2   309  HIS309     -0.2715
     49  CB        16.5100   39.1790  -57.9550 C.3   309  HIS309      0.0785
     50  CG        16.9630   40.5750  -57.6380 C.ar  309  HIS309      0.0821
     51  ND1       16.3000   41.3520  -56.7130 N.ar  309  HIS309     -0.2267
     52  CD2       17.9740   41.3040  -58.1720 C.ar  309  HIS309      0.1154
     53  CE1       16.9350   42.5140  -56.6940 C.ar  309  HIS309      0.1986
     54  NE2       17.9530   42.5310  -57.5540 N.ar  309  HIS309     -0.2212
     55  N         16.6270   36.7360  -55.0500 N.am  310  SER310     -0.1936
     56  CA        16.0850   36.4630  -53.7060 C.3   310  SER310      0.2055
     57  C         16.7360   37.3320  -52.6140 C.2   310  SER310      0.2643
     58  O         17.9620   37.3730  -52.4950 O.2   310  SER310     -0.2714
     59  CB        16.1940   34.9810  -53.3470 C.3   310  SER310      0.2130
     60  OG        15.6070   34.7360  -52.0790 O.3   310  SER310     -0.2179
     61  N         15.9020   38.0330  -51.8390 N.am  311  TRP311     -0.1973
     62  CA        16.3010   38.9380  -50.7710 C.3   311  TRP311      0.1640
     63  C         16.7510   38.1960  -49.5000 C.2   311  TRP311      0.2290
     64  O         17.3110   38.8190  -48.5690 O.2   311  TRP311     -0.2864
     65  CB        15.1290   39.8670  -50.4280 C.3   311  TRP311      0.0576
     66  CG        14.6810   40.7630  -51.5470 C.ar  311  TRP311      0.0006
     67  CD1       15.4700   41.3840  -52.4730 C.ar  311  TRP311      0.0946
     68  CD2       13.3510   41.2510  -51.7620 C.ar  311  TRP311      0.0152
     69  NE1       14.7060   42.1980  -53.2820 N.ar  311  TRP311     -0.2442
     70  CE2       13.4000   42.1390  -52.8650 C.ar  311  TRP311      0.0810
     71  CE3       12.1120   40.9920  -51.1550 C.ar  311  TRP311      0.0012
     72  CZ2       12.2590   42.7850  -53.3610 C.ar  311  TRP311      0.0191
     73  CZ3       10.9860   41.6380  -51.6420 C.ar  311  TRP311      0.0001
     74  CH2       11.0650   42.5250  -52.7280 C.ar  311  TRP311      0.0015
     75  N         11.5330   32.1180  -53.8360 N.3   317  TRP317     -0.1241
     76  CA        10.2650   32.8430  -53.6840 C.3   317  TRP317      0.1605
     77  C          9.2030   32.3750  -54.7040 C.2   317  TRP317      0.2264
     78  O          9.5460   32.0040  -55.8230 O.2   317  TRP317     -0.2867
     79  CB        10.4930   34.3760  -53.7890 C.3   317  TRP317      0.0550
     80  CG        11.2280   34.7950  -55.0390 C.ar  317  TRP317      0.0003
     81  CD1       12.5750   34.9950  -55.1730 C.ar  317  TRP317      0.0946
     82  CD2       10.6590   35.0190  -56.3370 C.ar  317  TRP317      0.0152
     83  NE1       12.8780   35.3420  -56.4670 N.ar  317  TRP317     -0.2442
     84  CE2       11.7240   35.3450  -57.2100 C.ar  317  TRP317      0.0810
     85  CE3        9.3440   34.9910  -56.8500 C.ar  317  TRP317      0.0012
     86  CZ2       11.5230   35.5760  -58.5790 C.ar  317  TRP317      0.0191
     87  CZ3        9.1460   35.2550  -58.2010 C.ar  317  TRP317      0.0001
     88  CH2       10.2230   35.5630  -59.0410 C.ar  317  TRP317      0.0015
     89  N          5.1860   37.0790  -51.0990 N.3   331  TRP331     -0.1241
     90  CA         5.7990   35.8600  -51.6180 C.3   331  TRP331      0.1605
     91  C          5.9350   34.8570  -50.5020 C.2   331  TRP331      0.2264
     92  O          6.1280   35.2420  -49.3390 O.2   331  TRP331     -0.2867
     93  CB         7.2310   36.1380  -52.1650 C.3   331  TRP331      0.0550
     94  CG         7.3210   37.2630  -53.1520 C.ar  331  TRP331      0.0003
     95  CD1        7.3470   37.1620  -54.5030 C.ar  331  TRP331      0.0946
     96  CD2        7.4310   38.6680  -52.8510 C.ar  331  TRP331      0.0152
     97  NE1        7.3850   38.4170  -55.0710 N.ar  331  TRP331     -0.2442
     98  CE2        7.4500   39.3590  -54.0820 C.ar  331  TRP331      0.0810
     99  CE3        7.4720   39.4140  -51.6530 C.ar  331  TRP331      0.0012
    100  CZ2        7.5320   40.7590  -54.1610 C.ar  331  TRP331      0.0191
    101  CZ3        7.5170   40.8010  -51.7340 C.ar  331  TRP331      0.0001
    102  CH2        7.5660   41.4570  -52.9770 C.ar  331  TRP331      0.0015
    103  N          8.4510   32.0730  -49.1100 N.3   333  PHE333     -0.1241
    104  CA         9.8600   31.7030  -49.1890 C.3   333  PHE333      0.1605
    105  C         10.0200   30.2820  -48.6900 C.2   333  PHE333      0.2264
    106  O          9.5310   29.9520  -47.6140 O.2   333  PHE333     -0.2867
    107  CB        10.7470   32.6840  -48.4280 C.3   333  PHE333      0.0534
    108  CG        10.8630   34.0280  -49.0900 C.ar  333  PHE333     -0.0203
    109  CD1        9.9430   35.0340  -48.8240 C.ar  333  PHE333     -0.0042
    110  CD2       11.8930   34.2920  -49.9820 C.ar  333  PHE333     -0.0042
    111  CE1       10.0290   36.2690  -49.4690 C.ar  333  PHE333     -0.0003
    112  CE2       11.9780   35.5260  -50.6250 C.ar  333  PHE333     -0.0003
    113  CZ        11.0390   36.5050  -50.3720 C.ar  333  PHE333     -0.0000
@<TRIPOS>BOND
     1    24    22   ar
     2    24    25   ar
     3    22    21   ar
     4    25    23   ar
     5    44    42   ar
     6    21    23   ar
     7    21    20    1
     8    43    42   ar
     9    42    41    1
    10    20    17    1
    11    12    11    2
    12    17    16    1
    13    17    18    1
    14    19    18    2
    15    41    40    1
    16    11    16   am
    17    11    10    1
    18    13    10    1
    19    13    14    1
    20    10     9    1
    21    40    37    1
    22    14    15    1
    23    15     9    1
    24     9     3   am
    25    88    86   ar
    26    88    87   ar
    27    37    36    1
    28    37    38    1
    29     7     6    2
    30     8     6   am
    31    86    84   ar
    32     6     5    1
    33     4     3    2
    34    87    85   ar
    35    38    39    2
    36    38    45   am
    37     3     2    1
    38    52    50   ar
    39    52    54   ar
    40    49    50    1
    41    49    46    1
    42    45    46    1
    43    50    51   ar
    44    54    53   ar
    45    84    83   ar
    46    84    82   ar
    47     5     2    1
    48    46    47    1
    49     2     1    1
    50    85    82   ar
    51    51    53   ar
    52    83    81   ar
    53    82    80   ar
    54    78    77    2
    55    47    48    2
    56    47    55   am
    57    81    80   ar
    58    35    34   ar
    59    35    33   ar
    60    97    95   ar
    61    97    98   ar
    62    55    56    1
    63    80    79    1
    64    77    76    1
    65    34    32   ar
    66    95    94   ar
    67   100    98   ar
    68   100   102   ar
    69    33    31   ar
    70    98    96   ar
    71    75    76    1
    72    79    76    1
    73    56    59    1
    74    56    57    1
    75    72    70   ar
    76    72    74   ar
    77    59    60    1
    78    69    70   ar
    79    69    67   ar
    80    32    31   ar
    81    94    96   ar
    82    94    93    1
    83   102   101   ar
    84    31    30    1
    85    70    68   ar
    86    96    99   ar
    87    74    73   ar
    88    57    58    2
    89    57    61   am
    90    67    66   ar
    91    93    90    1
    92    61    62    1
    93    26    27    1
    94    68    66   ar
    95    68    71   ar
    96   101    99   ar
    97    73    71   ar
    98    90    89    1
    99    90    91    1
   100    66    65    1
   101    30    27    1
   102    27    28    1
   103    62    65    1
   104    62    63    1
   105   112   113   ar
   106   112   110   ar
   107    91    92    2
   108   113   111   ar
   109   110   108   ar
   110    28    29    2
   111    63    64    2
   112   111   109   ar
   113   104   103    1
   114   104   105    1
   115   104   107    1
   116   108   109   ar
   117   108   107    1
   118   105   106    2
