@<TRIPOS>MOLECULE
tmp/5fqeB00.pdb
 124 122 0 0 0
SMALL
GASTEIGER

@<TRIPOS>ATOM
      1  N        114.1970    1.1650  195.3160 N.3   176  TRP176     -0.1241
      2  CA       115.0960    2.2790  195.6560 C.3   176  TRP176      0.1605
      3  C        115.0580    2.5710  197.1310 C.2   176  TRP176      0.2264
      4  O        113.9990    2.7820  197.7380 O.2   176  TRP176     -0.2867
      5  CB       114.7590    3.5080  194.8740 C.3   176  TRP176      0.0550
      6  CG       115.0210    3.3770  193.4000 C.ar  176  TRP176      0.0003
      7  CD1      115.6140    2.3400  192.7410 C.ar  176  TRP176      0.0946
      8  CD2      114.6770    4.3400  192.3880 C.ar  176  TRP176      0.0152
      9  NE1      115.6860    2.5990  191.3910 N.ar  176  TRP176     -0.2442
     10  CE2      115.1190    3.8170  191.1520 C.ar  176  TRP176      0.0810
     11  CE3      114.0630    5.5830  192.4230 C.ar  176  TRP176      0.0012
     12  CZ2      114.9550    4.4980  189.9450 C.ar  176  TRP176      0.0191
     13  CZ3      113.9160    6.2650  191.2120 C.ar  176  TRP176      0.0001
     14  CH2      114.3670    5.7200  190.0060 C.ar  176  TRP176      0.0015
     15  N        116.0190   14.5720  192.6480 N.3   226  TRP226     -0.1241
     16  CA       114.5990   14.5250  192.3320 C.3   226  TRP226      0.1605
     17  C        113.9000   15.7760  192.8200 C.2   226  TRP226      0.2264
     18  O        112.6670   15.7450  193.0200 O.2   226  TRP226     -0.2867
     19  CB       113.9700   13.2920  192.9360 C.3   226  TRP226      0.0550
     20  CG       114.4180   11.9540  192.4010 C.ar  226  TRP226      0.0003
     21  CD1      113.9130   11.2880  191.3650 C.ar  226  TRP226      0.0946
     22  CD2      115.3530   11.0630  193.0190 C.ar  226  TRP226      0.0152
     23  NE1      114.4920   10.0530  191.2410 N.ar  226  TRP226     -0.2442
     24  CE2      115.3870    9.8970  192.2580 C.ar  226  TRP226      0.0810
     25  CE3      116.1720   11.1690  194.1420 C.ar  226  TRP226      0.0012
     26  CZ2      116.2330    8.8360  192.5370 C.ar  226  TRP226      0.0191
     27  CZ3      116.9800   10.0880  194.4650 C.ar  226  TRP226      0.0001
     28  CH2      117.0110    8.9460  193.6690 C.ar  226  TRP226      0.0015
     29  N        111.1950   15.8780  195.8040 N.3   229  GLN229     -0.1245
     30  CA       109.8340   15.3440  195.6440 C.3   229  GLN229      0.1566
     31  C        109.3360   14.6710  196.9150 C.2   229  GLN229      0.2260
     32  O        108.1290   14.6510  197.1510 O.2   229  GLN229     -0.2867
     33  CB       109.7470   14.3500  194.5100 C.3   229  GLN229      0.0367
     34  CG       110.5230   13.0870  194.7090 C.3   229  GLN229      0.0905
     35  CD       110.4390   12.1060  193.5290 C.2   229  GLN229      0.2608
     36  OE1      109.6440   12.2840  192.6040 O.2   229  GLN229     -0.2717
     37  NE2      111.2500   11.1140  193.5660 N.am  229  GLN229     -0.0878
     38  N        122.2320    7.5600  190.1330 N.3   280  TYR280     -0.1241
     39  CA       121.1910    8.4990  189.7400 C.3   280  TYR280      0.1605
     40  C        121.6280    9.9310  189.9600 C.2   280  TYR280      0.2264
     41  O        121.9100   10.3160  191.0720 O.2   280  TYR280     -0.2867
     42  CB       119.8830    8.1880  190.5400 C.3   280  TYR280      0.0534
     43  CG       118.7100    8.8770  189.9470 C.ar  280  TYR280     -0.0201
     44  CD1      118.4230   10.1990  190.2790 C.ar  280  TYR280     -0.0009
     45  CD2      117.9440    8.2570  188.9820 C.ar  280  TYR280     -0.0009
     46  CE1      117.4150   10.8910  189.6180 C.ar  280  TYR280      0.0417
     47  CE2      116.9500    8.9130  188.3520 C.ar  280  TYR280      0.0417
     48  CZ       116.6660   10.1940  188.6940 C.ar  280  TYR280      0.1957
     49  OH       115.6350   10.9100  188.0280 O.3   280  TYR280     -0.2866
     50  N        116.6010    8.8260  183.0400 N.3   340  ASP340     -0.1225
     51  CA       115.2290    9.0050  183.5570 C.3   340  ASP340      0.1805
     52  C        114.3710    9.1430  182.2950 C.2   340  ASP340      0.2597
     53  O        114.9040    9.2680  181.1980 O.2   340  ASP340     -0.2718
     54  CB       115.1460   10.2550  184.4400 C.3   340  ASP340      0.1424
     55  CG       113.7790   10.4600  185.0830 C.2   340  ASP340      0.3668
     56  OD1      112.9810    9.5260  185.1790 O.co2 340  ASP340     -0.2456
     57  OD2      113.5290   11.5960  185.4890 O.co2 340  ASP340     -0.2456
     58  N        113.0600    9.1760  182.4590 N.am  341  GLU341     -0.1979
     59  CA       112.1100    9.4860  181.3200 C.3   341  GLU341      0.1602
     60  C        112.2020   10.9500  180.9170 C.2   341  GLU341      0.2287
     61  O        111.5850   11.8110  181.4980 O.2   341  GLU341     -0.2864
     62  CB       110.6580    9.0780  181.6930 C.3   341  GLU341      0.0415
     63  CG       110.5500    7.5500  181.8370 C.3   341  GLU341      0.1163
     64  CD       109.1990    7.0620  182.3710 C.2   341  GLU341      0.3649
     65  OE1      108.2170    7.8590  182.4080 O.co2 341  GLU341     -0.2457
     66  OE2      109.1350    5.8530  182.7090 O.co2 341  GLU341     -0.2457
     67  N        114.4500    4.1490  183.2640 N.3   370  ALA370     -0.1245
     68  CA       113.0300    4.0500  182.9610 C.3   370  ALA370      0.1562
     69  C        112.8430    4.5390  181.5570 C.2   370  ALA370      0.2260
     70  O        113.5040    5.4800  181.1020 O.2   370  ALA370     -0.2867
     71  CB       112.2800    4.9210  183.9420 C.3   370  ALA370      0.0290
     72  N        113.2520   -0.0530  182.4770 N.3   389  SER389     -0.1217
     73  CA       112.0440   -0.3460  183.2470 C.3   389  SER389      0.1889
     74  C        110.8920    0.4040  182.5830 C.2   389  SER389      0.2288
     75  O        111.0380    1.5970  182.3160 O.2   389  SER389     -0.2866
     76  CB       112.2040    0.0980  184.6950 C.3   389  SER389      0.2089
     77  OG       111.1790   -0.5150  185.4690 O.3   389  SER389     -0.2183
     78  N        107.4700   -1.4090  186.0980 N.3   419  TYR419     -0.1227
     79  CA       107.3010   -0.7170  187.3890 C.3   419  TYR419      0.1736
     80  C        105.9170   -0.2160  187.5540 C.2   419  TYR419      0.2596
     81  O        105.1530   -0.0870  186.5860 O.2   419  TYR419     -0.2718
     82  CB       108.2950    0.4350  187.5860 C.3   419  TYR419      0.0548
     83  CG       108.0890    1.6800  186.7250 C.ar  419  TYR419     -0.0200
     84  CD1      107.1700    2.6700  187.1020 C.ar  419  TYR419     -0.0009
     85  CD2      108.8950    1.9340  185.6110 C.ar  419  TYR419     -0.0009
     86  CE1      107.0200    3.8270  186.3600 C.ar  419  TYR419      0.0417
     87  CE2      108.7090    3.0850  184.8470 C.ar  419  TYR419      0.0417
     88  CZ       107.8300    4.0480  185.2640 C.ar  419  TYR419      0.1957
     89  OH       107.6500    5.2180  184.5110 O.3   419  TYR419     -0.2866
     90  N        105.5390    0.0400  188.8080 N.am  420  THR420     -0.1939
     91  CA       104.3320    0.7890  189.1200 C.3   420  THR420      0.2028
     92  C        104.6810    1.9870  189.9830 C.2   420  THR420      0.2642
     93  O        105.7270    2.0380  190.6090 O.2   420  THR420     -0.2714
     94  CB       103.2590   -0.0590  189.8300 C.3   420  THR420      0.1808
     95  OG1      103.7290   -0.5420  191.1000 O.3   420  THR420     -0.2208
     96  CG2      102.7610   -1.1740  188.9840 C.3   420  THR420      0.0379
     97  N        103.8020    2.9750  189.9530 N.am  421  CYS421     -0.1967
     98  CA       103.9970    4.2430  190.6480 C.3   421  CYS421      0.1712
     99  C        102.6310    4.9020  190.8610 C.2   421  CYS421      0.2296
    100  O        101.5550    4.2630  190.6680 O.2   421  CYS421     -0.2864
    101  CB       104.9480    5.1830  189.8440 C.3   421  CYS421      0.0983
    102  SG       104.3580    5.6810  188.2500 S.3   421  CYS421     -0.0798
    103  N        110.5730   -3.3510  189.2320 N.3   453  LEU453     -0.1245
    104  CA       111.2470   -2.1880  189.8240 C.3   453  LEU453      0.1561
    105  C        110.2130   -1.3510  190.5150 C.2   453  LEU453      0.2260
    106  O        109.0880   -1.1710  190.0300 O.2   453  LEU453     -0.2867
    107  CB       112.0120   -1.3980  188.7670 C.3   453  LEU453      0.0270
    108  CG       112.7760   -0.1680  189.2390 C.3   453  LEU453      0.0019
    109  CD1      113.9930    0.1190  188.4060 C.3   453  LEU453      0.0001
    110  CD2      111.8830    1.0500  189.2740 C.3   453  LEU453      0.0001
    111  N        110.2560    2.4870  192.9790 N.3   455  TRP455     -0.1241
    112  CA       111.0720    3.5790  193.5100 C.3   455  TRP455      0.1605
    113  C        111.0060    3.6520  195.0410 C.2   455  TRP455      0.2264
    114  O        111.6150    4.5480  195.6080 O.2   455  TRP455     -0.2867
    115  CB       110.5610    4.8970  192.9230 C.3   455  TRP455      0.0550
    116  CG       109.3210    5.4830  193.6160 C.ar  455  TRP455      0.0003
    117  CD1      108.0390    5.0380  193.5430 C.ar  455  TRP455      0.0946
    118  CD2      109.3120    6.6290  194.4720 C.ar  455  TRP455      0.0152
    119  NE1      107.2150    5.8660  194.2920 N.ar  455  TRP455     -0.2442
    120  CE2      107.9730    6.8450  194.8650 C.ar  455  TRP455      0.0810
    121  CE3      110.2930    7.4950  194.8920 C.ar  455  TRP455      0.0012
    122  CZ2      107.6110    7.8990  195.6900 C.ar  455  TRP455      0.0191
    123  CZ3      109.9430    8.5710  195.7050 C.ar  455  TRP455      0.0001
    124  CH2      108.5900    8.7380  196.0740 C.ar  455  TRP455      0.0015
@<TRIPOS>BOND
     1    60    59    1
     2    60    61    2
     3    70    69    2
     4    53    52    2
     5    59    62    1
     6    59    58    1
     7    69    68    1
     8    62    63    1
     9    63    64    1
    10    52    58   am
    11    52    51    1
    12    75    74    2
    13    64    65   ar
    14    64    66   ar
    15    72    73    1
    16    74    73    1
    17    68    67    1
    18    68    71    1
    19    50    51    1
    20    73    76    1
    21    51    54    1
    22    54    55    1
    23    89    88    1
    24    76    77    1
    25    87    88   ar
    26    87    85   ar
    27    55    56   ar
    28    55    57   ar
    29    88    86   ar
    30    85    83   ar
    31    78    79    1
    32    86    84   ar
    33    81    80    2
    34    83    84   ar
    35    83    82    1
    36    79    80    1
    37    79    82    1
    38    80    90   am
    39    49    48    1
    40   102   101    1
    41    47    48   ar
    42    47    45   ar
    43   109   108    1
    44    48    46   ar
    45   107   108    1
    46   107   104    1
    47    90    91    1
    48    45    43   ar
    49    96    94    1
    50    91    94    1
    51    91    92    1
    52   103   104    1
    53   108   110    1
    54    46    44   ar
    55    39    40    1
    56    39    38    1
    57    39    42    1
    58   104   105    1
    59    94    95    1
    60   101    98    1
    61    12    14   ar
    62    12    10   ar
    63    43    44   ar
    64    43    42    1
    65    97    92   am
    66    97    98    1
    67    40    41    2
    68    92    93    2
    69    14    13   ar
    70   106   105    2
    71    98    99    1
    72   100    99    2
    73    10     9   ar
    74    10     8   ar
    75    13    11   ar
    76    23    21   ar
    77    23    24   ar
    78    21    20   ar
    79     9     7   ar
    80    24    26   ar
    81    24    22   ar
    82    16    15    1
    83    16    17    1
    84    16    19    1
    85     8    11   ar
    86     8     6   ar
    87    20    19    1
    88    20    22   ar
    89    26    28   ar
    90    36    35    2
    91     7     6   ar
    92    17    18    2
    93   115   112    1
    94   115   116    1
    95   111   112    1
    96    22    25   ar
    97     6     5    1
    98   112   113    1
    99    35    37   am
   100    35    34    1
   101   117   116   ar
   102   117   119   ar
   103   116   118   ar
   104    28    27   ar
   105    25    27   ar
   106   119   120   ar
   107   118   120   ar
   108   118   121   ar
   109    33    34    1
   110    33    30    1
   111   120   122   ar
   112     5     2    1
   113   121   123   ar
   114   113   114    2
   115     1     2    1
   116    30    29    1
   117    30    31    1
   118     2     3    1
   119   122   124   ar
   120   123   124   ar
   121    31    32    2
   122     3     4    2
