@<TRIPOS>MOLECULE
tmp/5fqfB01.pdb
 81 75 0 0 0
SMALL
GASTEIGER

@<TRIPOS>ATOM
      1  N        -33.7930  -16.0500  -58.2170 N.3   167  SER167     -0.1217
      2  CA       -34.9860  -16.2670  -57.4120 C.3   167  SER167      0.1889
      3  C        -34.8660  -17.2610  -56.2750 C.2   167  SER167      0.2288
      4  O        -35.6240  -17.1660  -55.3490 O.2   167  SER167     -0.2866
      5  CB       -36.1000  -16.7840  -58.2990 C.3   167  SER167      0.2089
      6  OG       -36.5750  -15.6800  -58.9910 O.3   167  SER167     -0.2183
      7  N        -32.2410  -17.7080  -54.2690 N.3   169  THR169     -0.1203
      8  CA       -31.2210  -17.3050  -53.3320 C.3   169  THR169      0.1994
      9  C        -31.8010  -16.2130  -52.4620 C.2   169  THR169      0.2617
     10  O        -32.8750  -15.6920  -52.7510 O.2   169  THR169     -0.2717
     11  CB       -30.0060  -16.7300  -54.0940 C.3   169  THR169      0.1784
     12  OG1      -30.3500  -15.4690  -54.6820 O.3   169  THR169     -0.2211
     13  CG2      -29.6350  -17.5980  -55.2040 C.3   169  THR169      0.0376
     14  N        -31.0600  -15.8670  -51.4180 N.am  170  ASN170     -0.1974
     15  CA       -31.3940  -14.7250  -50.5720 C.3   170  ASN170      0.1688
     16  C        -30.3990  -13.5520  -50.7380 C.2   170  ASN170      0.2292
     17  O        -30.2360  -12.7450  -49.8180 O.2   170  ASN170     -0.2864
     18  CB       -31.5000  -15.1900  -49.1180 C.3   170  ASN170      0.1181
     19  CG       -32.6580  -16.1680  -48.9110 C.2   170  ASN170      0.2629
     20  OD1      -33.8040  -15.8710  -49.2510 O.2   170  ASN170     -0.2716
     21  ND2      -32.3550  -17.3420  -48.3770 N.am  170  ASN170     -0.0877
     22  N        -29.2260  -10.0130  -52.0910 N.3   172  GLN172     -0.1245
     23  CA       -29.8070   -8.7380  -52.4250 C.3   172  GLN172      0.1566
     24  C        -28.8200   -7.9880  -53.2990 C.2   172  GLN172      0.2260
     25  O        -27.6520   -7.7690  -52.9050 O.2   172  GLN172     -0.2867
     26  CB       -30.1010   -7.9160  -51.1680 C.3   172  GLN172      0.0367
     27  CG       -30.5210   -6.4630  -51.4230 C.3   172  GLN172      0.0905
     28  CD       -31.7950   -6.3450  -52.2490 C.2   172  GLN172      0.2608
     29  OE1      -32.5370   -7.3510  -52.5010 O.2   172  GLN172     -0.2717
     30  NE2      -32.0650   -5.1340  -52.7010 N.am  172  GLN172     -0.0878
     31  N        -32.5070   -6.8580  -57.8610 N.3   215  ARG215     -0.1245
     32  CA       -33.8030   -6.7860  -57.1830 C.3   215  ARG215      0.1563
     33  C        -34.3550   -5.3720  -56.9320 C.2   215  ARG215      0.2260
     34  O        -35.5990   -5.1550  -56.9810 O.2   215  ARG215     -0.2867
     35  CB       -33.7120   -7.5280  -55.8460 C.3   215  ARG215      0.0307
     36  CG       -33.5550   -9.0060  -56.0290 C.3   215  ARG215      0.0489
     37  CD       -33.4640   -9.7660  -54.7160 C.3   215  ARG215      0.2205
     38  NE       -33.4640  -11.1740  -55.0210 N.pl3 215  ARG215     -0.0865
     39  CZ       -33.5820  -12.1570  -54.1370 C.cat 215  ARG215      0.5346
     40  NH1      -33.6950  -11.9130  -52.8470 N.pl3 215  ARG215      0.1354
     41  NH2      -33.5690  -13.4020  -54.5700 N.pl3 215  ARG215      0.1354
     42  N        -46.1330  -11.2460  -55.2440 N.3   272  LYS272     -0.1231
     43  CA       -45.3380  -12.1500  -54.4020 C.3   272  LYS272      0.1693
     44  C        -44.3700  -11.5040  -53.4330 C.2   272  LYS272      0.2593
     45  O        -43.6950  -12.1900  -52.6840 O.2   272  LYS272     -0.2718
     46  CB       -44.5540  -13.1090  -55.2780 C.3   272  LYS272      0.0285
     47  CG       -45.4630  -14.1110  -55.9430 C.3   272  LYS272      0.0035
     48  CD       -44.7070  -15.0480  -56.8620 C.3   272  LYS272      0.0206
     49  CE       -45.6680  -16.0500  -57.4880 C.3   272  LYS272      0.1093
     50  NZ       -45.2510  -16.2850  -58.8860 N.3   272  LYS272     -0.1314
     51  N        -44.2770  -10.1870  -53.4440 N.am  273  GLY273     -0.1942
     52  CA       -43.4310   -9.5120  -52.4880 C.3   273  GLY273      0.2014
     53  C        -41.9870   -9.5800  -52.9200 C.2   273  GLY273      0.2639
     54  O        -41.1420   -9.4660  -52.0680 O.2   273  GLY273     -0.2714
     55  N        -41.7170   -9.7170  -54.2260 N.am  274  PHE274     -0.1959
     56  CA       -40.3560   -9.8310  -54.7400 C.3   274  PHE274      0.1771
     57  C        -39.9050   -8.4770  -55.2920 C.2   274  PHE274      0.2620
     58  O        -40.6620   -7.8040  -56.0020 O.2   274  PHE274     -0.2715
     59  CB       -40.2050  -10.9200  -55.8160 C.3   274  PHE274      0.0574
     60  CG       -40.6440  -12.3330  -55.3810 C.ar  274  PHE274     -0.0200
     61  CD1      -40.7540  -12.7160  -53.9960 C.ar  274  PHE274     -0.0042
     62  CD2      -40.9390  -13.3360  -56.3650 C.ar  274  PHE274     -0.0042
     63  CE1      -41.1740  -14.0180  -53.6330 C.ar  274  PHE274     -0.0003
     64  CE2      -41.3200  -14.6480  -55.9740 C.ar  274  PHE274     -0.0003
     65  CZ       -41.4510  -14.9730  -54.6190 C.ar  274  PHE274     -0.0000
     66  N        -38.6580   -8.1230  -54.9400 N.am  275  GLY275     -0.1954
     67  CA       -37.9500   -6.9040  -55.3840 C.3   275  GLY275      0.1869
     68  C        -38.3800   -5.6740  -54.5970 C.2   275  GLY275      0.2309
     69  O        -39.2380   -5.7420  -53.7170 O.2   275  GLY275     -0.2863
     70  N        -34.9990  -10.2070  -39.9750 N.3   413  GLY413     -0.1225
     71  CA       -35.5080  -10.2070  -41.3540 C.3   413  GLY413      0.1811
     72  C        -35.3930   -8.8480  -42.0380 C.2   413  GLY413      0.2280
     73  O        -36.1690   -8.5750  -42.8910 O.2   413  GLY413     -0.2866
     74  N        -33.0390   -6.0090  -44.3000 N.3   415  LEU415     -0.1245
     75  CA       -32.0730   -6.1360  -45.4010 C.3   415  LEU415      0.1561
     76  C        -30.8630   -5.2830  -45.0800 C.2   415  LEU415      0.2260
     77  O        -30.9930   -4.2100  -44.4860 O.2   415  LEU415     -0.2867
     78  CB       -32.7030   -5.7390  -46.7260 C.3   415  LEU415      0.0270
     79  CG       -33.5530   -6.7750  -47.4330 C.3   415  LEU415      0.0019
     80  CD1      -34.2340   -6.0890  -48.5690 C.3   415  LEU415      0.0001
     81  CD2      -32.6890   -7.9030  -47.9680 C.3   415  LEU415      0.0001
@<TRIPOS>BOND
     1     6     5    1
     2    50    49    1
     3     5     2    1
     4     1     2    1
     5    31    32    1
     6    49    48    1
     7     2     3    1
     8    32    33    1
     9    32    35    1
    10    34    33    2
    11    48    47    1
    12    62    64   ar
    13    62    60   ar
    14     3     4    2
    15    36    35    1
    16    36    37    1
    17    58    57    2
    18    64    65   ar
    19    47    46    1
    20    59    60    1
    21    59    56    1
    22    67    66    1
    23    67    68    1
    24    60    61   ar
    25    57    66   am
    26    57    56    1
    27    46    43    1
    28    42    43    1
    29    13    11    1
    30    38    37    1
    31    38    39    2
    32    56    55    1
    33    12    11    1
    34    65    63   ar
    35    68    69    2
    36    41    39    1
    37    43    44    1
    38     7     8    1
    39    55    53   am
    40    39    40    1
    41    11     8    1
    42    61    63   ar
    43    51    44   am
    44    51    52    1
    45    44    45    2
    46     8     9    1
    47    24    25    2
    48    24    23    1
    49    53    52    1
    50    53    54    2
    51    10     9    2
    52    30    28   am
    53    29    28    2
    54     9    14   am
    55    23    22    1
    56    23    26    1
    57    28    27    1
    58    27    26    1
    59    14    15    1
    60    16    15    1
    61    16    17    2
    62    15    18    1
    63    20    19    2
    64    18    19    1
    65    19    21   am
    66    80    79    1
    67    81    79    1
    68    79    78    1
    69    78    75    1
    70    75    76    1
    71    75    74    1
    72    76    77    2
    73    73    72    2
    74    72    71    1
    75    71    70    1
