@<TRIPOS>MOLECULE
tmp/5fqfB00.pdb
 135 134 0 0 0
SMALL
GASTEIGER

@<TRIPOS>ATOM
      1  N        -28.3890    1.2410  -59.3410 N.3   176  TRP176     -0.1241
      2  CA       -29.3190    2.3220  -59.6940 C.3   176  TRP176      0.1605
      3  C        -29.3100    2.5700  -61.1910 C.2   176  TRP176      0.2264
      4  O        -28.2850    2.8730  -61.7860 O.2   176  TRP176     -0.2867
      5  CB       -28.9730    3.6160  -58.9490 C.3   176  TRP176      0.0550
      6  CG       -29.1690    3.5090  -57.5210 C.ar  176  TRP176      0.0003
      7  CD1      -29.8320    2.5030  -56.8170 C.ar  176  TRP176      0.0946
      8  CD2      -28.7660    4.4470  -56.5870 C.ar  176  TRP176      0.0152
      9  NE1      -29.8380    2.7990  -55.4930 N.ar  176  TRP176     -0.2442
     10  CE2      -29.1710    3.9840  -55.3160 C.ar  176  TRP176      0.0810
     11  CE3      -28.1440    5.6840  -56.6830 C.ar  176  TRP176      0.0012
     12  CZ2      -28.8920    4.6970  -54.1410 C.ar  176  TRP176      0.0191
     13  CZ3      -27.8610    6.3710  -55.5330 C.ar  176  TRP176      0.0001
     14  CH2      -28.2270    5.8690  -54.2570 C.ar  176  TRP176      0.0015
     15  N        -30.2840   14.7120  -56.9340 N.3   226  TRP226     -0.1241
     16  CA       -28.8810   14.6240  -56.6130 C.3   226  TRP226      0.1605
     17  C        -28.1590   15.8840  -57.0280 C.2   226  TRP226      0.2264
     18  O        -26.9690   15.8720  -57.2250 O.2   226  TRP226     -0.2867
     19  CB       -28.2750   13.4330  -57.3360 C.3   226  TRP226      0.0550
     20  CG       -28.6400   12.0690  -56.7410 C.ar  226  TRP226      0.0003
     21  CD1      -28.1060   11.4920  -55.6120 C.ar  226  TRP226      0.0946
     22  CD2      -29.5870   11.1030  -57.2750 C.ar  226  TRP226      0.0152
     23  NE1      -28.6660   10.2260  -55.4260 N.ar  226  TRP226     -0.2442
     24  CE2      -29.5740    9.9790  -56.4180 C.ar  226  TRP226      0.0810
     25  CE3      -30.4400   11.0950  -58.3710 C.ar  226  TRP226      0.0012
     26  CZ2      -30.3850    8.8550  -56.6330 C.ar  226  TRP226      0.0191
     27  CZ3      -31.2440    9.9710  -58.5860 C.ar  226  TRP226      0.0001
     28  CH2      -31.2030    8.8740  -57.7000 C.ar  226  TRP226      0.0015
     29  N        -25.4050   15.8750  -59.9480 N.3   229  GLN229     -0.1245
     30  CA       -24.0600   15.3550  -59.7870 C.3   229  GLN229      0.1566
     31  C        -23.5110   14.6930  -61.0820 C.2   229  GLN229      0.2260
     32  O        -22.2920   14.7280  -61.3550 O.2   229  GLN229     -0.2867
     33  CB       -23.9930   14.3790  -58.6220 C.3   229  GLN229      0.0367
     34  CG       -24.6540   13.0210  -58.8590 C.3   229  GLN229      0.0905
     35  CD       -24.5160   12.0700  -57.6820 C.2   229  GLN229      0.2608
     36  OE1      -23.6120   12.2210  -56.8710 O.2   229  GLN229     -0.2717
     37  NE2      -25.4150   11.0540  -57.5900 N.am  229  GLN229     -0.0878
     38  N        -31.0500    9.2960  -47.2390 N.3   340  ASP340     -0.1225
     39  CA       -29.6330    9.2250  -47.6080 C.3   340  ASP340      0.1805
     40  C        -28.7500    9.5030  -46.3750 C.2   340  ASP340      0.2597
     41  O        -29.2480    9.6350  -45.2430 O.2   340  ASP340     -0.2718
     42  CB       -29.3920   10.2490  -48.6810 C.3   340  ASP340      0.1424
     43  CG       -28.2100    9.8910  -49.6160 C.2   340  ASP340      0.3668
     44  OD1      -27.3010    9.1370  -49.2670 O.co2 340  ASP340     -0.2456
     45  OD2      -28.2200   10.3970  -50.7320 O.co2 340  ASP340     -0.2456
     46  N        -27.4410    9.6160  -46.5710 N.am  341  GLU341     -0.1979
     47  CA       -26.5260    9.9110  -45.4580 C.3   341  GLU341      0.1602
     48  C        -26.6330   11.3970  -45.0550 C.2   341  GLU341      0.2287
     49  O        -25.9120   12.1910  -45.5190 O.2   341  GLU341     -0.2864
     50  CB       -25.1280    9.5220  -45.8570 C.3   341  GLU341      0.0415
     51  CG       -25.0200    8.0020  -46.0680 C.3   341  GLU341      0.1163
     52  CD       -23.7500    7.5190  -46.7490 C.2   341  GLU341      0.3649
     53  OE1      -22.9670    8.3530  -47.2060 O.co2 341  GLU341     -0.2457
     54  OE2      -23.5530    6.2660  -46.8630 O.co2 341  GLU341     -0.2457
     55  N        -28.8540    4.3740  -47.4940 N.3   370  ALA370     -0.1245
     56  CA       -27.4030    4.4220  -47.2190 C.3   370  ALA370      0.1562
     57  C        -27.2030    4.9920  -45.8070 C.2   370  ALA370      0.2260
     58  O        -27.9150    5.9740  -45.4320 O.2   370  ALA370     -0.2867
     59  CB       -26.6830    5.2920  -48.2780 C.3   370  ALA370      0.0290
     60  N        -21.8410   -0.9760  -50.1180 N.3   419  TYR419     -0.1227
     61  CA       -21.6550   -0.3520  -51.4440 C.3   419  TYR419      0.1736
     62  C        -20.2500    0.1070  -51.6160 C.2   419  TYR419      0.2596
     63  O        -19.5370    0.2590  -50.6130 O.2   419  TYR419     -0.2718
     64  CB       -22.6460    0.7930  -51.6940 C.3   419  TYR419      0.0548
     65  CG       -22.4820    2.0930  -50.9040 C.ar  419  TYR419     -0.0200
     66  CD1      -21.6180    3.0830  -51.3340 C.ar  419  TYR419     -0.0009
     67  CD2      -23.1950    2.3290  -49.7310 C.ar  419  TYR419     -0.0009
     68  CE1      -21.4460    4.2700  -50.6140 C.ar  419  TYR419      0.0417
     69  CE2      -23.0570    3.5090  -49.0210 C.ar  419  TYR419      0.0417
     70  CZ       -22.1830    4.4860  -49.4800 C.ar  419  TYR419      0.1957
     71  OH       -22.0320    5.6720  -48.8060 O.3   419  TYR419     -0.2866
     72  N        -19.8150    0.2600  -52.8700 N.am  420  THR420     -0.1939
     73  CA       -18.5850    1.0060  -53.1780 C.3   420  THR420      0.2028
     74  C        -18.9170    2.1910  -54.0430 C.2   420  THR420      0.2642
     75  O        -19.9600    2.2120  -54.7020 O.2   420  THR420     -0.2714
     76  CB       -17.5190    0.1640  -53.8940 C.3   420  THR420      0.1808
     77  OG1      -18.0300   -0.3840  -55.1020 O.3   420  THR420     -0.2208
     78  CG2      -17.0250   -0.9910  -52.9530 C.3   420  THR420      0.0379
     79  N        -18.0090    3.1540  -54.0710 N.am  421  CYS421     -0.1953
     80  CA       -18.2360    4.4380  -54.7790 C.3   421  CYS421      0.1843
     81  C        -16.8790    5.1240  -55.0260 C.2   421  CYS421      0.2626
     82  O        -15.8110    4.4610  -54.9450 O.2   421  CYS421     -0.2714
     83  CB       -19.2130    5.2880  -53.9820 C.3   421  CYS421      0.0997
     84  SG       -18.5950    5.8780  -52.3750 S.3   421  CYS421     -0.0797
     85  N        -16.9080    6.4110  -55.4080 N.am  422  THR422     -0.1950
     86  CA       -15.6880    7.2210  -55.5740 C.3   422  THR422      0.1897
     87  C        -14.8360    7.0930  -54.3080 C.2   422  THR422      0.2313
     88  O        -15.3850    7.0490  -53.2340 O.2   422  THR422     -0.2863
     89  CB       -15.9780    8.6940  -55.8760 C.3   422  THR422      0.1794
     90  OG1      -14.7470    9.3610  -56.1930 O.3   422  THR422     -0.2208
     91  CG2      -16.6240    9.3970  -54.7080 C.3   422  THR422      0.0378
     92  N        -24.8770   -3.1520  -53.1260 N.3   453  LEU453     -0.1245
     93  CA       -25.5360   -2.0590  -53.8160 C.3   453  LEU453      0.1561
     94  C        -24.5010   -1.1940  -54.5270 C.2   453  LEU453      0.2260
     95  O        -23.3500   -1.0200  -54.0400 O.2   453  LEU453     -0.2867
     96  CB       -26.3280   -1.2460  -52.7650 C.3   453  LEU453      0.0270
     97  CG       -26.9870    0.0520  -53.2330 C.3   453  LEU453      0.0019
     98  CD1      -28.2600    0.3630  -52.4420 C.3   453  LEU453      0.0001
     99  CD2      -26.0400    1.2530  -53.1010 C.3   453  LEU453      0.0001
    100  N        -24.4990    2.6210  -57.0620 N.3   455  TRP455     -0.1241
    101  CA       -25.3200    3.7050  -57.5900 C.3   455  TRP455      0.1605
    102  C        -25.2540    3.7340  -59.1340 C.2   455  TRP455      0.2264
    103  O        -25.7890    4.6430  -59.7230 O.2   455  TRP455     -0.2867
    104  CB       -24.8410    5.0610  -57.0030 C.3   455  TRP455      0.0550
    105  CG       -23.6540    5.6400  -57.6780 C.ar  455  TRP455      0.0003
    106  CD1      -22.3840    5.1810  -57.6310 C.ar  455  TRP455      0.0946
    107  CD2      -23.6420    6.7640  -58.5470 C.ar  455  TRP455      0.0152
    108  NE1      -21.5680    5.9670  -58.4060 N.ar  455  TRP455     -0.2442
    109  CE2      -22.3200    6.9550  -58.9680 C.ar  455  TRP455      0.0810
    110  CE3      -24.6380    7.6480  -59.0170 C.ar  455  TRP455      0.0012
    111  CZ2      -21.9570    7.9980  -59.8450 C.ar  455  TRP455      0.0191
    112  CZ3      -24.2840    8.6880  -59.8300 C.ar  455  TRP455      0.0001
    113  CH2      -22.9760    8.8450  -60.2670 C.ar  455  TRP455      0.0015
    114  N        -15.0460   12.0480  -59.9440 N.3   473  TRP473     -0.1241
    115  CA       -14.8530   10.6510  -59.5480 C.3   473  TRP473      0.1605
    116  C        -13.8530    9.9470  -60.4000 C.2   473  TRP473      0.2264
    117  O        -13.5000   10.4060  -61.4890 O.2   473  TRP473     -0.2867
    118  CB       -16.1820    9.8750  -59.5200 C.3   473  TRP473      0.0550
    119  CG       -17.2730   10.6270  -58.8990 C.ar  473  TRP473      0.0003
    120  CD1      -17.2850   11.1880  -57.6720 C.ar  473  TRP473      0.0946
    121  CD2      -18.5150   10.9390  -59.4900 C.ar  473  TRP473      0.0152
    122  NE1      -18.4770   11.8110  -57.4350 N.ar  473  TRP473     -0.2442
    123  CE2      -19.2560   11.6750  -58.5400 C.ar  473  TRP473      0.0810
    124  CE3      -19.0930   10.6610  -60.7450 C.ar  473  TRP473      0.0012
    125  CZ2      -20.5280   12.1090  -58.7780 C.ar  473  TRP473      0.0191
    126  CZ3      -20.3500   11.0910  -60.9760 C.ar  473  TRP473      0.0001
    127  CH2      -21.0710   11.8090  -59.9920 C.ar  473  TRP473      0.0015
    128  N        -16.6310    5.2290  -62.7660 N.3   477  ASP477     -0.1239
    129  CA       -17.4580    5.0880  -61.5810 C.3   477  ASP477      0.1674
    130  C        -18.9750    5.1090  -61.8610 C.2   477  ASP477      0.2266
    131  O        -19.6820    4.3470  -61.2660 O.2   477  ASP477     -0.2867
    132  CB       -17.0870    6.1010  -60.5230 C.3   477  ASP477      0.1410
    133  CG       -17.9510    6.0050  -59.3110 C.2   477  ASP477      0.3668
    134  OD1      -17.7850    5.0130  -58.6010 O.co2 477  ASP477     -0.2456
    135  OD2      -18.8120    6.9190  -59.0540 O.co2 477  ASP477     -0.2456
@<TRIPOS>BOND
     1   128   129    1
     2   130   129    1
     3   130   131    2
     4     4     3    2
     5   129   132    1
     6   117   116    2
     7    32    31    2
     8     3     2    1
     9    31    30    1
    10   126   124   ar
    11   126   127   ar
    12   124   121   ar
    13   132   133    1
    14   116   115    1
    15   113   111   ar
    16   113   112   ar
    17   127   125   ar
    18    29    30    1
    19   114   115    1
    20   111   109   ar
    21   112   110   ar
    22    30    33    1
    23   103   102    2
    24     2     1    1
    25     2     5    1
    26   115   118    1
    27   118   119    1
    28   121   119   ar
    29   121   123   ar
    30   133   135   ar
    31   133   134   ar
    32   102   101    1
    33   110   107   ar
    34   109   107   ar
    35   109   108   ar
    36     5     6    1
    37   119   120   ar
    38    34    33    1
    39    34    35    1
    40   125   123   ar
    41    27    25   ar
    42    27    28   ar
    43   107   105   ar
    44   123   122   ar
    45   108   106   ar
    46    25    22   ar
    47    28    26   ar
    48    35    37   am
    49    35    36    2
    50   105   106   ar
    51   105   104    1
    52   120   122   ar
    53   101   100    1
    54   101   104    1
    55     6     7   ar
    56     6     8   ar
    57    19    20    1
    58    19    16    1
    59    22    20   ar
    60    22    24   ar
    61    18    17    2
    62    17    16    1
    63    15    16    1
    64     7     9   ar
    65    20    21   ar
    66    11     8   ar
    67    11    13   ar
    68    26    24   ar
    69     8    10   ar
    70    24    23   ar
    71    90    89    1
    72    89    86    1
    73    89    91    1
    74    21    23   ar
    75    86    85    1
    76    86    87    1
    77    13    14   ar
    78     9    10   ar
    79    85    81   am
    80    10    12   ar
    81    77    76    1
    82    81    82    2
    83    81    80    1
    84    80    79    1
    85    80    83    1
    86    75    74    2
    87    94    95    2
    88    94    93    1
    89    87    88    2
    90    14    12   ar
    91    79    74   am
    92    74    73    1
    93    83    84    1
    94    76    73    1
    95    76    78    1
    96    93    92    1
    97    93    96    1
    98    97    99    1
    99    97    96    1
   100    97    98    1
   101    73    72    1
   102    72    62   am
   103    64    61    1
   104    64    65    1
   105    62    61    1
   106    62    63    2
   107    61    60    1
   108    66    65   ar
   109    66    68   ar
   110    65    67   ar
   111    45    43   ar
   112    68    70   ar
   113    67    69   ar
   114    43    44   ar
   115    43    42    1
   116    70    69   ar
   117    70    71    1
   118    42    39    1
   119    59    56    1
   120    39    38    1
   121    39    40    1
   122    55    56    1
   123    56    57    1
   124    53    52   ar
   125    54    52   ar
   126    52    51    1
   127    46    40   am
   128    46    47    1
   129    40    41    2
   130    51    50    1
   131    50    47    1
   132    57    58    2
   133    49    48    2
   134    47    48    1
