@<TRIPOS>MOLECULE
tmp/5fqgA00.pdb
 178 174 0 0 0
SMALL
GASTEIGER

@<TRIPOS>ATOM
      1  N         20.5720  -56.6210    3.8240 N.3    90  ARG90      -0.1245
      2  CA        19.8960  -55.3440    3.5630 C.3    90  ARG90       0.1563
      3  C         18.3700  -55.4300    3.6610 C.2    90  ARG90       0.2260
      4  O         17.7210  -56.0520    2.8150 O.2    90  ARG90      -0.2867
      5  CB        20.2860  -54.7320    2.2120 C.3    90  ARG90       0.0307
      6  CG        19.7090  -53.3300    2.0560 C.3    90  ARG90       0.0489
      7  CD        20.1400  -52.6360    0.7860 C.3    90  ARG90       0.2205
      8  NE        19.4630  -51.3510    0.6810 N.pl3  90  ARG90      -0.0865
      9  CZ        19.5440  -50.5290   -0.3640 C.cat  90  ARG90       0.5346
     10  NH1       20.3020  -50.8320   -1.4220 N.pl3  90  ARG90       0.1354
     11  NH2       18.8760  -49.3750   -0.3480 N.pl3  90  ARG90       0.1354
     12  N         30.2570  -37.6270    7.8100 N.3   176  TRP176     -0.1241
     13  CA        29.2210  -36.9900    8.6300 C.3   176  TRP176      0.1605
     14  C         29.2040  -37.5060   10.0610 C.2   176  TRP176      0.2264
     15  O         29.0860  -38.7120   10.3250 O.2   176  TRP176     -0.2867
     16  CB        27.8320  -37.1440    8.0200 C.3   176  TRP176      0.0550
     17  CG        27.6200  -36.4810    6.7050 C.ar  176  TRP176      0.0003
     18  CD1       28.4230  -35.5660    6.0920 C.ar  176  TRP176      0.0946
     19  CD2       26.4820  -36.6580    5.8480 C.ar  176  TRP176      0.0152
     20  NE1       27.8700  -35.1870    4.8880 N.ar  176  TRP176     -0.2442
     21  CE2       26.6760  -35.8420    4.7180 C.ar  176  TRP176      0.0810
     22  CE3       25.3110  -37.4240    5.9370 C.ar  176  TRP176      0.0012
     23  CZ2       25.7390  -35.7670    3.6700 C.ar  176  TRP176      0.0191
     24  CZ3       24.3860  -37.3690    4.8800 C.ar  176  TRP176      0.0001
     25  CH2       24.6110  -36.5400    3.7670 C.ar  176  TRP176      0.0015
     26  N         16.6980  -36.1440    8.2540 N.3   226  TRP226     -0.1241
     27  CA        16.6880  -37.4170    7.5250 C.3   226  TRP226      0.1605
     28  C         15.5730  -38.3530    8.0320 C.2   226  TRP226      0.2264
     29  O         15.7190  -39.5770    7.9910 O.2   226  TRP226     -0.2867
     30  CB        18.0510  -38.1260    7.6730 C.3   226  TRP226      0.0550
     31  CG        19.2280  -37.4330    7.0390 C.ar  226  TRP226      0.0003
     32  CD1       19.5850  -37.4630    5.7200 C.ar  226  TRP226      0.0946
     33  CD2       20.2270  -36.6550    7.7030 C.ar  226  TRP226      0.0152
     34  NE1       20.7290  -36.7200    5.5150 N.ar  226  TRP226     -0.2442
     35  CE2       21.1520  -36.2260    6.7180 C.ar  226  TRP226      0.0810
     36  CE3       20.4310  -36.2680    9.0360 C.ar  226  TRP226      0.0012
     37  CZ2       22.2640  -35.4220    7.0260 C.ar  226  TRP226      0.0191
     38  CZ3       21.5420  -35.4690    9.3400 C.ar  226  TRP226      0.0001
     39  CH2       22.4410  -35.0650    8.3380 C.ar  226  TRP226      0.0015
     40  N         16.0110  -41.7560    9.7840 N.3   229  GLN229     -0.1245
     41  CA        16.5870  -42.9170    9.0760 C.3   229  GLN229      0.1566
     42  C         17.5330  -43.7310    9.9770 C.2   229  GLN229      0.2260
     43  O         17.5070  -44.9700    9.9550 O.2   229  GLN229     -0.2867
     44  CB        17.3080  -42.5020    7.7820 C.3   229  GLN229      0.0367
     45  CG        18.6750  -41.8140    7.9500 C.3   229  GLN229      0.0905
     46  CD        19.3110  -41.4120    6.6250 C.2   229  GLN229      0.2608
     47  OE1       18.9520  -41.9240    5.5550 O.2   229  GLN229     -0.2717
     48  NE2       20.2640  -40.4790    6.6880 N.am  229  GLN229     -0.0878
     49  N         20.1340  -31.7700   -1.4990 N.3   340  ASN340     -0.1225
     50  CA        19.9470  -33.2100   -1.5170 C.3   340  ASN340      0.1785
     51  C         19.4250  -33.6070   -2.9060 C.2   340  ASN340      0.2597
     52  O         19.1080  -32.7270   -3.7080 O.2   340  ASN340     -0.2718
     53  CB        18.9380  -33.5920   -0.4310 C.3   340  ASN340      0.1169
     54  CG        18.9960  -35.0550   -0.0680 C.2   340  ASN340      0.2627
     55  OD1       19.9690  -35.7530   -0.3680 O.2   340  ASN340     -0.2716
     56  ND2       17.9480  -35.5320    0.5770 N.am  340  ASN340     -0.0877
     57  N         19.3460  -34.9050   -3.2040 N.am  341  GLN341     -0.1979
     58  CA        18.7480  -35.3630   -4.4760 C.3   341  GLN341      0.1601
     59  C         17.2650  -34.9790   -4.5700 C.2   341  GLN341      0.2287
     60  O         16.4230  -35.5840   -3.8970 O.2   341  GLN341     -0.2864
     61  CB        18.8780  -36.8850   -4.6610 C.3   341  GLN341      0.0394
     62  CG        20.2350  -37.3610   -5.1550 C.3   341  GLN341      0.0908
     63  CD        21.2900  -37.4810   -4.0670 C.2   341  GLN341      0.2608
     64  OE1       21.0180  -37.2880   -2.8720 O.2   341  GLN341     -0.2717
     65  NE2       22.5100  -37.8230   -4.4780 N.am  341  GLN341     -0.0878
     66  N         25.0090  -33.5740   -2.4910 N.3   370  ALA370     -0.1245
     67  CA        25.0640  -34.8300   -3.2300 C.3   370  ALA370      0.1562
     68  C         24.1960  -34.6930   -4.4970 C.2   370  ALA370      0.2260
     69  O         23.1530  -34.0260   -4.4700 O.2   370  ALA370     -0.2867
     70  CB        24.5700  -35.9800   -2.3750 C.3   370  ALA370      0.0290
     71  N         23.4120  -36.6010   -8.8350 N.3   372  ASP372     -0.1239
     72  CA        23.3770  -37.8180   -9.6650 C.3   372  ASP372      0.1674
     73  C         23.8860  -37.5940  -11.1060 C.2   372  ASP372      0.2266
     74  O         23.3310  -38.1500  -12.0520 O.2   372  ASP372     -0.2867
     75  CB        21.9490  -38.3890   -9.6930 C.3   372  ASP372      0.1410
     76  CG        21.4120  -38.7120   -8.3080 C.2   372  ASP372      0.3668
     77  OD1       22.1980  -39.1600   -7.4460 O.co2 372  ASP372     -0.2456
     78  OD2       20.1930  -38.5340   -8.0900 O.co2 372  ASP372     -0.2456
     79  N         27.5070  -40.0300   -6.3080 N.3   391  GLY391     -0.1225
     80  CA        27.4720  -41.4140   -5.8490 C.3   391  GLY391      0.1811
     81  C         28.1880  -42.3400   -6.8250 C.2   391  GLY391      0.2280
     82  O         28.1470  -42.1060   -8.0400 O.2   391  GLY391     -0.2866
     83  N         27.5960  -45.5060   -7.8120 N.3   393  SER393     -0.1202
     84  CA        26.6920  -46.1840   -8.7620 C.3   393  SER393      0.2020
     85  C         26.1730  -45.2960   -9.9120 C.2   393  SER393      0.2618
     86  O         25.7280  -45.8220  -10.9180 O.2   393  SER393     -0.2717
     87  CB        25.5170  -46.8290   -8.0260 C.3   393  SER393      0.2103
     88  OG        24.7200  -45.8440   -7.3930 O.3   393  SER393     -0.2182
     89  N         26.2360  -43.9700   -9.7770 N.am  394  HIS394     -0.1975
     90  CA        25.8930  -43.0460  -10.8750 C.3   394  HIS394      0.1656
     91  C         27.1190  -42.5800  -11.6950 C.2   394  HIS394      0.2291
     92  O         27.0510  -41.5720  -12.4110 O.2   394  HIS394     -0.2864
     93  CB        25.1200  -41.8340  -10.3250 C.3   394  HIS394      0.0771
     94  CG        23.9320  -42.2040   -9.4910 C.ar  394  HIS394      0.0820
     95  ND1       22.9110  -43.0020   -9.9630 N.ar  394  HIS394     -0.2267
     96  CD2       23.6070  -41.8910   -8.2160 C.ar  394  HIS394      0.1154
     97  CE1       22.0070  -43.1640   -9.0130 C.ar  394  HIS394      0.1986
     98  NE2       22.4050  -42.4980   -7.9430 N.ar  394  HIS394     -0.2212
     99  N         31.0840  -40.5470   -3.3840 N.3   419  TYR419     -0.1227
    100  CA        30.7120  -41.1840   -2.1360 C.3   419  TYR419      0.1736
    101  C         30.2130  -42.5760   -2.3670 C.2   419  TYR419      0.2596
    102  O         29.7950  -42.9150   -3.4690 O.2   419  TYR419     -0.2718
    103  CB        29.6370  -40.3500   -1.4100 C.3   419  TYR419      0.0548
    104  CG        28.2550  -40.2980   -2.0510 C.ar  419  TYR419     -0.0200
    105  CD1       27.2880  -41.2610   -1.7610 C.ar  419  TYR419     -0.0009
    106  CD2       27.9080  -39.2580   -2.9220 C.ar  419  TYR419     -0.0009
    107  CE1       26.0190  -41.2040   -2.3330 C.ar  419  TYR419      0.0417
    108  CE2       26.6440  -39.1860   -3.4910 C.ar  419  TYR419      0.0417
    109  CZ        25.7060  -40.1640   -3.1990 C.ar  419  TYR419      0.1957
    110  OH        24.4660  -40.0860   -3.7780 O.3   419  TYR419     -0.2866
    111  N         30.2670  -43.3850   -1.3190 N.am  420  THR420     -0.1939
    112  CA        29.6280  -44.6870   -1.3170 C.3   420  THR420      0.2028
    113  C         28.6240  -44.7270   -0.1980 C.2   420  THR420      0.2642
    114  O         28.7200  -43.9830    0.7720 O.2   420  THR420     -0.2714
    115  CB        30.6330  -45.8370   -1.1670 C.3   420  THR420      0.1808
    116  OG1       31.2990  -45.7600    0.1000 O.3   420  THR420     -0.2208
    117  CG2       31.6580  -45.7840   -2.3010 C.3   420  THR420      0.0379
    118  N         27.6510  -45.6030   -0.3580 N.am  421  CYS421     -0.1953
    119  CA        26.5370  -45.7170    0.5650 C.3   421  CYS421      0.1843
    120  C         25.9390  -47.0940    0.3230 C.2   421  CYS421      0.2626
    121  O         26.5840  -47.9210   -0.3250 O.2   421  CYS421     -0.2714
    122  CB        25.5310  -44.5870    0.3080 C.3   421  CYS421      0.0997
    123  SG        24.8320  -44.5520   -1.3610 S.3   421  CYS421     -0.0797
    124  N         24.7390  -47.3450    0.8430 N.am  422  THR422     -0.1936
    125  CA        24.0370  -48.6200    0.6360 C.3   422  THR422      0.2028
    126  C         23.9300  -48.9690   -0.8640 C.2   422  THR422      0.2642
    127  O         23.8020  -48.0850   -1.7160 O.2   422  THR422     -0.2714
    128  CB        22.6390  -48.5890    1.3120 C.3   422  THR422      0.1808
    129  OG1       22.0840  -49.9060    1.4070 O.3   422  THR422     -0.2208
    130  CG2       21.6880  -47.6980    0.5630 C.3   422  THR422      0.0379
    131  N         24.0540  -50.2530   -1.1750 N.am  423  GLY423     -0.1954
    132  CA        23.9320  -50.7530   -2.5490 C.3   423  GLY423      0.1869
    133  C         25.0770  -50.4270   -3.5040 C.2   423  GLY423      0.2309
    134  O         24.9140  -50.5410   -4.7260 O.2   423  GLY423     -0.2863
    135  N         33.6570  -38.5530    0.1960 N.3   453  LEU453     -0.1245
    136  CA        32.6680  -38.1910    1.2030 C.3   453  LEU453      0.1561
    137  C         31.9500  -39.4540    1.5830 C.2   453  LEU453      0.2260
    138  O         31.7620  -40.3370    0.7420 O.2   453  LEU453     -0.2867
    139  CB        31.6650  -37.1610    0.6630 C.3   453  LEU453      0.0270
    140  CG        30.4190  -36.7760    1.4990 C.3   453  LEU453      0.0019
    141  CD1       29.9110  -35.3950    1.0780 C.3   453  LEU453      0.0001
    142  CD2       29.2760  -37.7970    1.4390 C.3   453  LEU453      0.0001
    143  N         28.6380  -40.6860    4.5910 N.3   455  TRP455     -0.1241
    144  CA        27.6440  -40.2050    5.5370 C.3   455  TRP455      0.1605
    145  C         27.8320  -40.7830    6.9330 C.2   455  TRP455      0.2264
    146  O         27.0270  -40.5010    7.8180 O.2   455  TRP455     -0.2867
    147  CB        26.2290  -40.5380    5.0080 C.3   455  TRP455      0.0550
    148  CG        25.7660  -41.9350    5.2900 C.ar  455  TRP455      0.0003
    149  CD1       26.1650  -43.0760    4.6730 C.ar  455  TRP455      0.0946
    150  CD2       24.8320  -42.3280    6.2900 C.ar  455  TRP455      0.0152
    151  NE1       25.5320  -44.1650    5.2180 N.ar  455  TRP455     -0.2442
    152  CE2       24.7130  -43.7350    6.2240 C.ar  455  TRP455      0.0810
    153  CE3       24.0660  -41.6270    7.2330 C.ar  455  TRP455      0.0012
    154  CZ2       23.8520  -44.4500    7.0530 C.ar  455  TRP455      0.0191
    155  CZ3       23.2150  -42.3440    8.0600 C.ar  455  TRP455      0.0001
    156  CH2       23.1150  -43.7380    7.9680 C.ar  455  TRP455      0.0015
    157  N         19.8750  -51.0420    5.1810 N.3   473  TRP473     -0.1241
    158  CA        21.2440  -51.0520    4.6590 C.3   473  TRP473      0.1605
    159  C         22.1250  -52.2520    5.0470 C.2   473  TRP473      0.2264
    160  O         21.9060  -52.9460    6.0420 O.2   473  TRP473     -0.2867
    161  CB        21.9820  -49.7530    5.0400 C.3   473  TRP473      0.0550
    162  CG        21.1560  -48.5140    4.9490 C.ar  473  TRP473      0.0003
    163  CD1       20.5000  -48.0460    3.8540 C.ar  473  TRP473      0.0946
    164  CD2       20.9020  -47.5750    6.0020 C.ar  473  TRP473      0.0152
    165  NE1       19.8570  -46.8690    4.1510 N.ar  473  TRP473     -0.2442
    166  CE2       20.0840  -46.5590    5.4660 C.ar  473  TRP473      0.0810
    167  CE3       21.2780  -47.5000    7.3480 C.ar  473  TRP473      0.0012
    168  CZ2       19.6400  -45.4760    6.2270 C.ar  473  TRP473      0.0191
    169  CZ3       20.8420  -46.4250    8.1020 C.ar  473  TRP473      0.0001
    170  CH2       20.0320  -45.4270    7.5400 C.ar  473  TRP473      0.0015
    171  N         27.0540  -49.9610    7.6110 N.3   477  ASP477     -0.1239
    172  CA        26.9790  -48.8110    6.7230 C.3   477  ASP477      0.1674
    173  C         26.9760  -47.4690    7.4490 C.2   477  ASP477      0.2266
    174  O         27.5890  -46.5220    6.9460 O.2   477  ASP477     -0.2867
    175  CB        25.7370  -48.8740    5.8490 C.3   477  ASP477      0.1410
    176  CG        25.6250  -47.7010    4.9180 C.2   477  ASP477      0.3668
    177  OD1       26.5460  -47.4790    4.1080 O.co2 477  ASP477     -0.2456
    178  OD2       24.6110  -46.9830    4.9950 O.co2 477  ASP477     -0.2456
@<TRIPOS>BOND
     1    92    91    2
     2    74    73    2
     3    91    90    1
     4    73    72    1
     5    86    85    2
     6    90    93    1
     7    90    89    1
     8    93    94    1
     9    95    94   ar
    10    95    97   ar
    11    85    89   am
    12    85    84    1
    13    75    72    1
    14    75    76    1
    15    72    71    1
    16    94    96   ar
    17    97    98   ar
    18    84    87    1
    19    84    83    1
    20    76    78   ar
    21    76    77   ar
    22    96    98   ar
    23    82    81    2
    24    87    88    1
    25    81    80    1
    26    79    80    1
    27    62    61    1
    28    62    63    1
    29   134   133    2
    30    61    58    1
    31    59    58    1
    32    59    60    2
    33    68    69    2
    34    68    67    1
    35    65    63   am
    36    58    57    1
    37    63    64    2
    38   110   109    1
    39    52    51    2
    40   133   132    1
    41   108   109   ar
    42   108   106   ar
    43   102   101    2
    44    99   100    1
    45    67    66    1
    46    67    70    1
    47    57    51   am
    48   109   107   ar
    49   106   104   ar
    50    51    50    1
    51   132   131    1
    52   101   100    1
    53   101   111   am
    54   107   105   ar
    55   117   115    1
    56   100   103    1
    57   104   105   ar
    58   104   103    1
    59   127   126    2
    60    50    49    1
    61    50    53    1
    62    10     9    1
    63   123   122    1
    64   111   112    1
    65   112   115    1
    66   112   113    1
    67   131   126   am
    68   115   116    1
    69   126   125    1
    70    53    54    1
    71    55    54    2
    72     9    11    1
    73     9     8    2
    74   118   113   am
    75   118   119    1
    76   121   120    2
    77   113   114    2
    78    54    56   am
    79   135   136    1
    80   122   119    1
    81   120   119    1
    82   120   124   am
    83   130   128    1
    84   125   124    1
    85   125   128    1
    86   139   136    1
    87   139   140    1
    88     8     7    1
    89   138   137    2
    90     7     6    1
    91   141   140    1
    92   136   137    1
    93   128   129    1
    94   142   140    1
    95     6     5    1
    96     5     2    1
    97     4     3    2
    98     2     3    1
    99     2     1    1
   100    23    25   ar
   101    23    21   ar
   102    25    24   ar
   103   163   165   ar
   104   163   162   ar
   105   177   176   ar
   106   165   166   ar
   107   143   144    1
   108   158   161    1
   109   158   159    1
   110   158   157    1
   111   149   151   ar
   112   149   148   ar
   113    21    20   ar
   114    21    19   ar
   115    24    22   ar
   116    20    18   ar
   117   176   178   ar
   118   176   175    1
   119   162   161    1
   120   162   164   ar
   121   147   148    1
   122   147   144    1
   123   159   160    2
   124   151   152   ar
   125   148   150   ar
   126   166   164   ar
   127   166   168   ar
   128    34    32   ar
   129    34    35   ar
   130   144   145    1
   131    47    46    2
   132    32    31   ar
   133    19    22   ar
   134    19    17   ar
   135   175   172    1
   136   164   167   ar
   137    18    17   ar
   138   152   150   ar
   139   152   154   ar
   140   168   170   ar
   141   150   153   ar
   142    46    48   am
   143    46    45    1
   144    17    16    1
   145    35    37   ar
   146    35    33   ar
   147   172   173    1
   148   172   171    1
   149   145   146    2
   150   174   173    2
   151    37    39   ar
   152    31    30    1
   153    31    33   ar
   154   154   156   ar
   155   153   155   ar
   156   167   169   ar
   157    27    30    1
   158    27    28    1
   159    27    26    1
   160   170   169   ar
   161    33    36   ar
   162    44    45    1
   163    44    41    1
   164    12    13    1
   165   156   155   ar
   166    29    28    2
   167    16    13    1
   168    39    38   ar
   169    13    14    1
   170    36    38   ar
   171    41    40    1
   172    41    42    1
   173    43    42    2
   174    14    15    2
