@<TRIPOS>MOLECULE
tmp/5fqhA00.pdb
 156 153 0 0 0
SMALL
GASTEIGER

@<TRIPOS>ATOM
      1  N         53.5160   11.6120  -12.0230 N.3    90  ARG90      -0.1245
      2  CA        54.9380   11.4110  -12.0210 C.3    90  ARG90       0.1563
      3  C         55.6750   12.7280  -11.7550 C.2    90  ARG90       0.2260
      4  O         55.5140   13.6740  -12.5040 O.2    90  ARG90      -0.2867
      5  CB        55.3220   10.9220  -13.3730 C.3    90  ARG90       0.0307
      6  CG        56.7470   10.4700  -13.4240 C.3    90  ARG90       0.0489
      7  CD        57.0070    9.8680  -14.7570 C.3    90  ARG90       0.2205
      8  NE        58.4330    9.7130  -14.9420 N.pl3  90  ARG90      -0.0865
      9  CZ        58.9780    9.2230  -16.0460 C.cat  90  ARG90       0.5346
     10  NH1       58.2160    8.8310  -17.0530 N.pl3  90  ARG90       0.1354
     11  NH2       60.2870    9.1190  -16.1310 N.pl3  90  ARG90       0.1354
     12  N         64.9850   -6.8720   -8.2810 N.3   176  TRP176     -0.1241
     13  CA        66.0840   -6.3440   -7.4980 C.3   176  TRP176      0.1605
     14  C         65.6060   -6.0920   -6.0860 C.2   176  TRP176      0.2264
     15  O         64.5790   -5.4420   -5.8480 O.2   176  TRP176     -0.2867
     16  CB        66.6210   -5.0600   -8.0870 C.3   176  TRP176      0.0550
     17  CG        67.2900   -5.1970   -9.3930 C.ar  176  TRP176      0.0003
     18  CD1       67.6410   -6.3440  -10.0240 C.ar  176  TRP176      0.0946
     19  CD2       67.7300   -4.1330  -10.2200 C.ar  176  TRP176      0.0152
     20  NE1       68.2730   -6.0620  -11.1940 N.ar  176  TRP176     -0.2442
     21  CE2       68.3410   -4.7090  -11.3470 C.ar  176  TRP176      0.0810
     22  CE3       67.7090   -2.7450  -10.0980 C.ar  176  TRP176      0.0012
     23  CZ2       68.9090   -3.9500  -12.3620 C.ar  176  TRP176      0.0191
     24  CZ3       68.2320   -1.9830  -11.1390 C.ar  176  TRP176      0.0001
     25  CH2       68.8400   -2.5880  -12.2430 C.ar  176  TRP176      0.0015
     26  N         73.2390    4.1120   -7.6210 N.3   226  TRP226     -0.1241
     27  CA        72.1520    4.7360   -8.3910 C.3   226  TRP226      0.1605
     28  C         71.9200    6.1420   -7.8940 C.2   226  TRP226      0.2264
     29  O         70.8000    6.6450   -7.9510 O.2   226  TRP226     -0.2867
     30  CB        70.8420    3.9450   -8.2050 C.3   226  TRP226      0.0550
     31  CG        70.7960    2.5760   -8.7840 C.ar  226  TRP226      0.0003
     32  CD1       70.4890    2.2420  -10.0740 C.ar  226  TRP226      0.0946
     33  CD2       70.9900    1.3390   -8.0890 C.ar  226  TRP226      0.0152
     34  NE1       70.5220    0.8810  -10.2270 N.ar  226  TRP226     -0.2442
     35  CE2       70.8090    0.3060   -9.0200 C.ar  226  TRP226      0.0810
     36  CE3       71.3340    1.0110   -6.7720 C.ar  226  TRP226      0.0012
     37  CZ2       70.9270   -1.0420   -8.6770 C.ar  226  TRP226      0.0191
     38  CZ3       71.4740   -0.3340   -6.4310 C.ar  226  TRP226      0.0001
     39  CH2       71.2620   -1.3410   -7.3780 C.ar  226  TRP226      0.0015
     40  N         68.7160    7.4690   -6.0540 N.3   229  GLN229     -0.1245
     41  CA        67.4270    7.6280   -6.7030 C.3   229  GLN229      0.1566
     42  C         66.2280    7.2420   -5.8020 C.2   229  GLN229      0.2260
     43  O         65.1400    7.8190   -5.9200 O.2   229  GLN229     -0.2867
     44  CB        67.4020    6.8100   -7.9860 C.3   229  GLN229      0.0367
     45  CG        67.5490    5.3000   -7.7670 C.3   229  GLN229      0.0905
     46  CD        67.2250    4.5100   -9.0030 C.2   229  GLN229      0.2608
     47  OE1       66.8670    5.0860   -9.9940 O.2   229  GLN229     -0.2717
     48  NE2       67.3720    3.1860   -8.9530 N.am  229  GLN229     -0.0878
     49  N         72.5990    1.1860  -19.1090 N.3   341  GLN341     -0.1245
     50  CA        72.5840    1.8900  -20.3860 C.3   341  GLN341      0.1566
     51  C         73.6500    2.9900  -20.3560 C.2   341  GLN341      0.2260
     52  O         73.5360    3.9760  -19.6470 O.2   341  GLN341     -0.2867
     53  CB        71.1790    2.4320  -20.6940 C.3   341  GLN341      0.0367
     54  CG        71.0780    3.2830  -21.9570 C.3   341  GLN341      0.0905
     55  CD        71.6750    2.6050  -23.1940 C.2   341  GLN341      0.2608
     56  OE1       71.3580    1.4510  -23.4940 O.2   341  GLN341     -0.2717
     57  NE2       72.5450    3.3200  -23.9110 N.am  341  GLN341     -0.0878
     58  N         70.8940   -4.2540  -18.5030 N.3   370  ALA370     -0.1245
     59  CA        69.8910   -3.4980  -19.2180 C.3   370  ALA370      0.1562
     60  C         70.5470   -2.8850  -20.4800 C.2   370  ALA370      0.2260
     61  O         71.5960   -2.2110  -20.4060 O.2   370  ALA370     -0.2867
     62  CB        69.3300   -2.3990  -18.3510 C.3   370  ALA370      0.0290
     63  N         69.5000   -0.9560  -24.4150 N.3   372  ASP372     -0.1239
     64  CA        68.5240   -0.3640  -25.3000 C.3   372  ASP372      0.1674
     65  C         68.8690   -0.9120  -26.6680 C.2   372  ASP372      0.2266
     66  O         69.8050   -0.4800  -27.3150 O.2   372  ASP372     -0.2867
     67  CB        68.5690    1.1500  -25.1940 C.3   372  ASP372      0.1410
     68  CG        68.2120    1.6360  -23.7730 C.2   372  ASP372      0.3668
     69  OD1       67.8420    0.7860  -22.9280 O.co2 372  ASP372     -0.2456
     70  OD2       68.3050    2.8560  -23.4960 O.co2 372  ASP372     -0.2456
     71  N         61.3560    0.2560  -25.4360 N.3   394  HIS394     -0.1241
     72  CA        62.2280    0.1640  -26.5780 C.3   394  HIS394      0.1621
     73  C         61.8820   -1.0080  -27.4780 C.2   394  HIS394      0.2264
     74  O         62.6200   -1.2810  -28.4270 O.2   394  HIS394     -0.2867
     75  CB        63.6980    0.0520  -26.1520 C.3   394  HIS394      0.0745
     76  CG        64.1380    1.1490  -25.2430 C.ar  394  HIS394      0.0817
     77  ND1       63.8350    2.4740  -25.4810 N.ar  394  HIS394     -0.2268
     78  CD2       64.8190    1.1210  -24.0740 C.ar  394  HIS394      0.1154
     79  CE1       64.3140    3.2160  -24.5000 C.ar  394  HIS394      0.1986
     80  NE2       64.9160    2.4200  -23.6340 N.ar  394  HIS394     -0.2212
     81  N         61.9410   -5.7600  -19.2940 N.3   419  TYR419     -0.1227
     82  CA        61.5290   -5.1530  -18.0420 C.3   419  TYR419      0.1736
     83  C         60.5400   -4.0660  -18.2950 C.2   419  TYR419      0.2596
     84  O         60.3640   -3.6310  -19.4380 O.2   419  TYR419     -0.2718
     85  CB        62.7590   -4.6470  -17.2770 C.3   419  TYR419      0.0548
     86  CG        63.5500   -3.5410  -17.9130 C.ar  419  TYR419     -0.0200
     87  CD1       63.1740   -2.2330  -17.7310 C.ar  419  TYR419     -0.0009
     88  CD2       64.6890   -3.8070  -18.6770 C.ar  419  TYR419     -0.0009
     89  CE1       63.8970   -1.1990  -18.2780 C.ar  419  TYR419      0.0417
     90  CE2       65.4370   -2.7830  -19.2320 C.ar  419  TYR419      0.0417
     91  CZ        65.0170   -1.4760  -19.0310 C.ar  419  TYR419      0.1957
     92  OH        65.6750   -0.4150  -19.5740 O.3   419  TYR419     -0.2866
     93  N         59.8200   -3.6860  -17.2540 N.am  420  THR420     -0.1939
     94  CA        59.0590   -2.4680  -17.2730 C.3   420  THR420      0.2028
     95  C         59.5900   -1.5450  -16.1830 C.2   420  THR420      0.2642
     96  O         60.2200   -2.0080  -15.2490 O.2   420  THR420     -0.2714
     97  CB        57.5470   -2.7040  -17.1000 C.3   420  THR420      0.1808
     98  OG1       57.2680   -3.3250  -15.8330 O.3   420  THR420     -0.2208
     99  CG2       57.0220   -3.5680  -18.2510 C.3   420  THR420      0.0379
    100  N         59.3370   -0.2450  -16.3250 N.am  421  CYS421     -0.1953
    101  CA        59.7310    0.7360  -15.3440 C.3   421  CYS421      0.1843
    102  C         58.8300    1.9760  -15.5000 C.2   421  CYS421      0.2626
    103  O         57.7940    1.8950  -16.1510 O.2   421  CYS421     -0.2714
    104  CB        61.2080    1.0630  -15.5290 C.3   421  CYS421      0.0997
    105  SG        61.5960    1.6800  -17.1810 S.3   421  CYS421     -0.0797
    106  N         59.1880    3.0930  -14.8650 N.am  422  THR422     -0.1950
    107  CA        58.4740    4.3910  -14.9950 C.3   422  THR422      0.1897
    108  C         58.2820    4.7180  -16.4610 C.2   422  THR422      0.2313
    109  O         59.1190    4.3750  -17.2750 O.2   422  THR422     -0.2863
    110  CB        59.2900    5.5410  -14.3590 C.3   422  THR422      0.1794
    111  OG1       58.5560    6.7710  -14.4070 O.3   422  THR422     -0.2208
    112  CG2       60.6160    5.7340  -15.0560 C.3   422  THR422      0.0378
    113  N         62.3840   -9.0090  -15.9320 N.3   453  LEU453     -0.1245
    114  CA        63.2170   -8.3920  -14.9170 C.3   453  LEU453      0.1561
    115  C         62.4900   -7.1750  -14.4650 C.2   453  LEU453      0.2260
    116  O         61.8710   -6.4850  -15.2740 O.2   453  LEU453     -0.2867
    117  CB        64.5680   -8.0400  -15.4910 C.3   453  LEU453      0.0270
    118  CG        65.4440   -7.1240  -14.6290 C.3   453  LEU453      0.0019
    119  CD1       66.8890   -7.3680  -14.9860 C.3   453  LEU453      0.0001
    120  CD2       65.1150   -5.6610  -14.8170 C.3   453  LEU453      0.0001
    121  N         63.0640   -3.8200  -11.4820 N.3   455  TRP455     -0.1241
    122  CA        64.0330   -3.2470  -10.5720 C.3   455  TRP455      0.1605
    123  C         63.5360   -3.1690   -9.1460 C.2   455  TRP455      0.2264
    124  O         64.2720   -2.7400   -8.2950 O.2   455  TRP455     -0.2867
    125  CB        64.4110   -1.8510  -11.0760 C.3   455  TRP455      0.0550
    126  CG        63.4120   -0.7810  -10.7650 C.ar  455  TRP455      0.0003
    127  CD1       62.2210   -0.5520  -11.3750 C.ar  455  TRP455      0.0946
    128  CD2       63.5490    0.2320   -9.7750 C.ar  455  TRP455      0.0152
    129  NE1       61.5830    0.5220  -10.8110 N.ar  455  TRP455     -0.2442
    130  CE2       62.3830    1.0320   -9.8260 C.ar  455  TRP455      0.0810
    131  CE3       64.5430    0.5500   -8.8530 C.ar  455  TRP455      0.0012
    132  CZ2       62.1890    2.1060   -8.9860 C.ar  455  TRP455      0.0191
    133  CZ3       64.3330    1.6360   -8.0060 C.ar  455  TRP455      0.0001
    134  CH2       63.1710    2.3800   -8.0680 C.ar  455  TRP455      0.0015
    135  N         58.6110    8.9060  -10.3710 N.3   473  TRP473     -0.1241
    136  CA        57.9100    7.7580  -10.9000 C.3   473  TRP473      0.1605
    137  C         56.4450    7.6440  -10.5600 C.2   473  TRP473      0.2264
    138  O         55.9370    8.2310   -9.6210 O.2   473  TRP473     -0.2867
    139  CB        58.6400    6.4600  -10.5040 C.3   473  TRP473      0.0550
    140  CG        60.0920    6.5870  -10.6150 C.ar  473  TRP473      0.0003
    141  CD1       60.8000    7.0440  -11.7010 C.ar  473  TRP473      0.0946
    142  CD2       61.0560    6.2920   -9.6080 C.ar  473  TRP473      0.0152
    143  NE1       62.1390    7.0200  -11.4290 N.ar  473  TRP473     -0.2442
    144  CE2       62.3210    6.5750  -10.1460 C.ar  473  TRP473      0.0810
    145  CE3       60.9740    5.8090   -8.3090 C.ar  473  TRP473      0.0012
    146  CZ2       63.4770    6.3700   -9.4370 C.ar  473  TRP473      0.0191
    147  CZ3       62.1180    5.6190   -7.6130 C.ar  473  TRP473      0.0001
    148  CH2       63.3510    5.8900   -8.1720 C.ar  473  TRP473      0.0015
    149  N         55.8600    2.3270   -8.2760 N.3   477  ASP477     -0.1239
    150  CA        56.8700    1.7770   -9.1540 C.3   477  ASP477      0.1674
    151  C         58.0340    1.0350   -8.4530 C.2   477  ASP477      0.2266
    152  O         58.5230    0.0600   -9.0010 O.2   477  ASP477     -0.2867
    153  CB        57.4720    2.8430  -10.0640 C.3   477  ASP477      0.1410
    154  CG        58.4730    2.2650  -11.0310 C.2   477  ASP477      0.3668
    155  OD1       58.1110    1.4060  -11.8540 O.co2 477  ASP477     -0.2456
    156  OD2       59.6510    2.6520  -10.9720 O.co2 477  ASP477     -0.2456
@<TRIPOS>BOND
     1    74    73    2
     2    73    72    1
     3    66    65    2
     4    65    64    1
     5    72    75    1
     6    72    71    1
     7    75    76    1
     8    77    76   ar
     9    77    79   ar
    10    64    67    1
    11    64    63    1
    12    76    78   ar
    13    67    68    1
    14    79    80   ar
    15    78    80   ar
    16    57    55   am
    17    68    70   ar
    18    68    69   ar
    19    56    55    2
    20    55    54    1
    21    54    53    1
    22    53    50    1
    23    60    61    2
    24    60    59    1
    25    50    51    1
    26    50    49    1
    27    51    52    2
    28    92    91    1
    29    84    83    2
    30    81    82    1
    31    90    91   ar
    32    90    88   ar
    33    59    58    1
    34    59    62    1
    35    91    89   ar
    36    88    86   ar
    37    83    82    1
    38    83    93   am
    39    89    87   ar
    40    99    97    1
    41    82    85    1
    42    86    87   ar
    43    86    85    1
    44   109   108    2
    45    94    93    1
    46    94    97    1
    47    94    95    1
    48   105   104    1
    49    97    98    1
    50    10     9    1
    51   108   107    1
    52   100    95   am
    53   100   101    1
    54    95    96    2
    55   103   102    2
    56    11     9    1
    57     9     8    2
    58   113   114    1
    59   104   101    1
    60   102   101    1
    61   102   106   am
    62   117   114    1
    63   117   118    1
    64   116   115    2
    65   112   110    1
    66   107   106    1
    67   107   110    1
    68   119   118    1
    69     8     7    1
    70   114   115    1
    71   120   118    1
    72     7     6    1
    73   111   110    1
    74     6     5    1
    75     5     2    1
    76     4     3    2
    77    23    25   ar
    78    23    21   ar
    79    25    24   ar
    80     1     2    1
    81     2     3    1
    82   155   154   ar
    83   141   143   ar
    84   141   140   ar
    85   121   122    1
    86   143   144   ar
    87   127   129   ar
    88   127   126   ar
    89    21    20   ar
    90    21    19   ar
    91    20    18   ar
    92    24    22   ar
    93   125   126    1
    94   125   122    1
    95   154   156   ar
    96   154   153    1
    97   136   137    1
    98   136   139    1
    99   136   135    1
   100   129   130   ar
   101   126   128   ar
   102   140   139    1
   103   140   142   ar
   104   122   123    1
   105   137   138    2
   106    34    32   ar
   107    34    35   ar
   108    19    22   ar
   109    19    17   ar
   110   144   142   ar
   111   144   146   ar
   112    32    31   ar
   113   153   150    1
   114    18    17   ar
   115    47    46    2
   116   130   128   ar
   117   130   132   ar
   118   128   131   ar
   119   142   145   ar
   120   146   148   ar
   121    17    16    1
   122   150   151    1
   123   150   149    1
   124   123   124    2
   125    35    37   ar
   126    35    33   ar
   127    46    48   am
   128    46    45    1
   129   152   151    2
   130   132   134   ar
   131   131   133   ar
   132    31    30    1
   133    31    33   ar
   134    37    39   ar
   135    27    30    1
   136    27    28    1
   137    27    26    1
   138   145   147   ar
   139    12    13    1
   140   148   147   ar
   141    33    36   ar
   142    16    13    1
   143   134   133   ar
   144    44    45    1
   145    44    41    1
   146    29    28    2
   147    13    14    1
   148    39    38   ar
   149    36    38   ar
   150    41    40    1
   151    41    42    1
   152    14    15    2
   153    43    42    2
