@<TRIPOS>MOLECULE
tmp/5fqjA00.pdb
 106 102 0 0 0
SMALL
GASTEIGER

@<TRIPOS>ATOM
      1  N        -27.6900   22.7420  -20.6910 N.3   198  LEU198     -0.1231
      2  CA       -28.3780   22.2490  -19.5120 C.3   198  LEU198      0.1678
      3  C        -29.1340   23.3580  -18.8000 C.2   198  LEU198      0.2434
      4  O        -28.9090   24.5460  -19.0460 O.2   198  LEU198     -0.2733
      5  CB       -27.3790   21.6240  -18.5350 C.3   198  LEU198      0.0284
      6  CG       -26.7210   20.3310  -19.0000 C.3   198  LEU198      0.0019
      7  CD1      -25.6530   19.9230  -18.0040 C.3   198  LEU198      0.0001
      8  CD2      -27.7430   19.2270  -19.1740 C.3   198  LEU198      0.0001
      9  N        -30.0480   22.9960  -17.9050 N.am  199  PRO199     -0.2729
     10  CA       -30.6690   24.0050  -17.0400 C.3   199  PRO199      0.1401
     11  C        -29.6540   24.6290  -16.0920 C.2   199  PRO199      0.2269
     12  O        -28.7930   23.9460  -15.5310 O.2   199  PRO199     -0.2865
     13  CB       -31.7380   23.2090  -16.2790 C.3   199  PRO199      0.0296
     14  CG       -32.0320   22.0270  -17.1660 C.3   199  PRO199      0.0237
     15  CD       -30.7270   21.6920  -17.8180 C.3   199  PRO199      0.0939
     16  N        -28.8820   23.5400  -12.4480 N.3   202  ASP202     -0.1239
     17  CA       -28.1430   22.3110  -12.2210 C.3   202  ASP202      0.1674
     18  C        -26.7540   22.5960  -11.6840 C.2   202  ASP202      0.2266
     19  O        -26.1140   23.5800  -12.0620 O.2   202  ASP202     -0.2867
     20  CB       -27.9980   21.5150  -13.5170 C.3   202  ASP202      0.1410
     21  CG       -29.2980   20.9280  -13.9870 C.2   202  ASP202      0.3668
     22  OD1      -30.2870   20.9800  -13.2290 O.co2 202  ASP202     -0.2456
     23  OD2      -29.3240   20.3970  -15.1160 O.co2 202  ASP202     -0.2456
     24  N        -23.9730   15.4650  -13.3190 N.3   222  ILE222     -0.1245
     25  CA       -24.9530   16.5360  -13.2230 C.3   222  ILE222      0.1561
     26  C        -25.8600   16.2470  -12.0320 C.2   222  ILE222      0.2260
     27  O        -26.3650   15.1280  -11.8900 O.2   222  ILE222     -0.2867
     28  CB       -25.7590   16.6490  -14.5270 C.3   222  ILE222      0.0252
     29  CG1      -24.7980   16.7780  -15.7130 C.3   222  ILE222      0.0019
     30  CG2      -26.7310   17.8200  -14.4620 C.3   222  ILE222      0.0019
     31  CD1      -25.4630   16.6330  -17.0520 C.3   222  ILE222      0.0001
     32  N        -29.2440   17.5020  -10.7980 N.3   224  PRO224     -0.2103
     33  CA       -30.4430   18.3220  -10.9320 C.3   224  PRO224      0.1489
     34  C        -31.1010   18.5360   -9.5860 C.2   224  PRO224      0.2417
     35  O        -31.0200   17.6740   -8.6910 O.2   224  PRO224     -0.2734
     36  CB       -31.3370   17.4890  -11.8720 C.3   224  PRO224      0.0282
     37  CG       -30.4370   16.4870  -12.4980 C.3   224  PRO224      0.0208
     38  CD       -29.3810   16.2120  -11.4890 C.3   224  PRO224      0.0893
     39  N        -31.7730   19.6680   -9.3860 N.am  225  PRO225     -0.2729
     40  CA       -32.3890   19.9470   -8.0810 C.3   225  PRO225      0.1401
     41  C        -33.3640   18.8540   -7.6560 C.2   225  PRO225      0.2269
     42  O        -34.2530   18.4590   -8.4120 O.2   225  PRO225     -0.2865
     43  CB       -33.1040   21.2850   -8.3060 C.3   225  PRO225      0.0296
     44  CG       -32.4230   21.8870   -9.5190 C.3   225  PRO225      0.0237
     45  CD       -32.0530   20.7300  -10.3710 C.3   225  PRO225      0.0939
     46  N        -33.0480   15.7450   -7.3270 N.3   227  ARG227     -0.1245
     47  CA       -33.0120   14.5690   -8.1770 C.3   227  ARG227      0.1563
     48  C        -31.6750   13.8740   -8.0000 C.2   227  ARG227      0.2260
     49  O        -30.6630   14.5170   -7.7120 O.2   227  ARG227     -0.2867
     50  CB       -33.2060   14.9480   -9.6410 C.3   227  ARG227      0.0307
     51  CG       -33.4380   13.7700  -10.5190 C.3   227  ARG227      0.0489
     52  CD       -33.1880   14.0740  -11.9600 C.3   227  ARG227      0.2205
     53  NE       -33.7270   12.9840  -12.7540 N.pl3 227  ARG227     -0.0865
     54  CZ       -33.1990   11.7640  -12.8060 C.cat 227  ARG227      0.5346
     55  NH1      -32.0930   11.4710  -12.1210 N.pl3 227  ARG227      0.1354
     56  NH2      -33.7850   10.8350  -13.5530 N.pl3 227  ARG227      0.1354
     57  N        -26.8460   12.4200  -12.5390 N.3   230  ILE230     -0.1245
     58  CA       -26.8240   11.7940  -13.8520 C.3   230  ILE230      0.1561
     59  C        -25.4330   11.9830  -14.4310 C.2   230  ILE230      0.2260
     60  O        -24.8730   13.0820  -14.3570 O.2   230  ILE230     -0.2867
     61  CB       -27.8790   12.4180  -14.7910 C.3   230  ILE230      0.0252
     62  CG1      -29.2940   12.2560  -14.2120 C.3   230  ILE230      0.0019
     63  CG2      -27.7850   11.8130  -16.1810 C.3   230  ILE230      0.0019
     64  CD1      -30.3430   13.1150  -14.9120 C.3   230  ILE230      0.0001
     65  N        -23.2320   12.0480  -17.8140 N.3   232  VAL232     -0.1245
     66  CA       -23.2850   12.1970  -19.2620 C.3   232  VAL232      0.1561
     67  C        -21.8640   12.2410  -19.8010 C.2   232  VAL232      0.2260
     68  O        -21.0620   13.0780  -19.3700 O.2   232  VAL232     -0.2867
     69  CB       -24.0400   13.4690  -19.6710 C.3   232  VAL232      0.0252
     70  CG1      -24.1360   13.5300  -21.1740 C.3   232  VAL232      0.0019
     71  CG2      -25.4220   13.4980  -19.0110 C.3   232  VAL232      0.0019
     72  N        -30.5740   15.5580  -24.2280 N.3   257  VAL257     -0.1231
     73  CA       -30.6260   14.6260  -23.1040 C.3   257  VAL257      0.1692
     74  C        -31.6610   15.0910  -22.0840 C.2   257  VAL257      0.2591
     75  O        -32.4060   14.2830  -21.5190 O.2   257  VAL257     -0.2718
     76  CB       -29.2290   14.4590  -22.4770 C.3   257  VAL257      0.0266
     77  CG1      -29.3330   13.7640  -21.1240 C.3   257  VAL257      0.0020
     78  CG2      -28.3120   13.6550  -23.4160 C.3   257  VAL257      0.0020
     79  N        -31.7370   16.3990  -21.8480 N.am  258  VAL258     -0.1980
     80  CA       -32.7040   16.9370  -20.9020 C.3   258  VAL258      0.1595
     81  C        -34.1230   16.7350  -21.4210 C.2   258  VAL258      0.2287
     82  O        -35.0070   16.2660  -20.6940 O.2   258  VAL258     -0.2864
     83  CB       -32.4010   18.4200  -20.6310 C.3   258  VAL258      0.0276
     84  CG1      -33.4180   19.0160  -19.6790 C.3   258  VAL258      0.0022
     85  CG2      -30.9940   18.5670  -20.0690 C.3   258  VAL258      0.0022
     86  N        -35.3500   13.2940  -20.8630 N.3   261  PHE261     -0.1227
     87  CA       -35.6770   12.9490  -19.4840 C.3   261  PHE261      0.1736
     88  C        -37.0390   13.4860  -19.0830 C.2   261  PHE261      0.2595
     89  O        -37.6960   12.9080  -18.2140 O.2   261  PHE261     -0.2718
     90  CB       -34.6220   13.4890  -18.5250 C.3   261  PHE261      0.0547
     91  CG       -33.5890   12.4790  -18.1340 C.ar  261  PHE261     -0.0202
     92  CD1      -32.5360   12.1800  -18.9800 C.ar  261  PHE261     -0.0042
     93  CD2      -33.6650   11.8340  -16.9170 C.ar  261  PHE261     -0.0042
     94  CE1      -31.5750   11.2520  -18.6150 C.ar  261  PHE261     -0.0003
     95  CE2      -32.7110   10.9050  -16.5470 C.ar  261  PHE261     -0.0003
     96  CZ       -31.6620   10.6150  -17.3950 C.ar  261  PHE261     -0.0000
     97  N        -37.4730   14.5850  -19.6950 N.am  262  HIS262     -0.1975
     98  CA       -38.7130   15.2440  -19.3130 C.3   262  HIS262      0.1656
     99  C        -39.9130   14.8390  -20.1600 C.2   262  HIS262      0.2291
    100  O        -41.0400   14.8740  -19.6580 O.2   262  HIS262     -0.2864
    101  CB       -38.5420   16.7640  -19.3970 C.3   262  HIS262      0.0771
    102  CG       -37.6900   17.3390  -18.3090 C.ar  262  HIS262      0.0820
    103  ND1      -38.2190   18.0100  -17.2270 N.ar  262  HIS262     -0.2267
    104  CD2      -36.3460   17.3480  -18.1370 C.ar  262  HIS262      0.1154
    105  CE1      -37.2380   18.4080  -16.4360 C.ar  262  HIS262      0.1986
    106  NE2      -36.0910   18.0180  -16.9650 N.ar  262  HIS262     -0.2212
@<TRIPOS>BOND
     1    72    73    1
     2    78    76    1
     3    73    76    1
     4    73    74    1
     5    76    77    1
     6    74    79   am
     7    74    75    2
     8    79    80    1
     9    81    80    1
    10    81    82    2
    11    70    69    1
    12    80    83    1
    13    86    87    1
    14     1     2    1
    15    83    85    1
    16    83    84    1
    17    99   100    2
    18    99    98    1
    19    67    68    2
    20    67    66    1
    21    97    98    1
    22    97    88   am
    23    69    66    1
    24    69    71    1
    25     2     3    1
    26     2     5    1
    27    87    88    1
    28    87    90    1
    29   101    98    1
    30   101   102    1
    31    66    65    1
    32     8     6    1
    33    88    89    2
    34     4     3    2
    35     6     5    1
    36     6     7    1
    37    92    94   ar
    38    92    91   ar
    39     3     9   am
    40    94    96   ar
    41    90    91    1
    42   102   104   ar
    43   102   103   ar
    44   104   106   ar
    45    91    93   ar
    46     9    15    1
    47     9    10    1
    48    15    14    1
    49    96    95   ar
    50   103   105   ar
    51    14    13    1
    52    31    29    1
    53    10    13    1
    54    10    11    1
    55   106   105   ar
    56    93    95   ar
    57    63    61    1
    58    11    12    2
    59    29    28    1
    60    23    21   ar
    61    64    62    1
    62    61    62    1
    63    61    58    1
    64    28    30    1
    65    28    25    1
    66    59    60    2
    67    59    58    1
    68    21    20    1
    69    21    22   ar
    70    58    57    1
    71    56    54    1
    72    20    17    1
    73    24    25    1
    74    25    26    1
    75    54    53    2
    76    54    55    1
    77    53    52    1
    78    37    36    1
    79    37    38    1
    80    16    17    1
    81    17    18    1
    82    19    18    2
    83    26    27    2
    84    52    51    1
    85    36    33    1
    86    38    32    1
    87    33    32    1
    88    33    34    1
    89    51    50    1
    90    45    44    1
    91    45    39    1
    92    50    47    1
    93    34    39   am
    94    34    35    2
    95    44    43    1
    96    39    40    1
    97    42    41    2
    98    43    40    1
    99    47    48    1
   100    47    46    1
   101    40    41    1
   102    48    49    2
