@<TRIPOS>MOLECULE
tmp/5fqlA00.pdb
 88 83 0 0 0
SMALL
GASTEIGER

@<TRIPOS>ATOM
      1  N         20.1660    8.0840  117.1230 N.3    76  ARG76      -0.1245
      2  CA        20.6440    6.7820  116.6640 C.3    76  ARG76       0.1563
      3  C         19.5030    5.8130  116.3830 C.2    76  ARG76       0.2260
      4  O         19.6750    4.8860  115.5840 O.2    76  ARG76      -0.2867
      5  CB        21.6000    6.1790  117.6930 C.3    76  ARG76       0.0307
      6  CG        22.8730    6.9860  117.8890 C.3    76  ARG76       0.0489
      7  CD        23.9040    6.2190  118.7010 C.3    76  ARG76       0.2205
      8  NE        25.0930    7.0280  118.9670 N.pl3  76  ARG76      -0.0865
      9  CZ        26.2020    7.0150  118.2300 C.cat  76  ARG76       0.5346
     10  NH1       26.3030    6.2300  117.1640 N.pl3  76  ARG76       0.1354
     11  NH2       27.2210    7.7950  118.5630 N.pl3  76  ARG76       0.1354
     12  N         22.5150    6.0190  112.6790 N.3    81  ASN81      -0.1240
     13  CA        23.5890    5.7510  113.6350 C.3    81  ASN81       0.1653
     14  C         24.7330    6.7550  113.4610 C.2    81  ASN81       0.2266
     15  O         25.8900    6.4030  113.2300 O.2    81  ASN81      -0.2867
     16  CB        24.0770    4.3180  113.4660 C.3    81  ASN81       0.1155
     17  CG        24.8530    3.8160  114.6670 C.2    81  ASN81       0.2627
     18  OD1       24.6750    4.2950  115.7870 O.2    81  ASN81      -0.2716
     19  ND2       25.7210    2.8380  114.4350 N.am   81  ASN81      -0.0877
     20  N         27.6660    9.2540  113.9750 N.3    83  SER83      -0.1217
     21  CA        28.7740    9.3930  114.9040 C.3    83  SER83       0.1889
     22  C         28.8630   10.8260  115.4200 C.2    83  SER83       0.2288
     23  O         28.4110   11.7770  114.7770 O.2    83  SER83      -0.2866
     24  CB        30.0890    8.9950  114.2350 C.3    83  SER83       0.2089
     25  OG        30.0890    7.6180  113.9070 O.3    83  SER83      -0.2183
     26  N         32.9790   10.7950  119.9730 N.3    87  GLN87      -0.1245
     27  CA        33.1290    9.4160  119.5200 C.3    87  GLN87       0.1566
     28  C         34.2520    9.3010  118.5000 C.2    87  GLN87       0.2260
     29  O         35.0720    8.3770  118.5660 O.2    87  GLN87      -0.2867
     30  CB        31.8150    8.9100  118.9230 C.3    87  GLN87       0.0367
     31  CG        31.9070    7.5150  118.3090 C.3    87  GLN87       0.0905
     32  CD        30.6210    7.0840  117.6310 C.2    87  GLN87       0.2608
     33  OE1       29.6390    7.8260  117.6020 O.2    87  GLN87      -0.2717
     34  NE2       30.6220    5.8790  117.0760 N.am   87  GLN87      -0.0878
     35  N         37.6270    9.6870  120.1780 N.3    90  LYS90      -0.1231
     36  CA        37.9420    8.5150  120.9880 C.3    90  LYS90       0.1693
     37  C         38.3950    7.3550  120.1130 C.2    90  LYS90       0.2591
     38  O         39.3020    6.6020  120.4870 O.2    90  LYS90      -0.2718
     39  CB        36.7370    8.1050  121.8320 C.3    90  LYS90       0.0285
     40  CG        37.0590    6.9990  122.8270 C.3    90  LYS90       0.0035
     41  CD        35.8970    6.6990  123.7570 C.3    90  LYS90       0.0206
     42  CE        34.8110    5.9030  123.0600 C.3    90  LYS90       0.1093
     43  NZ        33.7670    5.4540  124.0200 N.3    90  LYS90      -0.1314
     44  N         37.7730    7.1920  118.9440 N.am   91  GLU91      -0.1979
     45  CA        38.2030    6.1650  118.0050 C.3    91  GLU91       0.1602
     46  C         39.5870    6.4370  117.4360 C.2    91  GLU91       0.2287
     47  O         40.1820    5.5300  116.8460 O.2    91  GLU91      -0.2864
     48  CB        37.1950    6.0410  116.8590 C.3    91  GLU91       0.0415
     49  CG        36.4510    4.7130  116.8190 C.3    91  GLU91       0.1163
     50  CD        34.9480    4.8850  116.9080 C.2    91  GLU91       0.3649
     51  OE1       34.3770    5.5960  116.0540 O.co2  91  GLU91      -0.2457
     52  OE2       34.3420    4.3180  117.8400 O.co2  91  GLU91      -0.2457
     53  N         27.7910    3.8980  124.9780 N.3   116  PRO116     -0.2102
     54  CA        29.2200    3.9970  125.2900 C.3   116  PRO116      0.1504
     55  C         30.0490    4.6080  124.1600 C.2   116  PRO116      0.2575
     56  O         31.2740    4.4930  124.1720 O.2   116  PRO116     -0.2718
     57  CB        29.6120    2.5410  125.5060 C.3   116  PRO116      0.0282
     58  CG        28.7640    1.8060  124.5090 C.3   116  PRO116      0.0208
     59  CD        27.4670    2.5870  124.3860 C.3   116  PRO116      0.0893
     60  N         29.3890    5.2540  123.1980 N.am  117  TYR117     -0.1977
     61  CA        30.0700    5.6440  121.9670 C.3   117  TYR117      0.1639
     62  C         30.9510    6.8750  122.1550 C.2   117  TYR117      0.2290
     63  O         32.0600    6.9330  121.6120 O.2   117  TYR117     -0.2864
     64  CB        29.0430    5.9050  120.8640 C.3   117  TYR117      0.0560
     65  CG        28.0290    4.7960  120.6950 C.ar  117  TYR117     -0.0198
     66  CD1       28.3660    3.6100  120.0570 C.ar  117  TYR117     -0.0009
     67  CD2       26.7330    4.9390  121.1700 C.ar  117  TYR117     -0.0009
     68  CE1       27.4420    2.5950  119.9020 C.ar  117  TYR117      0.0417
     69  CE2       25.8020    3.9310  121.0190 C.ar  117  TYR117      0.0417
     70  CZ        26.1600    2.7620  120.3850 C.ar  117  TYR117      0.1957
     71  OH        25.2320    1.7570  120.2330 O.3   117  TYR117     -0.2866
     72  N         27.0840    6.5920  108.7610 N.3   396  GLU396     -0.1231
     73  CA        27.4100    6.7670  110.1700 C.3   396  GLU396      0.1699
     74  C         28.4020    7.9010  110.3990 C.2   396  GLU396      0.2592
     75  O         28.2770    8.6350  111.3840 O.2   396  GLU396     -0.2718
     76  CB        27.9640    5.4590  110.7420 C.3   396  GLU396      0.0402
     77  CG        27.0250    4.2720  110.5560 C.3   396  GLU396      0.1161
     78  CD        27.5730    2.9900  111.1500 C.2   396  GLU396      0.3649
     79  OE1       28.7950    2.7610  111.0440 O.co2 396  GLU396     -0.2457
     80  OE2       26.7810    2.2110  111.7230 O.co2 396  GLU396     -0.2457
     81  N         29.3760    8.0730  109.5050 N.am  397  LEU397     -0.1980
     82  CA        30.4060    9.1010  109.6590 C.3   397  LEU397      0.1596
     83  C         30.4560    9.9620  108.4000 C.2   397  LEU397      0.2287
     84  O         31.0100    9.5510  107.3760 O.2   397  LEU397     -0.2864
     85  CB        31.7680    8.4740  109.9440 C.3   397  LEU397      0.0297
     86  CG        32.9110    9.4730  110.1450 C.3   397  LEU397      0.0022
     87  CD1       32.6560   10.3610  111.3590 C.3   397  LEU397      0.0001
     88  CD2       34.2380    8.7500  110.2810 C.3   397  LEU397      0.0001
@<TRIPOS>BOND
     1    84    83    2
     2    83    82    1
     3    72    73    1
     4    81    82    1
     5    81    74   am
     6    82    85    1
     7    85    86    1
     8    86    88    1
     9    86    87    1
    10    73    74    1
    11    73    76    1
    12    74    75    2
    13    77    76    1
    14    77    78    1
    15    79    78   ar
    16    78    80   ar
    17    12    13    1
    18    15    14    2
    19    14    13    1
    20    16    13    1
    21    16    17    1
    22    25    24    1
    23    20    21    1
    24    24    21    1
    25    19    17   am
    26    17    18    2
    27    23    22    2
    28    21    22    1
    29     4     3    2
    30    51    50   ar
    31     3     2    1
    32     2     1    1
    33     2     5    1
    34    49    48    1
    35    49    50    1
    36    47    46    2
    37    48    45    1
    38    50    52   ar
    39    34    32   am
    40    10     9    1
    41    46    45    1
    42    33    32    2
    43    32    31    1
    44     5     6    1
    45     6     7    1
    46    45    44    1
    47     9    11    1
    48     9     8    2
    49    31    30    1
    50    28    29    2
    51    28    27    1
    52     7     8    1
    53    30    27    1
    54    44    37   am
    55    27    26    1
    56    68    66   ar
    57    68    70   ar
    58    66    65   ar
    59    37    38    2
    60    37    36    1
    61    35    36    1
    62    71    70    1
    63    70    69   ar
    64    65    64    1
    65    65    67   ar
    66    64    61    1
    67    36    39    1
    68    69    67   ar
    69    63    62    2
    70    39    40    1
    71    61    62    1
    72    61    60    1
    73    40    41    1
    74    42    41    1
    75    42    43    1
    76    60    55   am
    77    55    56    2
    78    55    54    1
    79    59    58    1
    80    59    53    1
    81    58    57    1
    82    53    54    1
    83    54    57    1
