@<TRIPOS>MOLECULE
tmp/5fqsA00.pdb
 215 206 0 0 0
SMALL
GASTEIGER

@<TRIPOS>ATOM
      1  N         18.4780   15.6130   60.4770 N.3    34  MET34      -0.1245
      2  CA        17.9180   15.8050   61.8250 C.3    34  MET34       0.1570
      3  C         18.9520   15.7850   62.9260 C.2    34  MET34       0.2261
      4  O         18.8220   16.5400   63.8650 O.2    34  MET34      -0.2867
      5  CB        16.8180   14.7960   62.1770 C.3    34  MET34       0.0387
      6  CG        15.9120   15.2340   63.3490 C.3    34  MET34       0.0595
      7  SD        15.2280   16.9570   63.2710 S.3    34  MET34      -0.1393
      8  CE        14.8920   16.9690   61.5180 C.3    34  MET34       0.0692
      9  N         20.6840   19.2350   62.7180 N.3    37  LEU37      -0.1231
     10  CA        19.7320   20.2780   63.2020 C.3    37  LEU37       0.1693
     11  C         19.5530   20.2250   64.7200 C.2    37  LEU37       0.2592
     12  O         19.5210   21.3010   65.4040 O.2    37  LEU37      -0.2718
     13  CB        18.4310   20.1600   62.4470 C.3    37  LEU37       0.0284
     14  CG        18.5610   20.5110   60.9430 C.3    37  LEU37       0.0019
     15  CD1       17.2720   20.2580   60.2250 C.3    37  LEU37       0.0001
     16  CD2       18.9620   21.9850   60.7400 C.3    37  LEU37       0.0001
     17  N         19.4450   18.9950   65.2680 N.am   38  THR38      -0.1953
     18  CA        19.3550   18.8280   66.7230 C.3    38  THR38       0.1897
     19  C         20.6070   19.2840   67.4360 C.2    38  THR38       0.2313
     20  O         20.5440   19.9440   68.4540 O.2    38  THR38      -0.2863
     21  CB        19.0320   17.3610   67.0470 C.3    38  THR38       0.1794
     22  OG1       17.8030   17.0040   66.3790 O.3    38  THR38      -0.2208
     23  CG2       18.9940   17.1080   68.5410 C.3    38  THR38       0.0378
     24  N         22.7700   21.4770   66.4360 N.3    40  LEU40      -0.1231
     25  CA        22.7810   22.9470   66.3420 C.3    40  LEU40       0.1693
     26  C         21.8370   23.6290   67.3560 C.2    40  LEU40       0.2592
     27  O         22.2430   24.5800   68.1040 O.2    40  LEU40      -0.2718
     28  CB        22.3820   23.3330   64.9110 C.3    40  LEU40       0.0284
     29  CG        22.2320   24.8310   64.6070 C.3    40  LEU40       0.0019
     30  CD1       23.5220   25.6020   64.8080 C.3    40  LEU40       0.0001
     31  CD2       21.6760   25.0900   63.1800 C.3    40  LEU40       0.0001
     32  N         20.6120   23.1200   67.4260 N.am   41  ALA41      -0.1966
     33  CA        19.6430   23.5870   68.4050 C.3    41  ALA41       0.1728
     34  C         20.1350   23.4180   69.8570 C.2    41  ALA41       0.2616
     35  O         19.9750   24.3310   70.6500 O.2    41  ALA41      -0.2715
     36  CB        18.3020   22.8780   68.2260 C.3    41  ALA41       0.0334
     37  N         20.7770   22.3100   70.1570 N.am   42  ASP42      -0.1971
     38  CA        21.3630   22.0670   71.4990 C.3    42  ASP42       0.1709
     39  C         22.3580   23.1530   71.8620 C.2    42  ASP42       0.2293
     40  O         22.3050   23.7200   72.9410 O.2    42  ASP42      -0.2864
     41  CB        22.1510   20.7640   71.5400 C.3    42  ASP42       0.1436
     42  CG        21.2890   19.5100   71.5690 C.2    42  ASP42       0.3671
     43  OD1       20.1000   19.6350   71.8490 O.co2  42  ASP42      -0.2456
     44  OD2       21.8610   18.3760   71.3570 O.co2  42  ASP42      -0.2456
     45  N         22.6970   26.1980   70.4000 N.3    44  GLU44      -0.1231
     46  CA        21.9930   27.4570   70.4750 C.3    44  GLU44       0.1699
     47  C         21.3200   27.7170   71.8010 C.2    44  GLU44       0.2592
     48  O         21.2190   28.8590   72.2420 O.2    44  GLU44      -0.2718
     49  CB        20.9840   27.5980   69.3330 C.3    44  GLU44       0.0402
     50  CG        21.5940   27.7900   67.9710 C.3    44  GLU44       0.1161
     51  CD        20.5240   28.0580   66.9280 C.2    44  GLU44       0.3649
     52  OE1       19.8520   27.0750   66.5060 O.co2  44  GLU44      -0.2457
     53  OE2       20.3410   29.2530   66.5480 O.co2  44  GLU44      -0.2457
     54  N         20.8140   26.6700   72.4120 N.am   45  LEU45      -0.1980
     55  CA        20.0830   26.8050   73.6530 C.3    45  LEU45       0.1596
     56  C         20.9640   27.3190   74.7590 C.2    45  LEU45       0.2287
     57  O         20.5540   28.1530   75.5610 O.2    45  LEU45      -0.2864
     58  CB        19.4080   25.4610   74.0300 C.3    45  LEU45       0.0297
     59  CG        18.5430   25.4680   75.2920 C.3    45  LEU45       0.0022
     60  CD1       17.2900   26.2990   75.0250 C.3    45  LEU45       0.0001
     61  CD2       18.1410   24.0690   75.7040 C.3    45  LEU45       0.0001
     62  N         11.3550   28.6480   74.2860 N.3    74  TRP74      -0.1227
     63  CA        12.6670   28.3570   73.6460 C.3    74  TRP74       0.1737
     64  C         12.5410   28.0940   72.1310 C.2    74  TRP74       0.2595
     65  O         13.3670   28.6250   71.3310 O.2    74  TRP74      -0.2718
     66  CB        13.4410   27.2340   74.3980 C.3    74  TRP74       0.0564
     67  CG        12.8830   25.9020   74.2240 C.ar   74  TRP74       0.0003
     68  CD1       11.9810   25.3280   74.9870 C.ar   74  TRP74       0.0946
     69  CD2       13.2070   24.9630   73.1940 C.ar   74  TRP74       0.0152
     70  NE1       11.6610   24.0930   74.5070 N.ar   74  TRP74      -0.2442
     71  CE2       12.3750   23.8550   73.3700 C.ar   74  TRP74       0.0810
     72  CE3       14.0430   24.9840   72.1000 C.ar   74  TRP74       0.0012
     73  CZ2       12.3860   22.7510   72.5150 C.ar   74  TRP74       0.0191
     74  CZ3       14.0720   23.8680   71.2480 C.ar   74  TRP74       0.0001
     75  CH2       13.2650   22.7730   71.4640 C.ar   74  TRP74       0.0015
     76  N         11.5540   27.3440   71.7100 N.am   75  LEU75      -0.1980
     77  CA        11.4320   27.0020   70.2810 C.3    75  LEU75       0.1596
     78  C         10.9670   28.1810   69.4430 C.2    75  LEU75       0.2287
     79  O         11.4800   28.4410   68.3300 O.2    75  LEU75      -0.2864
     80  CB        10.6010   25.7300   70.1240 C.3    75  LEU75       0.0297
     81  CG        10.5390   25.2610   68.5930 C.3    75  LEU75       0.0022
     82  CD1       11.9480   25.0010   67.9830 C.3    75  LEU75       0.0001
     83  CD2        9.7000   23.9730   68.5050 C.3    75  LEU75       0.0001
     84  N         14.1560   30.1670   68.9730 N.3    78  LEU78      -0.1231
     85  CA        14.9940   29.6340   67.8820 C.3    78  LEU78       0.1693
     86  C         14.3810   29.9270   66.4930 C.2    78  LEU78       0.2591
     87  O         15.0990   30.2480   65.5140 O.2    78  LEU78      -0.2718
     88  CB        15.1370   28.1060   67.9790 C.3    78  LEU78       0.0284
     89  CG        16.0050   27.5280   69.1200 C.3    78  LEU78       0.0019
     90  CD1       16.0670   26.0090   68.9810 C.3    78  LEU78       0.0001
     91  CD2       17.3580   28.1970   69.1880 C.3    78  LEU78       0.0001
     92  N         13.0790   29.7860   66.4180 N.am   79  MET79      -0.1979
     93  CA        12.3390   30.0650   65.1490 C.3    79  MET79       0.1605
     94  C         12.3990   31.5150   64.6670 C.2    79  MET79       0.2287
     95  O         12.7160   31.7740   63.4820 O.2    79  MET79      -0.2864
     96  CB        10.9390   29.5150   65.2060 C.3    79  MET79       0.0413
     97  CG        10.8570   28.0110   65.1510 C.3    79  MET79       0.0598
     98  SD         9.0920   27.5460   65.3160 S.3    79  MET79      -0.1393
     99  CE         9.1840   25.8520   64.7720 C.3    79  MET79       0.0692
    100  N         15.9290   32.0790   63.3820 N.3    82  LEU82      -0.1245
    101  CA        16.0890   31.4180   62.0530 C.3    82  LEU82       0.1561
    102  C         15.4440   32.2710   60.9440 C.2    82  LEU82       0.2260
    103  O         16.0500   32.5130   59.8660 O.2    82  LEU82      -0.2867
    104  CB        15.4900   30.0210   62.0660 C.3    82  LEU82       0.0270
    105  CG        15.3450   29.2570   60.7690 C.3    82  LEU82       0.0019
    106  CD1       16.7580   28.9500   60.2860 C.3    82  LEU82       0.0001
    107  CD2       14.5380   27.9730   60.9060 C.3    82  LEU82       0.0001
    108  N         17.5780   35.3920   60.3020 N.3    85  ARG85      -0.1245
    109  CA        18.7930   35.0450   59.5550 C.3    85  ARG85       0.1563
    110  C         18.4650   34.7490   58.0800 C.2    85  ARG85       0.2260
    111  O         19.3540   34.8450   57.2270 O.2    85  ARG85      -0.2867
    112  CB        19.4710   33.7540   60.1000 C.3    85  ARG85       0.0307
    113  CG        20.1060   33.8090   61.4380 C.3    85  ARG85       0.0489
    114  CD        20.9700   32.5740   61.6770 C.3    85  ARG85       0.2205
    115  NE        20.3500   31.2460   61.8260 N.pl3  85  ARG85      -0.0865
    116  CZ        19.7370   30.8360   62.9290 C.cat  85  ARG85       0.5346
    117  NH1       19.4880   31.6620   63.9250 N.pl3  85  ARG85       0.1354
    118  NH2       19.3070   29.6000   63.0000 N.pl3  85  ARG85       0.1354
    119  N         19.8600   27.8740   58.5130 N.3    95  PHE95      -0.1241
    120  CA        20.0370   27.2790   59.8200 C.3    95  PHE95       0.1605
    121  C         21.3920   27.6610   60.3810 C.2    95  PHE95       0.2264
    122  O         21.5040   27.9490   61.5650 O.2    95  PHE95      -0.2867
    123  CB        19.8550   25.7670   59.7460 C.3    95  PHE95       0.0534
    124  CG        18.4430   25.3520   59.5560 C.ar   95  PHE95      -0.0203
    125  CD1       17.5720   25.3150   60.6730 C.ar   95  PHE95      -0.0042
    126  CD2       17.9670   24.9770   58.3240 C.ar   95  PHE95      -0.0042
    127  CE1       16.2560   24.9770   60.5260 C.ar   95  PHE95      -0.0003
    128  CE2       16.6590   24.5900   58.1690 C.ar   95  PHE95      -0.0003
    129  CZ        15.7790   24.6240   59.2870 C.ar   95  PHE95      -0.0000
    130  N          8.3870   17.3910   58.1330 N.3   112  MET112     -0.1245
    131  CA         9.2270   18.5540   58.2940 C.3   112  MET112      0.1570
    132  C          8.9100   19.6120   57.2240 C.2   112  MET112      0.2261
    133  O          9.0590   20.7830   57.4390 O.2   112  MET112     -0.2867
    134  CB        10.6990   18.1230   58.2680 C.3   112  MET112      0.0387
    135  CG        11.6650   19.2950   58.4160 C.3   112  MET112      0.0595
    136  SD        11.6210   19.9890   60.0920 S.3   112  MET112     -0.1393
    137  CE        12.7650   18.8530   60.8360 C.3   112  MET112      0.0692
    138  N          6.5690   22.3990   58.2090 N.3   115  ILE115     -0.1231
    139  CA         7.1670   23.3670   59.1490 C.3   115  ILE115      0.1692
    140  C          8.1360   24.2840   58.3590 C.2   115  ILE115      0.2592
    141  O          8.0880   25.5390   58.5170 O.2   115  ILE115     -0.2718
    142  CB         7.8250   22.6440   60.3370 C.3   115  ILE115      0.0266
    143  CG1        6.7150   22.0120   61.2250 C.3   115  ILE115      0.0019
    144  CG2        8.6440   23.6150   61.1920 C.3   115  ILE115      0.0020
    145  CD1        7.2690   21.0260   62.2250 C.3   115  ILE115      0.0001
    146  N          8.9640   23.6750   57.5060 N.am  116  PHE116     -0.1976
    147  CA         9.8170   24.4780   56.6060 C.3   116  PHE116      0.1639
    148  C          8.9750   25.5620   55.8420 C.2   116  PHE116      0.2290
    149  O          9.3580   26.7390   55.7720 O.2   116  PHE116     -0.2864
    150  CB        10.6680   23.6420   55.5860 C.3   116  PHE116      0.0560
    151  CG        12.0100   23.1020   56.1230 C.ar  116  PHE116     -0.0200
    152  CD1       12.2030   22.8290   57.4880 C.ar  116  PHE116     -0.0042
    153  CD2       13.0520   22.8370   55.2480 C.ar  116  PHE116     -0.0042
    154  CE1       13.4230   22.3110   57.9780 C.ar  116  PHE116     -0.0003
    155  CE2       14.2830   22.3090   55.7210 C.ar  116  PHE116     -0.0003
    156  CZ        14.4610   22.0320   57.0700 C.ar  116  PHE116     -0.0000
    157  N          7.9520   28.4820   58.0670 N.3   119  LEU119     -0.1245
    158  CA         9.0900   29.3350   58.4250 C.3   119  LEU119      0.1561
    159  C          9.4560   30.2010   57.2040 C.2   119  LEU119      0.2260
    160  O          9.7150   31.4110   57.3410 O.2   119  LEU119     -0.2867
    161  CB        10.2720   28.4660   58.8620 C.3   119  LEU119      0.0270
    162  CG        10.0520   27.7770   60.1840 C.3   119  LEU119      0.0019
    163  CD1       11.0080   26.6140   60.4070 C.3   119  LEU119      0.0001
    164  CD2       10.2750   28.7430   61.3410 C.3   119  LEU119      0.0001
    165  N          5.9350   22.4480   65.8180 N.3   209  GLY209     -0.1225
    166  CA         7.2350   21.8280   65.9820 C.3   209  GLY209      0.1811
    167  C          7.3900   21.0100   67.2540 C.2   209  GLY209      0.2280
    168  O          8.0340   19.9540   67.1920 O.2   209  GLY209     -0.2866
    169  N          5.9920   17.6400   66.7120 N.3   212  HIS212     -0.1226
    170  CA         7.0120   16.8030   66.0090 C.3   212  HIS212      0.1752
    171  C          8.0700   16.2250   66.9680 C.2   212  HIS212      0.2595
    172  O          8.2390   15.0150   67.0400 O.2   212  HIS212     -0.2718
    173  CB         7.6240   17.5860   64.8850 C.3   212  HIS212      0.0759
    174  CG         8.4860   16.7790   63.9810 C.ar  212  HIS212      0.0818
    175  ND1        8.0240   16.2650   62.7840 N.ar  212  HIS212     -0.2268
    176  CD2        9.8010   16.4670   64.0490 C.ar  212  HIS212      0.1154
    177  CE1        9.0150   15.6460   62.1650 C.ar  212  HIS212      0.1986
    178  NE2       10.1030   15.7580   62.9120 N.ar  212  HIS212     -0.2212
    179  N          8.7430   17.0640   67.7240 N.am  213  LEU213     -0.1980
    180  CA         9.7120   16.6190   68.6810 C.3   213  LEU213      0.1596
    181  C          9.1960   15.5900   69.7110 C.2   213  LEU213      0.2287
    182  O          9.9240   14.5990   70.0070 O.2   213  LEU213     -0.2864
    183  CB        10.3330   17.7960   69.4020 C.3   213  LEU213      0.0297
    184  CG        11.0220   18.7990   68.4560 C.3   213  LEU213      0.0022
    185  CD1       11.5750   19.9140   69.3310 C.3   213  LEU213      0.0001
    186  CD2       12.1480   18.1060   67.6470 C.3   213  LEU213      0.0001
    187  N         16.5740   12.3710   74.8110 N.3   220  ASN220     -0.1225
    188  CA        17.6130   13.3290   74.3250 C.3   220  ASN220      0.1785
    189  C         17.0750   14.3680   73.3250 C.2   220  ASN220      0.2597
    190  O         17.8180   14.9210   72.4830 O.2   220  ASN220     -0.2718
    191  CB        18.7920   12.5670   73.6810 C.3   220  ASN220      0.1169
    192  CG        19.6130   11.8000   74.6980 C.2   220  ASN220      0.2627
    193  OD1       19.7510   12.2450   75.8450 O.2   220  ASN220     -0.2716
    194  ND2       20.1740   10.6480   74.2910 N.am  220  ASN220     -0.0877
    195  N         15.7680   14.6060   73.4190 N.am  221  VAL221     -0.1966
    196  CA        15.0900   15.5790   72.5940 C.3   221  VAL221      0.1727
    197  C         14.0440   16.3320   73.4510 C.2   221  VAL221      0.2616
    198  O         13.2370   15.7230   74.1740 O.2   221  VAL221     -0.2715
    199  CB        14.4580   14.9060   71.3250 C.3   221  VAL221      0.0290
    200  CG1       13.2530   15.6850   70.8030 C.3   221  VAL221      0.0023
    201  CG2       15.4990   14.7510   70.1960 C.3   221  VAL221      0.0023
    202  N         14.0630   17.6570   73.2940 N.am  222  VAL222     -0.1964
    203  CA        13.3290   18.6360   74.0950 C.3   222  VAL222      0.1712
    204  C         14.0200   18.8230   75.4530 C.2   222  VAL222      0.2458
    205  O         14.0660   17.8600   76.2630 O.2   222  VAL222     -0.2730
    206  CB        11.8570   18.2860   74.3670 C.3   222  VAL222      0.0289
    207  CG1       11.2220   19.4040   75.2420 C.3   222  VAL222      0.0023
    208  CG2       11.0890   18.1020   73.0700 C.3   222  VAL222      0.0023
    209  N         14.4580   20.0670   75.7570 N.am  223  PRO223     -0.2727
    210  CA        15.1880   20.1970   76.9950 C.3   223  PRO223      0.1402
    211  C         14.2530   20.0350   78.1850 C.2   223  PRO223      0.2269
    212  O         13.2230   20.6700   78.2290 O.2   223  PRO223     -0.2865
    213  CB        15.7420   21.6210   76.9140 C.3   223  PRO223      0.0296
    214  CG        14.7590   22.3670   76.0930 C.3   223  PRO223      0.0237
    215  CD        14.3470   21.3580   75.0530 C.3   223  PRO223      0.0939
@<TRIPOS>BOND
     1   153   155   ar
     2   153   151   ar
     3   150   151    1
     4   150   147    1
     5   155   156   ar
     6   149   148    2
     7   148   147    1
     8   151   152   ar
     9   147   146    1
    10   156   154   ar
    11   159   160    2
    12   159   158    1
    13   132   133    2
    14   132   131    1
    15   111   110    2
    16   152   154   ar
    17   146   140   am
    18   157   158    1
    19   110   109    1
    20   130   131    1
    21   128   126   ar
    22   128   129   ar
    23   138   139    1
    24   134   131    1
    25   134   135    1
    26   126   124   ar
    27   140   141    2
    28   140   139    1
    29   135   136    1
    30   158   161    1
    31   119   120    1
    32   161   162    1
    33   139   142    1
    34   129   127   ar
    35   109   112    1
    36   109   108    1
    37   124   123    1
    38   124   125   ar
    39   123   120    1
    40   120   121    1
    41   103   102    2
    42   136   137    1
    43   112   113    1
    44   162   163    1
    45   162   164    1
    46    15    14    1
    47   106   105    1
    48   142   144    1
    49   142   143    1
    50   121   122    2
    51     1     2    1
    52   127   125   ar
    53    16    14    1
    54   105   107    1
    55   105   104    1
    56    14    13    1
    57   102   101    1
    58   143   145    1
    59   113   114    1
    60     8     7    1
    61   114   115    1
    62     2     5    1
    63     2     3    1
    64   115   116    2
    65   101   104    1
    66   101   100    1
    67   177   175   ar
    68   177   178   ar
    69     5     6    1
    70    13    10    1
    71     9    10    1
    72   175   174   ar
    73   178   176   ar
    74     3     4    2
    75   116   118    1
    76   116   117    1
    77    31    29    1
    78    10    11    1
    79     7     6    1
    80    95    94    2
    81   174   176   ar
    82   174   173    1
    83    29    30    1
    84    29    28    1
    85    94    93    1
    86    11    17   am
    87    11    12    2
    88    99    98    1
    89   173   170    1
    90    28    25    1
    91    93    96    1
    92    93    92    1
    93    97    96    1
    94    97    98    1
    95    17    18    1
    96    87    86    2
    97   165   166    1
    98   166   167    1
    99   170   169    1
   100   170   171    1
   101    25    24    1
   102    25    26    1
   103    22    21    1
   104    92    86   am
   105    86    85    1
   106    52    51   ar
   107    53    51   ar
   108    18    21    1
   109    18    19    1
   110    51    50    1
   111   171   172    2
   112   171   179   am
   113    21    23    1
   114   168   167    2
   115    26    32   am
   116    26    27    2
   117    32    33    1
   118    19    20    2
   119   186   184    1
   120   179   180    1
   121    85    88    1
   122    85    84    1
   123    50    49    1
   124    88    89    1
   125    82    81    1
   126    36    33    1
   127    79    78    2
   128    33    34    1
   129   184   185    1
   130   184   183    1
   131    83    81    1
   132    81    80    1
   133   180   183    1
   134   180   181    1
   135    90    89    1
   136    89    91    1
   137    49    46    1
   138    78    77    1
   139   181   182    2
   140    34    37   am
   141    34    35    2
   142    80    77    1
   143    37    38    1
   144   201   199    1
   145    77    76    1
   146    45    46    1
   147    46    47    1
   148   200   199    1
   149    74    75   ar
   150    74    72   ar
   151   199   196    1
   152    65    64    2
   153    44    42   ar
   154    75    73   ar
   155    38    41    1
   156    38    39    1
   157    41    42    1
   158    42    43   ar
   159    76    64   am
   160    47    48    2
   161    47    54   am
   162    39    40    2
   163    72    69   ar
   164    64    63    1
   165    54    55    1
   166   190   189    2
   167    73    71   ar
   168   196   195    1
   169   196   197    1
   170   208   206    1
   171    69    71   ar
   172    69    67   ar
   173   202   197   am
   174   202   203    1
   175   189   195   am
   176   189   188    1
   177    71    70   ar
   178   197   198    2
   179    63    62    1
   180    63    66    1
   181    55    58    1
   182    55    56    1
   183   191   188    1
   184   191   192    1
   185    58    59    1
   186   203   206    1
   187   203   204    1
   188    67    66    1
   189    67    68   ar
   190   194   192   am
   191   188   187    1
   192   206   207    1
   193    70    68   ar
   194   192   193    2
   195    56    57    2
   196    60    59    1
   197   215   209    1
   198   215   214    1
   199    59    61    1
   200   204   209   am
   201   204   205    2
   202   209   210    1
   203   214   213    1
   204   213   210    1
   205   210   211    1
   206   211   212    2
