@<TRIPOS>MOLECULE
tmp/5fr0A00.pdb
 135 134 0 0 0
SMALL
GASTEIGER

@<TRIPOS>ATOM
      1  N         35.2270    7.3590   -7.7560 N.3   175  TRP175     -0.1241
      2  CA        34.1890    6.9150   -6.8730 C.3   175  TRP175      0.1605
      3  C         34.6530    6.6610   -5.4520 C.2   175  TRP175      0.2264
      4  O         35.5400    5.8230   -5.1990 O.2   175  TRP175     -0.2867
      5  CB        33.4510    5.6750   -7.3740 C.3   175  TRP175      0.0550
      6  CG        32.8160    5.8010   -8.7220 C.ar  175  TRP175      0.0003
      7  CD1       32.7330    6.9160   -9.5050 C.ar  175  TRP175      0.0946
      8  CD2       32.1490    4.7750   -9.4100 C.ar  175  TRP175      0.0152
      9  NE1       32.1000    6.6150  -10.6840 N.ar  175  TRP175     -0.2442
     10  CE2       31.7130    5.3070  -10.6400 C.ar  175  TRP175      0.0810
     11  CE3       31.9140    3.4380   -9.1340 C.ar  175  TRP175      0.0012
     12  CZ2       31.0370    4.5480  -11.5680 C.ar  175  TRP175      0.0191
     13  CZ3       31.2240    2.6800  -10.0560 C.ar  175  TRP175      0.0001
     14  CH2       30.7930    3.2320  -11.2560 C.ar  175  TRP175      0.0015
     15  N         30.1330   -6.4930   -5.6560 N.3   228  GLN228     -0.1245
     16  CA        31.2630   -6.8920   -6.4310 C.3   228  GLN228      0.1566
     17  C         32.5480   -6.7320   -5.6380 C.2   228  GLN228      0.2260
     18  O         33.5120   -7.4450   -5.9120 O.2   228  GLN228     -0.2867
     19  CB        31.4010   -6.1260   -7.7440 C.3   228  GLN228      0.0367
     20  CG        31.7250   -4.6490   -7.5840 C.3   228  GLN228      0.0905
     21  CD        31.8260   -3.8960   -8.8790 C.2   228  GLN228      0.2608
     22  OE1       32.2320   -4.4420   -9.9010 O.2   228  GLN228     -0.2717
     23  NE2       31.4310   -2.6210   -8.8510 N.am  228  GLN228     -0.0878
     24  N         22.8790   -3.5540  -10.3420 N.3   284  TRP284     -0.1241
     25  CA        23.3680   -4.7720  -10.9370 C.3   284  TRP284      0.1605
     26  C         22.6310   -6.0170  -10.4620 C.2   284  TRP284      0.2264
     27  O         22.5300   -6.2700   -9.2620 O.2   284  TRP284     -0.2867
     28  CB        24.8390   -4.9610  -10.5950 C.3   284  TRP284      0.0550
     29  CG        25.7520   -4.0810  -11.3420 C.ar  284  TRP284      0.0003
     30  CD1       25.4410   -2.9050  -11.9860 C.ar  284  TRP284      0.0946
     31  CD2       27.1570   -4.2810  -11.5070 C.ar  284  TRP284      0.0152
     32  NE1       26.5660   -2.3870  -12.5690 N.ar  284  TRP284     -0.2442
     33  CE2       27.6380   -3.2000  -12.2770 C.ar  284  TRP284      0.0810
     34  CE3       28.0580   -5.2680  -11.0710 C.ar  284  TRP284      0.0012
     35  CZ2       28.9850   -3.0630  -12.6100 C.ar  284  TRP284      0.0191
     36  CZ3       29.4060   -5.1440  -11.4370 C.ar  284  TRP284      0.0001
     37  CH2       29.8500   -4.0390  -12.1820 C.ar  284  TRP284      0.0015
     38  N         25.8170    2.0690  -14.4250 N.3   339  ASP339     -0.1225
     39  CA        27.2230    1.5540  -14.5860 C.3   339  ASP339      0.1805
     40  C         27.1990    0.3450  -15.5020 C.2   339  ASP339      0.2597
     41  O         26.7720   -0.7230  -15.1090 O.2   339  ASP339     -0.2718
     42  CB        27.8460    1.1830  -13.2270 C.3   339  ASP339      0.1424
     43  CG        29.2790    0.7060  -13.3270 C.2   339  ASP339      0.3668
     44  OD1       29.8110    0.6220  -14.4630 O.co2 339  ASP339     -0.2456
     45  OD2       29.8850    0.3970  -12.2560 O.co2 339  ASP339     -0.2456
     46  N         27.6550    0.5220  -16.7380 N.am  340  GLU340     -0.1979
     47  CA        27.7600   -0.5640  -17.7250 C.3   340  GLU340      0.1602
     48  C         26.4520   -1.3560  -17.9360 C.2   340  GLU340      0.2287
     49  O         26.4840   -2.5830  -18.0420 O.2   340  GLU340     -0.2864
     50  CB        28.9260   -1.4990  -17.3750 C.3   340  GLU340      0.0415
     51  CG        30.2950   -0.8050  -17.4780 C.3   340  GLU340      0.1163
     52  CD        31.4490   -1.6340  -16.9390 C.2   340  GLU340      0.3649
     53  OE1       31.2200   -2.6600  -16.2460 O.co2 340  GLU340     -0.2457
     54  OE2       32.6030   -1.2450  -17.2100 O.co2 340  GLU340     -0.2457
     55  N         28.0540    5.0870  -17.6520 N.3   369  ALA369     -0.1245
     56  CA        29.4060    4.6210  -18.0130 C.3   369  ALA369      0.1562
     57  C         29.2170    3.3730  -18.8420 C.2   369  ALA369      0.2260
     58  O         28.5500    2.4410  -18.4120 O.2   369  ALA369     -0.2867
     59  CB        30.2110    4.3190  -16.7700 C.3   369  ALA369      0.0290
     60  N         37.2890    6.1910  -19.0580 N.3   415  TYR415     -0.1227
     61  CA        37.6530    5.5270  -17.8120 C.3   415  TYR415      0.1736
     62  C         38.5840    4.3430  -18.0920 C.2   415  TYR415      0.2596
     63  O         38.6460    3.8500  -19.2070 O.2   415  TYR415     -0.2718
     64  CB        36.4600    5.0450  -17.0150 C.3   415  TYR415      0.0548
     65  CG        35.5830    3.9490  -17.5810 C.ar  415  TYR415     -0.0200
     66  CD1       35.9030    2.6180  -17.4000 C.ar  415  TYR415     -0.0009
     67  CD2       34.4350    4.2440  -18.2810 C.ar  415  TYR415     -0.0009
     68  CE1       35.0830    1.6250  -17.8850 C.ar  415  TYR415      0.0417
     69  CE2       33.6050    3.2590  -18.7760 C.ar  415  TYR415      0.0417
     70  CZ        33.9190    1.9650  -18.5560 C.ar  415  TYR415      0.1957
     71  OH        33.1120    0.9530  -19.0120 O.3   415  TYR415     -0.2866
     72  N         39.2370    3.9230  -17.0470 N.am  416  THR416     -0.1939
     73  CA        39.9580    2.6790  -17.0970 C.3   416  THR416      0.2028
     74  C         39.5460    1.8140  -15.9210 C.2   416  THR416      0.2642
     75  O         39.1320    2.2840  -14.8770 O.2   416  THR416     -0.2714
     76  CB        41.4940    2.8430  -17.1170 C.3   416  THR416      0.1808
     77  OG1       42.0010    3.4500  -15.8980 O.3   416  THR416     -0.2208
     78  CG2       41.9590    3.5240  -18.3150 C.3   416  THR416      0.0379
     79  N         39.6940    0.5030  -16.1030 N.am  417  CYS417     -0.1953
     80  CA        39.2450   -0.4320  -15.1400 C.3   417  CYS417      0.1843
     81  C         40.0210   -1.7570  -15.3860 C.2   417  CYS417      0.2626
     82  O         41.0960   -1.7660  -16.0660 O.2   417  CYS417     -0.2714
     83  CB        37.7240   -0.5920  -15.2370 C.3   417  CYS417      0.0997
     84  SG        37.1710   -1.2120  -16.8460 S.3   417  CYS417     -0.0797
     85  N         39.5330   -2.8150  -14.7560 N.am  418  THR418     -0.1950
     86  CA        40.0720   -4.1600  -15.0000 C.3   418  THR418      0.1897
     87  C         40.1500   -4.4330  -16.4840 C.2   418  THR418      0.2313
     88  O         39.2130   -4.0890  -17.2300 O.2   418  THR418     -0.2863
     89  CB        39.2380   -5.2740  -14.2780 C.3   418  THR418      0.1794
     90  OG1       39.9940   -6.5080  -14.3840 O.3   418  THR418     -0.2208
     91  CG2       37.8680   -5.4490  -14.8350 C.3   418  THR418      0.0378
     92  N         37.2710    9.4860  -15.6220 N.3   449  LEU449     -0.1245
     93  CA        36.5250    8.9060  -14.5570 C.3   449  LEU449      0.1561
     94  C         37.2160    7.6060  -14.1390 C.2   449  LEU449      0.2260
     95  O         37.8040    6.9320  -14.9820 O.2   449  LEU449     -0.2867
     96  CB        35.1260    8.6020  -14.9790 C.3   449  LEU449      0.0270
     97  CG        34.1690    7.9010  -14.0400 C.3   449  LEU449      0.0019
     98  CD1       32.7590    8.3920  -14.2980 C.3   449  LEU449      0.0001
     99  CD2       34.1710    6.3870  -14.2380 C.3   449  LEU449      0.0001
    100  N         36.4890    4.2420  -11.0870 N.3   451  TRP451     -0.1241
    101  CA        35.6000    3.7590  -10.0910 C.3   451  TRP451      0.1605
    102  C         36.2390    3.5910   -8.7000 C.2   451  TRP451      0.2264
    103  O         35.6160    3.1170   -7.7960 O.2   451  TRP451     -0.2867
    104  CB        34.9880    2.4370  -10.5760 C.3   451  TRP451      0.0550
    105  CG        35.9000    1.2500  -10.3370 C.ar  451  TRP451      0.0003
    106  CD1       37.0530    0.9640  -10.9610 C.ar  451  TRP451      0.0946
    107  CD2       35.6870    0.2270   -9.3740 C.ar  451  TRP451      0.0152
    108  NE1       37.6060   -0.1720  -10.4280 N.ar  451  TRP451     -0.2442
    109  CE2       36.7470   -0.6780   -9.4910 C.ar  451  TRP451      0.0810
    110  CE3       34.6610   -0.0400   -8.4510 C.ar  451  TRP451      0.0012
    111  CZ2       36.8410   -1.8190   -8.6820 C.ar  451  TRP451      0.0191
    112  CZ3       34.7460   -1.1700   -7.6760 C.ar  451  TRP451      0.0001
    113  CH2       35.8440   -2.0280   -7.7840 C.ar  451  TRP451      0.0015
    114  N         40.0090   -9.0200  -10.4070 N.3   469  TRP469     -0.1241
    115  CA        40.7310   -7.8570  -10.9990 C.3   469  TRP469      0.1605
    116  C         42.2190   -7.8720  -10.7770 C.2   469  TRP469      0.2264
    117  O         42.7700   -8.5170   -9.8550 O.2   469  TRP469     -0.2867
    118  CB        40.1120   -6.5160  -10.5640 C.3   469  TRP469      0.0550
    119  CG        38.6160   -6.5310  -10.5630 C.ar  469  TRP469      0.0003
    120  CD1       37.7980   -6.9150  -11.5790 C.ar  469  TRP469      0.0946
    121  CD2       37.7660   -6.1180   -9.5110 C.ar  469  TRP469      0.0152
    122  NE1       36.4700   -6.8150  -11.2080 N.ar  469  TRP469     -0.2442
    123  CE2       36.4330   -6.3220   -9.9360 C.ar  469  TRP469      0.0810
    124  CE3       37.9860   -5.6200   -8.2280 C.ar  469  TRP469      0.0012
    125  CZ2       35.3530   -6.0240   -9.1300 C.ar  469  TRP469      0.0191
    126  CZ3       36.9050   -5.3380   -7.4460 C.ar  469  TRP469      0.0001
    127  CH2       35.6130   -5.5460   -7.8800 C.ar  469  TRP469      0.0015
    128  N         43.3490   -2.4390   -8.4200 N.3   473  ASP473     -0.1239
    129  CA        42.3540   -1.8350   -9.2780 C.3   473  ASP473      0.1674
    130  C         41.3080   -0.9980   -8.4790 C.2   473  ASP473      0.2266
    131  O         40.9050    0.0470   -8.9440 O.2   473  ASP473     -0.2867
    132  CB        41.6350   -2.8650  -10.1640 C.3   473  ASP473      0.1410
    133  CG        40.5820   -2.2120  -11.0090 C.2   473  ASP473      0.3668
    134  OD1       40.9360   -1.2620  -11.7680 O.co2 473  ASP473     -0.2456
    135  OD2       39.4410   -2.6120  -10.8400 O.co2 473  ASP473     -0.2456
@<TRIPOS>BOND
     1    63    62    2
     2    60    61    1
     3    71    70    1
     4    57    58    2
     5    57    56    1
     6    69    70   ar
     7    69    67   ar
     8    70    68   ar
     9    78    76    1
    10    67    65   ar
    11    62    61    1
    12    62    72   am
    13    49    48    2
    14    56    55    1
    15    56    59    1
    16    48    47    1
    17    68    66   ar
    18    61    64    1
    19    47    50    1
    20    47    46    1
    21    65    66   ar
    22    65    64    1
    23    51    50    1
    24    51    52    1
    25    88    87    2
    26    54    52   ar
    27    76    73    1
    28    76    77    1
    29    73    72    1
    30    73    74    1
    31    52    53   ar
    32    84    83    1
    33    46    40   am
    34    87    86    1
    35    79    74   am
    36    79    80    1
    37    82    81    2
    38    74    75    2
    39    92    93    1
    40    40    41    2
    41    40    39    1
    42    81    80    1
    43    81    85   am
    44    83    80    1
    45    86    85    1
    46    86    89    1
    47    95    94    2
    48    96    93    1
    49    96    97    1
    50    91    89    1
    51    39    38    1
    52    39    42    1
    53    93    94    1
    54    44    43   ar
    55    90    89    1
    56    98    97    1
    57    99    97    1
    58    43    42    1
    59    43    45   ar
    60    35    33   ar
    61    35    37   ar
    62    32    33   ar
    63    32    30   ar
    64    33    31   ar
    65    37    36   ar
    66    30    29   ar
    67   134   133   ar
    68   120   122   ar
    69   120   119   ar
    70    12    14   ar
    71    12    10   ar
    72    31    29   ar
    73    31    34   ar
    74    36    34   ar
    75    29    28    1
    76    14    13   ar
    77   122   123   ar
    78   100   101    1
    79   133   135   ar
    80   133   132    1
    81   115   116    1
    82   115   118    1
    83   115   114    1
    84   106   108   ar
    85   106   105   ar
    86    25    28    1
    87    25    26    1
    88    25    24    1
    89   116   117    2
    90     9    10   ar
    91     9     7   ar
    92    10     8   ar
    93   104   105    1
    94   104   101    1
    95   118   119    1
    96   119   121   ar
    97    26    27    2
    98   108   109   ar
    99   105   107   ar
   100   132   129    1
   101   101   102    1
   102    13    11   ar
   103   123   121   ar
   104   123   125   ar
   105    22    21    2
   106   121   124   ar
   107     7     6   ar
   108   109   107   ar
   109   109   111   ar
   110     8    11   ar
   111     8     6   ar
   112   107   110   ar
   113   129   130    1
   114   129   128    1
   115   125   127   ar
   116   131   130    2
   117    21    23   am
   118    21    20    1
   119     6     5    1
   120   102   103    2
   121   111   113   ar
   122   110   112   ar
   123   124   126   ar
   124   127   126   ar
   125   113   112   ar
   126     1     2    1
   127    19    20    1
   128    19    16    1
   129     5     2    1
   130     2     3    1
   131    16    15    1
   132    16    17    1
   133    18    17    2
   134     3     4    2
