@<TRIPOS>MOLECULE
tmp/5fr2B00.pdb
 192 182 0 0 0
SMALL
GASTEIGER

@<TRIPOS>ATOM
      1  N         86.7280  -46.3220  -24.9510 N.3    49  LEU49      -0.1245
      2  CA        85.4570  -45.6380  -25.1310 C.3    49  LEU49       0.1561
      3  C         85.4160  -45.0080  -26.5210 C.2    49  LEU49       0.2260
      4  O         85.9820  -43.9390  -26.7450 O.2    49  LEU49      -0.2867
      5  CB        85.2510  -44.5810  -24.0530 C.3    49  LEU49       0.0270
      6  CG        83.8210  -44.0600  -23.9670 C.3    49  LEU49       0.0019
      7  CD1       82.8970  -45.1900  -23.5580 C.3    49  LEU49       0.0001
      8  CD2       83.7270  -42.9040  -22.9900 C.3    49  LEU49       0.0001
      9  N         83.7970  -43.4160  -30.0380 N.3    51  LEU51      -0.1245
     10  CA        82.7170  -42.6640  -30.6680 C.3    51  LEU51       0.1561
     11  C         82.3550  -43.3000  -31.9920 C.2    51  LEU51       0.2260
     12  O         83.1990  -43.4120  -32.8800 O.2    51  LEU51      -0.2867
     13  CB        83.1100  -41.2060  -30.9030 C.3    51  LEU51       0.0270
     14  CG        82.1280  -40.4020  -31.7640 C.3    51  LEU51       0.0019
     15  CD1       80.8790  -40.0550  -30.9710 C.3    51  LEU51       0.0001
     16  CD2       82.7740  -39.1420  -32.3250 C.3    51  LEU51       0.0001
     17  N         86.6190  -42.2380  -33.3400 N.3    60  LEU60      -0.1231
     18  CA        87.4020  -41.6030  -32.2900 C.3    60  LEU60       0.1693
     19  C         87.3710  -42.4550  -31.0330 C.2    60  LEU60       0.2592
     20  O         86.3710  -43.1070  -30.7420 O.2    60  LEU60      -0.2718
     21  CB        86.8840  -40.1960  -32.0040 C.3    60  LEU60       0.0284
     22  CG        87.2240  -39.1710  -33.0840 C.3    60  LEU60       0.0019
     23  CD1       86.5880  -37.8270  -32.7660 C.3    60  LEU60       0.0001
     24  CD2       88.7350  -39.0460  -33.2270 C.3    60  LEU60       0.0001
     25  N         88.4670  -42.4360  -30.2840 N.am   61  GLU61      -0.1966
     26  CA        88.6800  -43.4280  -29.2420 C.3    61  GLU61       0.1733
     27  C         89.2360  -42.8430  -27.9470 C.2    61  GLU61       0.2616
     28  O         90.1090  -41.9740  -27.9650 O.2    61  GLU61      -0.2715
     29  CB        89.6270  -44.5080  -29.7630 C.3    61  GLU61       0.0429
     30  CG        90.0350  -45.5370  -28.7380 C.3    61  GLU61       0.1163
     31  CD        91.2280  -46.3550  -29.1790 C.2    61  GLU61       0.3649
     32  OE1       92.3540  -45.8080  -29.2050 O.co2  61  GLU61      -0.2457
     33  OE2       91.0380  -47.5490  -29.4920 O.co2  61  GLU61      -0.2457
     34  N         88.7150  -43.3320  -26.8260 N.am   62  LEU62      -0.1977
     35  CA        89.2620  -43.0220  -25.5130 C.3    62  LEU62       0.1596
     36  C         89.9090  -44.2560  -24.8910 C.2    62  LEU62       0.2287
     37  O         89.2190  -45.1110  -24.3340 O.2    62  LEU62      -0.2864
     38  CB        88.1720  -42.4840  -24.5870 C.3    62  LEU62       0.0297
     39  CG        87.8590  -40.9870  -24.6080 C.3    62  LEU62       0.0022
     40  CD1       86.6650  -40.6890  -23.7180 C.3    62  LEU62       0.0001
     41  CD2       89.0620  -40.1850  -24.1500 C.3    62  LEU62       0.0001
     42  N         88.8200  -33.0250  -27.3400 N.3    76  PHE76      -0.1227
     43  CA        88.2230  -33.8610  -28.3700 C.3    76  PHE76       0.1736
     44  C         87.1450  -33.0680  -29.0970 C.2    76  PHE76       0.2595
     45  O         86.2010  -32.5820  -28.4730 O.2    76  PHE76      -0.2718
     46  CB        87.6290  -35.1340  -27.7650 C.3    76  PHE76       0.0547
     47  CG        88.6530  -36.0810  -27.2010 C.ar   76  PHE76      -0.0202
     48  CD1       89.1050  -35.9450  -25.8990 C.ar   76  PHE76      -0.0042
     49  CD2       89.1550  -37.1160  -27.9720 C.ar   76  PHE76      -0.0042
     50  CE1       90.0430  -36.8230  -25.3800 C.ar   76  PHE76      -0.0003
     51  CE2       90.0880  -37.9980  -27.4570 C.ar   76  PHE76      -0.0003
     52  CZ        90.5370  -37.8470  -26.1640 C.ar   76  PHE76      -0.0000
     53  N         87.2880  -32.9300  -30.4100 N.am   77  VAL77      -0.1966
     54  CA        86.3370  -32.1470  -31.1860 C.3    77  VAL77       0.1727
     55  C         85.1690  -32.9960  -31.6760 C.2    77  VAL77       0.2616
     56  O         85.3430  -34.1410  -32.0890 O.2    77  VAL77      -0.2715
     57  CB        87.0120  -31.4730  -32.3870 C.3    77  VAL77       0.0290
     58  CG1       87.9080  -30.3380  -31.9180 C.3    77  VAL77       0.0023
     59  CG2       87.8080  -32.4890  -33.1790 C.3    77  VAL77       0.0023
     60  N         83.9760  -32.4170  -31.6140 N.am   78  LEU78      -0.1977
     61  CA        82.7610  -33.0800  -32.0650 C.3    78  LEU78       0.1596
     62  C         81.9240  -32.1170  -32.8950 C.2    78  LEU78       0.2287
     63  O         81.4940  -31.0780  -32.3940 O.2    78  LEU78      -0.2864
     64  CB        81.9540  -33.5920  -30.8700 C.3    78  LEU78       0.0297
     65  CG        80.5500  -34.1420  -31.1370 C.3    78  LEU78       0.0022
     66  CD1       80.6030  -35.4010  -31.9820 C.3    78  LEU78       0.0001
     67  CD2       79.8290  -34.4060  -29.8300 C.3    78  LEU78       0.0001
     68  N         75.1540  -39.8880  -33.1070 N.3    84  TYR84      -0.1241
     69  CA        76.2240  -40.8040  -32.7520 C.3    84  TYR84       0.1605
     70  C         75.7700  -41.8480  -31.7410 C.2    84  TYR84       0.2264
     71  O         74.7200  -41.7070  -31.1120 O.2    84  TYR84      -0.2867
     72  CB        77.4040  -40.0200  -32.1690 C.3    84  TYR84       0.0534
     73  CG        77.0520  -39.3160  -30.8720 C.ar   84  TYR84      -0.0201
     74  CD1       76.4460  -38.0640  -30.8800 C.ar   84  TYR84      -0.0009
     75  CD2       77.3050  -39.9100  -29.6420 C.ar   84  TYR84      -0.0009
     76  CE1       76.1090  -37.4230  -29.7040 C.ar   84  TYR84       0.0417
     77  CE2       76.9710  -39.2760  -28.4590 C.ar   84  TYR84       0.0417
     78  CZ        76.3740  -38.0330  -28.4960 C.ar   84  TYR84       0.1957
     79  OH        76.0410  -37.3980  -27.3230 O.3    84  TYR84      -0.2866
     80  N         77.7770  -44.4460  -28.5510 N.3    86  ILE86      -0.1245
     81  CA        79.0250  -44.6650  -27.8360 C.3    86  ILE86       0.1561
     82  C         79.2640  -46.1640  -27.6930 C.2    86  ILE86       0.2260
     83  O         78.3790  -46.8950  -27.2430 O.2    86  ILE86      -0.2867
     84  CB        79.0130  -43.9950  -26.4480 C.3    86  ILE86       0.0252
     85  CG1       78.2840  -42.6510  -26.5070 C.3    86  ILE86       0.0019
     86  CG2       80.4250  -43.8160  -25.9310 C.3    86  ILE86       0.0019
     87  CD1       77.6960  -42.2190  -25.1680 C.3    86  ILE86       0.0001
     88  N         77.2790  -46.3090  -16.7570 N.3   102  TYR102     -0.1241
     89  CA        78.2200  -45.2530  -17.1000 C.3   102  TYR102      0.1605
     90  C         77.6600  -43.8760  -16.7630 C.2   102  TYR102      0.2264
     91  O         76.7420  -43.3970  -17.4200 O.2   102  TYR102     -0.2867
     92  CB        78.5760  -45.3360  -18.5880 C.3   102  TYR102      0.0534
     93  CG        79.2950  -44.1250  -19.1380 C.ar  102  TYR102     -0.0201
     94  CD1       80.6300  -43.8880  -18.8370 C.ar  102  TYR102     -0.0009
     95  CD2       78.6420  -43.2300  -19.9760 C.ar  102  TYR102     -0.0009
     96  CE1       81.2910  -42.7850  -19.3460 C.ar  102  TYR102      0.0417
     97  CE2       79.2940  -42.1260  -20.4890 C.ar  102  TYR102      0.0417
     98  CZ        80.6170  -41.9090  -20.1720 C.ar  102  TYR102      0.1957
     99  OH        81.2650  -40.8100  -20.6830 O.3   102  TYR102     -0.2866
    100  N         78.0510  -39.8320  -16.5430 N.3   104  GLN104     -0.1245
    101  CA        78.7840  -38.7670  -17.2130 C.3   104  GLN104      0.1566
    102  C         78.2410  -37.3890  -16.8510 C.2   104  GLN104      0.2260
    103  O         77.1520  -37.0060  -17.2810 O.2   104  GLN104     -0.2867
    104  CB        78.7370  -38.9650  -18.7270 C.3   104  GLN104      0.0367
    105  CG        79.3660  -37.8350  -19.5210 C.3   104  GLN104      0.0905
    106  CD        79.3280  -38.0870  -21.0130 C.2   104  GLN104      0.2608
    107  OE1       80.0840  -38.9060  -21.5370 O.2   104  GLN104     -0.2717
    108  NE2       78.4370  -37.3880  -21.7070 N.am  104  GLN104     -0.0878
    109  N         78.6350  -33.4620  -17.3210 N.3   106  THR106     -0.1218
    110  CA        79.2250  -32.4920  -18.2340 C.3   106  THR106      0.1862
    111  C         79.1950  -31.0920  -17.6330 C.2   106  THR106      0.2287
    112  O         78.1310  -30.4890  -17.4970 O.2   106  THR106     -0.2866
    113  CB        78.4980  -32.4750  -19.5910 C.3   106  THR106      0.1770
    114  OG1       78.4090  -33.8100  -20.1080 O.3   106  THR106     -0.2211
    115  CG2       79.2400  -31.5880  -20.5820 C.3   106  THR106      0.0375
    116  N         74.8490  -30.7620  -17.7240 N.3   114  ASP114     -0.1239
    117  CA        74.2320  -31.9900  -18.2140 C.3   114  ASP114      0.1674
    118  C         74.6260  -33.2120  -17.3900 C.2   114  ASP114      0.2266
    119  O         75.7480  -33.3080  -16.8900 O.2   114  ASP114     -0.2867
    120  CB        74.5930  -32.2250  -19.6830 C.3   114  ASP114      0.1410
    121  CG        74.1250  -33.5760  -20.1870 C.2   114  ASP114      0.3668
    122  OD1       72.9250  -33.7060  -20.5090 O.co2 114  ASP114     -0.2456
    123  OD2       74.9550  -34.5090  -20.2480 O.co2 114  ASP114     -0.2456
    124  N         74.1640  -37.4110  -17.8910 N.3   116  THR116     -0.1218
    125  CA        73.7230  -38.5570  -18.6750 C.3   116  THR116      0.1862
    126  C         74.2620  -39.8470  -18.0760 C.2   116  THR116      0.2287
    127  O         75.3960  -39.8860  -17.5980 O.2   116  THR116     -0.2866
    128  CB        74.1850  -38.4450  -20.1420 C.3   116  THR116      0.1770
    129  OG1       73.9600  -37.1110  -20.6170 O.3   116  THR116     -0.2211
    130  CG2       73.4390  -39.4390  -21.0230 C.3   116  THR116      0.0375
    131  N         74.4430  -34.8040  -31.0580 N.3   139  ALA139     -0.1231
    132  CA        75.1120  -33.6680  -30.4360 C.3   139  ALA139      0.1679
    133  C         74.3340  -32.3780  -30.6840 C.2   139  ALA139      0.2434
    134  O         73.6730  -32.2410  -31.7120 O.2   139  ALA139     -0.2733
    135  CB        76.5300  -33.5420  -30.9630 C.3   139  ALA139      0.0304
    136  N         74.4120  -31.4230  -29.7440 N.am  140  PRO140     -0.2729
    137  CA        73.6710  -30.1650  -29.8890 C.3   140  PRO140      0.1401
    138  C         74.2930  -29.2250  -30.9210 C.2   140  PRO140      0.2269
    139  O         75.3590  -29.5260  -31.4580 O.2   140  PRO140     -0.2865
    140  CB        73.7520  -29.5590  -28.4880 C.3   140  PRO140      0.0296
    141  CG        75.0600  -30.0540  -27.9640 C.3   140  PRO140      0.0237
    142  CD        75.1900  -31.4590  -28.4910 C.3   140  PRO140      0.0939
    143  N         83.7480  -27.8760  -23.2760 N.3   149  TYR149     -0.1241
    144  CA        83.1040  -28.4590  -22.1050 C.3   149  TYR149      0.1605
    145  C         84.0790  -29.3040  -21.2970 C.2   149  TYR149      0.2264
    146  O         85.0630  -29.8150  -21.8310 O.2   149  TYR149     -0.2867
    147  CB        81.9070  -29.3130  -22.5200 C.3   149  TYR149      0.0534
    148  CG        80.8460  -28.5470  -23.2730 C.ar  149  TYR149     -0.0201
    149  CD1       79.9070  -27.7850  -22.5950 C.ar  149  TYR149     -0.0009
    150  CD2       80.7790  -28.5890  -24.6610 C.ar  149  TYR149     -0.0009
    151  CE1       78.9360  -27.0800  -23.2740 C.ar  149  TYR149      0.0417
    152  CE2       79.8080  -27.8880  -25.3500 C.ar  149  TYR149      0.0417
    153  CZ        78.8880  -27.1360  -24.6490 C.ar  149  TYR149      0.1957
    154  OH        77.9130  -26.4320  -25.3180 O.3   149  TYR149     -0.2866
    155  N         84.3230  -32.6390  -18.8420 N.3   151  ILE151     -0.1245
    156  CA        83.5450  -33.8440  -18.5640 C.3   151  ILE151      0.1561
    157  C         84.1540  -34.7350  -17.4860 C.2   151  ILE151      0.2260
    158  O         85.3480  -35.0230  -17.5090 O.2   151  ILE151     -0.2867
    159  CB        83.3680  -34.6800  -19.8490 C.3   151  ILE151      0.0252
    160  CG1       82.6330  -33.8620  -20.9100 C.3   151  ILE151      0.0019
    161  CG2       82.6120  -35.9700  -19.5650 C.3   151  ILE151      0.0019
    162  CD1       82.3700  -34.6250  -22.1860 C.3   151  ILE151      0.0001
    163  N         87.9460  -35.5030  -18.6800 N.3   167  TRP167     -0.1241
    164  CA        88.4660  -35.1910  -20.0040 C.3   167  TRP167      0.1605
    165  C         87.7440  -33.9800  -20.5810 C.2   167  TRP167      0.2264
    166  O         86.8680  -33.4020  -19.9330 O.2   167  TRP167     -0.2867
    167  CB        88.3340  -36.4010  -20.9340 C.3   167  TRP167      0.0550
    168  CG        86.9720  -37.0250  -20.9440 C.ar  167  TRP167      0.0003
    169  CD1       86.3640  -37.6890  -19.9160 C.ar  167  TRP167      0.0946
    170  CD2       86.0620  -37.0740  -22.0440 C.ar  167  TRP167      0.0152
    171  NE1       85.1240  -38.1310  -20.3030 N.ar  167  TRP167     -0.2442
    172  CE2       84.9140  -37.7680  -21.6100 C.ar  167  TRP167      0.0810
    173  CE3       86.0980  -36.5930  -23.3560 C.ar  167  TRP167      0.0012
    174  CZ2       83.8200  -37.9920  -22.4340 C.ar  167  TRP167      0.0191
    175  CZ3       85.0100  -36.8160  -24.1730 C.ar  167  TRP167      0.0001
    176  CH2       83.8890  -37.5070  -23.7090 C.ar  167  TRP167      0.0015
    177  N         85.8470  -31.8790  -23.9520 N.3   169  LEU169     -0.1245
    178  CA        85.0960  -31.9570  -25.1980 C.3   169  LEU169      0.1561
    179  C         84.8720  -30.5710  -25.7890 C.2   169  LEU169      0.2260
    180  O         84.4070  -29.6660  -25.0980 O.2   169  LEU169     -0.2867
    181  CB        83.7480  -32.6370  -24.9670 C.3   169  LEU169      0.0270
    182  CG        82.8320  -32.7020  -26.1880 C.3   169  LEU169      0.0019
    183  CD1       83.1760  -33.9150  -27.0350 C.3   169  LEU169      0.0001
    184  CD2       81.3710  -32.7110  -25.7750 C.3   169  LEU169      0.0001
    185  N         82.9720  -28.5400  -29.0010 N.3   171  ILE171     -0.1245
    186  CA        82.0120  -28.6500  -30.1000 C.3   171  ILE171      0.1561
    187  C         82.1920  -27.5150  -31.1100 C.2   171  ILE171      0.2260
    188  O         81.9070  -26.3520  -30.8150 O.2   171  ILE171     -0.2867
    189  CB        80.5560  -28.6540  -29.5890 C.3   171  ILE171      0.0252
    190  CG1       80.3000  -29.8880  -28.7210 C.3   171  ILE171      0.0019
    191  CG2       79.5820  -28.6390  -30.7560 C.3   171  ILE171      0.0019
    192  CD1       78.8390  -30.0910  -28.3590 C.3   171  ILE171      0.0001
@<TRIPOS>BOND
     1    17    18    1
     2    24    22    1
     3    59    57    1
     4    68    69    1
     5    22    23    1
     6    22    21    1
     7    62    63    2
     8    62    61    1
     9    12    11    2
    10    69    72    1
    11    69    70    1
    12    57    58    1
    13    57    54    1
    14    16    14    1
    15    18    21    1
    16    18    19    1
    17    72    73    1
    18    56    55    2
    19    61    60    1
    20    61    64    1
    21    11    10    1
    22    66    65    1
    23    14    15    1
    24    14    13    1
    25    70    71    2
    26   134   133    2
    27    55    60   am
    28    55    54    1
    29   139   138    2
    30    54    53    1
    31    65    64    1
    32    65    67    1
    33   187   188    2
    34   187   186    1
    35   131   132    1
    36    19    20    2
    37    19    25   am
    38   135   132    1
    39   138   137    1
    40    13    10    1
    41    74    73   ar
    42    74    76   ar
    43    73    75   ar
    44   191   189    1
    45   133   132    1
    46   133   136   am
    47    10     9    1
    48    53    44   am
    49    25    26    1
    50   186   189    1
    51   186   185    1
    52   137   136    1
    53   137   140    1
    54    29    26    1
    55    29    30    1
    56   136   142    1
    57    76    78   ar
    58    75    77   ar
    59   189   190    1
    60    33    31   ar
    61    26    27    1
    62    32    31   ar
    63    31    30    1
    64    44    45    2
    65    44    43    1
    66   190   192    1
    67    80    81    1
    68    78    77   ar
    69    78    79    1
    70   142   141    1
    71   140   141    1
    72    43    46    1
    73    43    42    1
    74    49    51   ar
    75    49    47   ar
    76    28    27    2
    77    27    34   am
    78    81    82    1
    79    81    84    1
    80    46    47    1
    81    82    83    2
    82    51    52   ar
    83    47    48   ar
    84   183   182    1
    85    34    35    1
    86     4     3    2
    87     3     2    1
    88    85    84    1
    89    85    87    1
    90    84    86    1
    91   182   184    1
    92   182   181    1
    93    52    50   ar
    94    48    50   ar
    95   179   178    1
    96   179   180    2
    97    35    36    1
    98    35    38    1
    99   152   150   ar
   100   152   153   ar
   101   154   153    1
   102   178   181    1
   103   178   177    1
   104     2     1    1
   105     2     5    1
   106    36    37    2
   107   150   148   ar
   108   153   151   ar
   109    39    38    1
   110    39    41    1
   111    39    40    1
   112   175   176   ar
   113   175   173   ar
   114     5     6    1
   115     6     7    1
   116     6     8    1
   117   176   174   ar
   118   173   170   ar
   119   143   144    1
   120   151   149   ar
   121   148   149   ar
   122   148   147    1
   123   147   144    1
   124   174   172   ar
   125   162   160    1
   126   144   145    1
   127   170   172   ar
   128   170   168   ar
   129   146   145    2
   130   108   106   am
   131   172   171   ar
   132   107   106    2
   133   130   128    1
   134   106   105    1
   135   168   167    1
   136   168   169   ar
   137   167   164    1
   138   160   159    1
   139    99    98    1
   140   129   128    1
   141   115   113    1
   142   165   164    1
   143   165   166    2
   144   122   121   ar
   145    97    98   ar
   146    97    95   ar
   147   171   169   ar
   148   123   121   ar
   149   121   120    1
   150    98    96   ar
   151   128   125    1
   152   114   113    1
   153   164   163    1
   154    95    93   ar
   155   159   161    1
   156   159   156    1
   157   120   117    1
   158   113   110    1
   159   105   104    1
   160    96    94   ar
   161    93    94   ar
   162    93    92    1
   163   155   156    1
   164   104   101    1
   165   125   126    1
   166   125   124    1
   167    92    89    1
   168   156   157    1
   169   110   111    1
   170   110   109    1
   171   117   116    1
   172   117   118    1
   173   126   127    2
   174   111   112    2
   175   158   157    2
   176    91    90    2
   177   118   119    2
   178   103   102    2
   179   101   102    1
   180   101   100    1
   181    89    90    1
   182    89    88    1
