@<TRIPOS>MOLECULE
tmp/5fr8B00.pdb
 140 136 0 0 0
SMALL
GASTEIGER

@<TRIPOS>ATOM
      1  N         19.3880  -63.2840    2.8340 N.3   501  ALA501     -0.1231
      2  CA        18.3360  -63.0210    3.7910 C.3   501  ALA501      0.1694
      3  C         18.9100  -62.7550    5.1650 C.2   501  ALA501      0.2593
      4  O         20.0550  -63.1020    5.4610 O.2   501  ALA501     -0.2718
      5  CB        17.3610  -64.1940    3.8330 C.3   501  ALA501      0.0304
      6  N         18.1080  -62.1180    6.0030 N.am  502  SER502     -0.1938
      7  CA        18.5040  -61.8450    7.3490 C.3   502  SER502      0.2055
      8  C         17.3240  -61.9710    8.2340 C.2   502  SER502      0.2642
      9  O         16.2130  -61.6700    7.8240 O.2   502  SER502     -0.2714
     10  CB        18.9550  -60.3700    7.4530 C.3   502  SER502      0.2130
     11  OG        20.0320  -60.1000    6.5720 O.3   502  SER502     -0.2179
     12  N         17.5760  -62.3470    9.4750 N.am  503  LEU503     -0.1977
     13  CA        16.6180  -62.1330   10.5510 C.3   503  LEU503      0.1596
     14  C         17.4000  -61.6680   11.7590 C.2   503  LEU503      0.2287
     15  O         18.4810  -62.1760   12.0520 O.2   503  LEU503     -0.2864
     16  CB        15.8320  -63.4080   10.8560 C.3   503  LEU503      0.0297
     17  CG        14.9730  -63.3790   12.1280 C.3   503  LEU503      0.0022
     18  CD1       13.5820  -63.9200   11.8330 C.3   503  LEU503      0.0001
     19  CD2       15.6220  -64.1440   13.2890 C.3   503  LEU503      0.0001
     20  N         14.8880  -59.4090    6.3420 N.3   560  SER560     -0.1202
     21  CA        15.0250  -58.8630    5.0200 C.3   560  SER560      0.2020
     22  C         15.2750  -59.9930    4.0600 C.2   560  SER560      0.2618
     23  O         15.8560  -61.0070    4.4400 O.2   560  SER560     -0.2717
     24  CB        16.2150  -57.9050    4.9860 C.3   560  SER560      0.2103
     25  OG        17.3810  -58.5870    5.4550 O.3   560  SER560     -0.2182
     26  N         14.8590  -59.8100    2.8140 N.am  561  LEU561     -0.1979
     27  CA        15.0030  -60.8460    1.8290 C.3   561  LEU561      0.1596
     28  C         15.3110  -60.2820    0.4740 C.2   561  LEU561      0.2287
     29  O         14.5650  -59.4410   -0.0160 O.2   561  LEU561     -0.2864
     30  CB        13.6950  -61.6470    1.7340 C.3   561  LEU561      0.0297
     31  CG        13.5780  -62.5480    0.4950 C.3   561  LEU561      0.0022
     32  CD1       14.5480  -63.6930    0.6630 C.3   561  LEU561      0.0001
     33  CD2       12.1650  -63.0380    0.3300 C.3   561  LEU561      0.0001
     34  N         16.2940  -61.2460   -3.6240 N.3   563  LEU563     -0.1245
     35  CA        16.2820  -62.2440   -4.7030 C.3   563  LEU563      0.1561
     36  C         16.7240  -61.5960   -5.9980 C.2   563  LEU563      0.2260
     37  O         15.9770  -60.8030   -6.5940 O.2   563  LEU563     -0.2867
     38  CB        14.8750  -62.8060   -4.8770 C.3   563  LEU563      0.0270
     39  CG        14.3790  -63.7320   -3.7690 C.3   563  LEU563      0.0019
     40  CD1       12.9760  -64.2480   -4.0780 C.3   563  LEU563      0.0001
     41  CD2       15.3490  -64.8960   -3.5940 C.3   563  LEU563      0.0001
     42  N         14.2120  -58.5090   -6.6080 N.3   570  TRP570     -0.1241
     43  CA        13.2120  -58.3010   -5.5530 C.3   570  TRP570      0.1605
     44  C         13.8420  -57.9990   -4.2140 C.2   570  TRP570      0.2264
     45  O         14.6130  -58.7870   -3.6720 O.2   570  TRP570     -0.2867
     46  CB        12.3580  -59.5840   -5.3540 C.3   570  TRP570      0.0550
     47  CG        11.2110  -59.7980   -6.3060 C.ar  570  TRP570      0.0003
     48  CD1       10.0150  -59.1180   -6.3310 C.ar  570  TRP570      0.0946
     49  CD2       11.1390  -60.7820   -7.3440 C.ar  570  TRP570      0.0152
     50  NE1        9.2180  -59.6120   -7.3410 N.ar  570  TRP570     -0.2442
     51  CE2        9.8830  -60.6310   -7.9770 C.ar  570  TRP570      0.0810
     52  CE3       12.0160  -61.7820   -7.8000 C.ar  570  TRP570      0.0012
     53  CZ2        9.4860  -61.4320   -9.0390 C.ar  570  TRP570      0.0191
     54  CZ3       11.6170  -62.5930   -8.8740 C.ar  570  TRP570      0.0001
     55  CH2       10.3670  -62.4110   -9.4770 C.ar  570  TRP570      0.0015
     56  N         12.7480  -57.2090   -0.3480 N.3   572  ASN572     -0.1225
     57  CA        11.6860  -57.1830    0.6680 C.3   572  ASN572      0.1785
     58  C         12.2120  -57.1520    2.1140 C.2   572  ASN572      0.2597
     59  O         13.2680  -57.6930    2.4370 O.2   572  ASN572     -0.2718
     60  CB        10.8050  -58.4170    0.5210 C.3   572  ASN572      0.1169
     61  CG        10.0030  -58.4380   -0.7790 C.2   572  ASN572      0.2627
     62  OD1       10.0590  -57.5020   -1.5730 O.2   572  ASN572     -0.2716
     63  ND2        9.2450  -59.5150   -0.9930 N.am  572  ASN572     -0.0877
     64  N         11.4570  -56.5160    2.9890 N.am  573  ASN573     -0.1960
     65  CA        11.7120  -56.6080    4.4160 C.3   573  ASN573      0.1819
     66  C         10.4140  -56.5780    5.2140 C.2   573  ASN573      0.2621
     67  O          9.3070  -56.2500    4.7040 O.2   573  ASN573     -0.2715
     68  CB        12.5790  -55.4840    4.9000 C.3   573  ASN573      0.1195
     69  CG        11.8780  -54.1360    4.8320 C.2   573  ASN573      0.2630
     70  OD1       10.9540  -53.8550    5.6060 O.2   573  ASN573     -0.2716
     71  ND2       12.2980  -53.3010    3.8940 N.am  573  ASN573     -0.0877
     72  N         10.5530  -56.9740    6.4720 N.am  574  PHE574     -0.1974
     73  CA         9.4530  -56.9150    7.3980 C.3   574  PHE574      0.1639
     74  C         10.0960  -56.5440    8.7140 C.2   574  PHE574      0.2290
     75  O         11.3010  -56.7160    8.9020 O.2   574  PHE574     -0.2864
     76  CB         8.6870  -58.2430    7.4890 C.3   574  PHE574      0.0560
     77  CG         9.2380  -59.2170    8.5240 C.ar  574  PHE574     -0.0200
     78  CD1        8.8530  -59.1360    9.8610 C.ar  574  PHE574     -0.0042
     79  CD2       10.1370  -60.2200    8.1570 C.ar  574  PHE574     -0.0042
     80  CE1        9.3790  -60.0010   10.8060 C.ar  574  PHE574     -0.0003
     81  CE2       10.6660  -61.0820    9.0990 C.ar  574  PHE574     -0.0003
     82  CZ        10.2830  -60.9740   10.4220 C.ar  574  PHE574     -0.0000
     83  N          5.5610  -54.4630    6.4370 N.3   597  ILE597     -0.1245
     84  CA         6.2090  -55.2450    5.3970 C.3   597  ILE597      0.1561
     85  C          6.4580  -54.3950    4.1660 C.2   597  ILE597      0.2260
     86  O          5.5900  -53.6430    3.7600 O.2   597  ILE597     -0.2867
     87  CB         5.3090  -56.4400    4.9920 C.3   597  ILE597      0.0252
     88  CG1        5.1620  -57.3960    6.1540 C.3   597  ILE597      0.0019
     89  CG2        5.8870  -57.2020    3.8050 C.3   597  ILE597      0.0019
     90  CD1        4.1070  -58.4080    5.9090 C.3   597  ILE597      0.0001
     91  N          8.0370  -54.3690   -0.0120 N.3   599  SER599     -0.1217
     92  CA         8.5550  -55.0470   -1.1950 C.3   599  SER599      0.1889
     93  C          8.8950  -54.0450   -2.2620 C.2   599  SER599      0.2288
     94  O          8.0600  -53.2180   -2.6230 O.2   599  SER599     -0.2866
     95  CB         7.5200  -55.9980   -1.7750 C.3   599  SER599      0.2089
     96  OG         7.8870  -56.4670   -3.0750 O.3   599  SER599     -0.2183
     97  N         10.3020  -54.1820   -6.3720 N.3   601  PHE601     -0.1241
     98  CA        10.4890  -55.0820   -7.5390 C.3   601  PHE601      0.1605
     99  C         11.0740  -54.2870   -8.6960 C.2   601  PHE601      0.2264
    100  O         10.5940  -53.2030   -9.0390 O.2   601  PHE601     -0.2867
    101  CB         9.1400  -55.7280   -7.9240 C.3   601  PHE601      0.0534
    102  CG         9.0810  -56.3590   -9.2970 C.ar  601  PHE601     -0.0203
    103  CD1        9.6520  -57.5970   -9.5430 C.ar  601  PHE601     -0.0042
    104  CD2        8.3700  -55.7580  -10.3190 C.ar  601  PHE601     -0.0042
    105  CE1        9.5650  -58.2080  -10.7980 C.ar  601  PHE601     -0.0003
    106  CE2        8.2710  -56.3490  -11.5720 C.ar  601  PHE601     -0.0003
    107  CZ         8.8770  -57.5730  -11.8150 C.ar  601  PHE601     -0.0000
    108  N          8.1430  -51.7190   -9.2190 N.3   613  PHE613     -0.1241
    109  CA         6.9260  -51.9120   -8.4120 C.3   613  PHE613      0.1605
    110  C          7.2830  -51.8650   -6.9420 C.2   613  PHE613      0.2264
    111  O          8.3140  -52.4300   -6.5450 O.2   613  PHE613     -0.2867
    112  CB         6.2810  -53.2780   -8.7430 C.3   613  PHE613      0.0534
    113  CG         4.9820  -53.5620   -8.0050 C.ar  613  PHE613     -0.0203
    114  CD1        3.7910  -52.9230   -8.3670 C.ar  613  PHE613     -0.0042
    115  CD2        4.9450  -54.4920   -6.9790 C.ar  613  PHE613     -0.0042
    116  CE1        2.6030  -53.1900   -7.7090 C.ar  613  PHE613     -0.0003
    117  CE2        3.7580  -54.7600   -6.3180 C.ar  613  PHE613     -0.0003
    118  CZ         2.5910  -54.1040   -6.6820 C.ar  613  PHE613     -0.0000
    119  N          5.4590  -51.9650   -2.8100 N.3   615  PHE615     -0.1241
    120  CA         4.2700  -52.3410   -2.0400 C.3   615  PHE615      0.1605
    121  C          4.6520  -52.3290   -0.5820 C.2   615  PHE615      0.2264
    122  O          5.7330  -52.7970   -0.1860 O.2   615  PHE615     -0.2867
    123  CB         3.7670  -53.7360   -2.4530 C.3   615  PHE615      0.0534
    124  CG         2.5670  -54.2370   -1.6650 C.ar  615  PHE615     -0.0203
    125  CD1        1.2830  -53.8130   -1.9720 C.ar  615  PHE615     -0.0042
    126  CD2        2.7200  -55.1760   -0.6500 C.ar  615  PHE615     -0.0042
    127  CE1        0.1950  -54.2860   -1.2680 C.ar  615  PHE615     -0.0003
    128  CE2        1.6330  -55.6470    0.0600 C.ar  615  PHE615     -0.0003
    129  CZ         0.3750  -55.2010   -0.2500 C.ar  615  PHE615     -0.0000
    130  N         -4.1600  -47.8810   -5.5490 N.3   677  PHE677     -0.1241
    131  CA        -5.5360  -48.2840   -5.1880 C.3   677  PHE677      0.1605
    132  C         -6.3130  -47.1940   -4.4170 C.2   677  PHE677      0.2264
    133  O         -7.3700  -47.4540   -3.8130 O.2   677  PHE677     -0.2867
    134  CB        -5.4730  -49.5950   -4.3920 C.3   677  PHE677      0.0534
    135  CG        -4.8580  -50.7320   -5.1650 C.ar  677  PHE677     -0.0203
    136  CD1       -5.2550  -50.9950   -6.4800 C.ar  677  PHE677     -0.0042
    137  CD2       -3.8840  -51.5330   -4.5900 C.ar  677  PHE677     -0.0042
    138  CE1       -4.6860  -52.0320   -7.1980 C.ar  677  PHE677     -0.0003
    139  CE2       -3.3080  -52.5800   -5.3050 C.ar  677  PHE677     -0.0003
    140  CZ        -3.7120  -52.8300   -6.6080 C.ar  677  PHE677     -0.0000
@<TRIPOS>BOND
     1   107   106   ar
     2   107   105   ar
     3   106   104   ar
     4   105   103   ar
     5   104   102   ar
     6   103   102   ar
     7    55    53   ar
     8    55    54   ar
     9   102   101    1
    10   108   109    1
    11   100    99    2
    12    53    51   ar
    13    54    52   ar
    14   112   109    1
    15   112   113    1
    16    99    98    1
    17   109   110    1
    18   114   113   ar
    19   114   116   ar
    20   113   115   ar
    21    51    49   ar
    22    51    50   ar
    23   101    98    1
    24    52    49   ar
    25   116   118   ar
    26    98    97    1
    27    49    47   ar
    28    50    48   ar
    29   138   140   ar
    30   138   136   ar
    31   115   117   ar
    32   110   111    2
    33   118   117   ar
    34   140   139   ar
    35    42    43    1
    36    37    36    2
    37   136   135   ar
    38    48    47   ar
    39    47    46    1
    40    36    35    1
    41    43    46    1
    42    43    44    1
    43   130   131    1
    44   139   137   ar
    45   131   132    1
    46   131   134    1
    47   135   137   ar
    48   135   134    1
    49    38    35    1
    50    38    39    1
    51    35    34    1
    52   132   133    2
    53    44    45    2
    54    40    39    1
    55    39    41    1
    56    96    95    1
    57   119   120    1
    58    94    93    2
    59   123   120    1
    60   123   124    1
    61    93    92    1
    62   120   121    1
    63   125   124   ar
    64   125   127   ar
    65    95    92    1
    66   124   126   ar
    67    62    61    2
    68   127   129   ar
    69    92    91    1
    70    63    61   am
    71    61    60    1
    72   126   128   ar
    73   121   122    2
    74    56    57    1
    75   129   128   ar
    76    29    28    2
    77    33    31    1
    78    28    27    1
    79    31    32    1
    80    31    30    1
    81    60    57    1
    82    57    58    1
    83    30    27    1
    84    27    26    1
    85    58    59    2
    86    58    64   am
    87    26    22   am
    88     1     2    1
    89    64    65    1
    90    86    85    2
    91     2     5    1
    92     2     3    1
    93    89    87    1
    94    71    69   am
    95    22    23    2
    96    22    21    1
    97    85    84    1
    98    65    68    1
    99    65    66    1
   100    67    66    2
   101    69    68    1
   102    69    70    2
   103    24    21    1
   104    24    25    1
   105    87    84    1
   106    87    88    1
   107    21    20    1
   108     3     4    2
   109     3     6   am
   110    66    72   am
   111    84    83    1
   112    90    88    1
   113     6     7    1
   114    72    73    1
   115    11    10    1
   116     7    10    1
   117     7     8    1
   118    73    76    1
   119    73    74    1
   120    76    77    1
   121     9     8    2
   122    79    77   ar
   123    79    81   ar
   124     8    12   am
   125    77    78   ar
   126    74    75    2
   127    81    82   ar
   128    12    13    1
   129    78    80   ar
   130    82    80   ar
   131    13    16    1
   132    13    14    1
   133    16    17    1
   134    14    15    2
   135    18    17    1
   136    17    19    1
