@<TRIPOS>MOLECULE
tmp/5fr9D00.pdb
 233 225 0 0 0
SMALL
GASTEIGER

@<TRIPOS>ATOM
      1  N        -29.7420   20.3100  116.5640 N.3    59  TYR59      -0.1241
      2  CA       -28.8760   19.1470  116.3940 C.3    59  TYR59       0.1605
      3  C        -28.3900   18.9680  114.9600 C.2    59  TYR59       0.2264
      4  O        -28.8200   19.6800  114.0210 O.2    59  TYR59      -0.2867
      5  CB       -29.5780   17.8490  116.8660 C.3    59  TYR59       0.0534
      6  CG       -30.5880   17.2710  115.8750 C.ar   59  TYR59      -0.0201
      7  CD1      -31.8040   17.8850  115.6440 C.ar   59  TYR59      -0.0009
      8  CD2      -30.2990   16.0990  115.1490 C.ar   59  TYR59      -0.0009
      9  CE1      -32.7190   17.3520  114.7470 C.ar   59  TYR59       0.0417
     10  CE2      -31.1920   15.5680  114.2310 C.ar   59  TYR59       0.0417
     11  CZ       -32.4150   16.1860  114.0420 C.ar   59  TYR59       0.1957
     12  OH       -33.3030   15.6420  113.1230 O.3    59  TYR59      -0.2866
     13  N        -26.8300   15.2500  112.4890 N.3    61  THR61      -0.1218
     14  CA       -26.4910   13.8330  112.4160 C.3    61  THR61       0.1862
     15  C        -25.5780   13.6350  111.2330 C.2    61  THR61       0.2287
     16  O        -25.9800   13.8590  110.0720 O.2    61  THR61      -0.2866
     17  CB       -27.7440   12.9260  112.2450 C.3    61  THR61       0.1770
     18  OG1      -28.6690   13.1830  113.3070 O.3    61  THR61      -0.2211
     19  CG2      -27.3780   11.4490  112.2700 C.3    61  THR61       0.0375
     20  N        -21.0040   19.6890  108.6490 N.3    75  HIS75      -0.1241
     21  CA       -21.9990   19.3080  109.6670 C.3    75  HIS75       0.1621
     22  C        -21.9150   20.1370  110.9350 C.2    75  HIS75       0.2264
     23  O        -22.9220   20.6930  111.4000 O.2    75  HIS75      -0.2867
     24  CB       -21.9160   17.8010  109.9950 C.3    75  HIS75       0.0745
     25  CG       -22.8800   16.9650  109.2070 C.ar   75  HIS75       0.0817
     26  ND1      -22.5170   16.2310  108.0950 N.ar   75  HIS75      -0.2268
     27  CD2      -24.2130   16.7980  109.3460 C.ar   75  HIS75       0.1154
     28  CE1      -23.5870   15.6430  107.5930 C.ar   75  HIS75       0.1986
     29  NE2      -24.6320   15.9850  108.3250 N.ar   75  HIS75      -0.2212
     30  N        -22.8760   23.8150  110.2850 N.3    78  ARG78      -0.1245
     31  CA       -24.3390   23.9640  110.2730 C.3    78  ARG78       0.1563
     32  C        -24.9230   23.9300  111.6920 C.2    78  ARG78       0.2260
     33  O        -25.8250   24.7090  112.0160 O.2    78  ARG78      -0.2867
     34  CB       -25.0060   22.8920  109.4060 C.3    78  ARG78       0.0307
     35  CG       -26.4960   23.1430  109.1890 C.3    78  ARG78       0.0489
     36  CD       -27.1720   22.0650  108.3520 C.3    78  ARG78       0.2205
     37  NE       -27.3090   20.7820  109.0580 N.pl3  78  ARG78      -0.0865
     38  CZ       -27.6380   19.6280  108.4700 C.cat  78  ARG78       0.5346
     39  NH1      -27.9380   19.5810  107.1710 N.pl3  78  ARG78       0.1354
     40  NH2      -27.6610   18.5020  109.1810 N.pl3  78  ARG78       0.1354
     41  N        -23.7780    6.1070  112.6240 N.3   114  MET114     -0.1245
     42  CA       -24.5390    7.3600  112.6740 C.3   114  MET114      0.1570
     43  C        -24.1970    8.0350  113.9470 C.2   114  MET114      0.2261
     44  O        -24.2570    7.4050  114.9790 O.2   114  MET114     -0.2867
     45  CB       -26.0490    7.1020  112.7290 C.3   114  MET114      0.0387
     46  CG       -26.5360    6.3070  111.4870 C.3   114  MET114      0.0595
     47  SD       -27.1090    7.2700  110.0890 S.3   114  MET114     -0.1393
     48  CE       -28.1550    6.1080  109.2340 C.3   114  MET114      0.0692
     49  N        -28.1570    3.5880  109.9150 N.3   147  GLN147     -0.1231
     50  CA       -29.5660    3.3550  109.7030 C.3   147  GLN147      0.1698
     51  C        -30.0910    3.7500  108.3350 C.2   147  GLN147      0.2592
     52  O        -29.7390    4.7780  107.8060 O.2   147  GLN147     -0.2718
     53  CB       -30.3920    4.1200  110.7530 C.3   147  GLN147      0.0381
     54  CG       -31.2300    3.2720  111.6890 C.3   147  GLN147      0.0905
     55  CD       -30.4060    2.3420  112.4630 C.2   147  GLN147      0.2608
     56  OE1      -29.5180    2.7800  113.1340 O.2   147  GLN147     -0.2717
     57  NE2      -30.6570    1.0580  112.3380 N.am  147  GLN147     -0.0878
     58  N        -31.0160    2.9400  107.8120 N.am  148  TRP148     -0.1962
     59  CA       -31.5340    3.1050  106.4480 C.3   148  TRP148      0.1771
     60  C        -32.9860    3.4990  106.4980 C.2   148  TRP148      0.2619
     61  O        -33.8230    2.7270  106.9760 O.2   148  TRP148     -0.2715
     62  CB       -31.3590    1.8030  105.6440 C.3   148  TRP148      0.0590
     63  CG       -29.9200    1.3200  105.5790 C.ar  148  TRP148      0.0006
     64  CD1      -29.2910    0.4760  106.4780 C.ar  148  TRP148      0.0946
     65  CD2      -28.9170    1.6760  104.6040 C.ar  148  TRP148      0.0152
     66  NE1      -27.9730    0.2780  106.1080 N.ar  148  TRP148     -0.2442
     67  CE2      -27.7120    1.0030  104.9700 C.ar  148  TRP148      0.0810
     68  CE3      -28.9150    2.4860  103.4560 C.ar  148  TRP148      0.0012
     69  CZ2      -26.5130    1.1380  104.2270 C.ar  148  TRP148      0.0191
     70  CZ3      -27.7300    2.6060  102.7140 C.ar  148  TRP148      0.0001
     71  CH2      -26.5470    1.9340  103.1060 C.ar  148  TRP148      0.0015
     72  N        -33.2880    4.6930  106.0210 N.am  149  ILE149     -0.1977
     73  CA       -34.6750    5.1510  105.9180 C.3   149  ILE149      0.1596
     74  C        -35.4650    4.2910  104.9210 C.2   149  ILE149      0.2287
     75  O        -36.6310    3.9790  105.1760 O.2   149  ILE149     -0.2864
     76  CB       -34.7410    6.6670  105.5840 C.3   149  ILE149      0.0276
     77  CG1      -36.1240    7.2530  105.8110 C.3   149  ILE149      0.0022
     78  CG2      -34.3300    6.9590  104.1510 C.3   149  ILE149      0.0022
     79  CD1      -36.0570    8.7750  105.9300 C.3   149  ILE149      0.0001
     80  N        -46.2450   21.8160  106.1670 N.3   169  ARG169     -0.1245
     81  CA       -44.9690   22.0390  106.8900 C.3   169  ARG169      0.1563
     82  C        -45.0650   23.3290  107.6840 C.2   169  ARG169      0.2260
     83  O        -45.5710   24.3400  107.1700 O.2   169  ARG169     -0.2867
     84  CB       -43.7650   22.1050  105.9280 C.3   169  ARG169      0.0307
     85  CG       -42.3860   22.0870  106.6010 C.3   169  ARG169      0.0489
     86  CD       -41.9410   20.6950  107.0240 C.3   169  ARG169      0.2205
     87  NE       -40.6270   20.6950  107.6980 N.pl3 169  ARG169     -0.0865
     88  CZ       -40.4130   20.7560  109.0180 C.cat 169  ARG169      0.5346
     89  NH1      -41.4080   20.8570  109.8930 N.pl3 169  ARG169      0.1354
     90  NH2      -39.1720   20.6980  109.4660 N.pl3 169  ARG169      0.1354
     91  N        -37.9380   25.5370  109.5240 N.3   177  PRO177     -0.2116
     92  CA       -37.3830   24.2600  109.0660 C.3   177  PRO177      0.1372
     93  C        -35.9110   24.3010  108.6690 C.2   177  PRO177      0.2244
     94  O        -35.2850   23.2360  108.5530 O.2   177  PRO177     -0.2868
     95  CB       -38.2360   23.9190  107.8470 C.3   177  PRO177      0.0268
     96  CG       -39.5030   24.6530  108.0390 C.3   177  PRO177      0.0207
     97  CD       -39.1000   25.9330  108.7060 C.3   177  PRO177      0.0892
     98  N        -32.4080   22.7100  112.0530 N.3   180  LYS180     -0.1231
     99  CA       -32.6790   21.2960  112.3460 C.3   180  LYS180      0.1693
    100  C        -33.2660   21.2560  113.7390 C.2   180  LYS180      0.2592
    101  O        -32.7550   21.9020  114.6400 O.2   180  LYS180     -0.2718
    102  CB       -31.4160   20.4510  112.2680 C.3   180  LYS180      0.0285
    103  CG       -31.6730   18.9670  112.0830 C.3   180  LYS180      0.0035
    104  CD       -30.9510   18.3980  110.8640 C.3   180  LYS180      0.0206
    105  CE       -31.0140   16.8460  110.7410 C.3   180  LYS180      0.1093
    106  NZ       -31.6390   16.1330  109.5320 N.3   180  LYS180     -0.1314
    107  N        -34.3480   20.5180  113.9190 N.am  181  ASN181     -0.1974
    108  CA       -35.0420   20.5070  115.2170 C.3   181  ASN181      0.1688
    109  C        -35.8720   19.2400  115.4620 C.2   181  ASN181      0.2292
    110  O        -36.2050   18.5280  114.5500 O.2   181  ASN181     -0.2864
    111  CB       -35.8930   21.7960  115.4140 C.3   181  ASN181      0.1181
    112  CG       -37.1280   21.8460  114.5240 C.2   181  ASN181      0.2629
    113  OD1      -38.1050   21.1180  114.7340 O.2   181  ASN181     -0.2716
    114  ND2      -37.1040   22.7240  113.5320 N.am  181  ASN181     -0.0877
    115  N        -41.4160   17.7060  115.5800 N.3   184  TRP184     -0.1241
    116  CA       -41.8750   16.8890  114.4240 C.3   184  TRP184      0.1605
    117  C        -43.4020   16.6390  114.3790 C.2   184  TRP184      0.2264
    118  O        -43.8780   15.7210  113.7100 O.2   184  TRP184     -0.2867
    119  CB       -41.1570   15.5460  114.4400 C.3   184  TRP184      0.0550
    120  CG       -39.8640   15.5160  113.7470 C.ar  184  TRP184      0.0003
    121  CD1      -38.8530   16.4280  113.8450 C.ar  184  TRP184      0.0946
    122  CD2      -39.3850   14.4850  112.8840 C.ar  184  TRP184      0.0152
    123  NE1      -37.7820   16.0340  113.0780 N.ar  184  TRP184     -0.2442
    124  CE2      -38.0820   14.8480  112.4750 C.ar  184  TRP184      0.0810
    125  CE3      -39.9340   13.2870  112.3990 C.ar  184  TRP184      0.0012
    126  CZ2      -37.3190   14.0630  111.5930 C.ar  184  TRP184      0.0191
    127  CZ3      -39.1810   12.5060  111.5140 C.ar  184  TRP184      0.0001
    128  CH2      -37.8820   12.9030  111.1250 C.ar  184  TRP184      0.0015
    129  N        -44.5980   16.5550  110.8220 N.3   187  LEU187     -0.1245
    130  CA       -43.9460   15.4240  110.1560 C.3   187  LEU187      0.1561
    131  C        -44.5110   14.0330  110.5840 C.2   187  LEU187      0.2260
    132  O        -44.7000   13.1380  109.7560 O.2   187  LEU187     -0.2867
    133  CB       -42.4300   15.4810  110.3830 C.3   187  LEU187      0.0270
    134  CG       -41.7160   16.7270  109.8780 C.3   187  LEU187      0.0019
    135  CD1      -40.2390   16.7320  110.2730 C.3   187  LEU187      0.0001
    136  CD2      -41.8460   16.8780  108.3810 C.3   187  LEU187      0.0001
    137  N        -40.5990   19.5880  102.1730 N.3   213  GLU213     -0.1231
    138  CA       -39.6820   18.4740  102.4260 C.3   213  GLU213      0.1699
    139  C        -40.4640   17.3300  103.0670 C.2   213  GLU213      0.2592
    140  O        -41.6660   17.4520  103.3020 O.2   213  GLU213     -0.2718
    141  CB       -38.4870   18.9090  103.3180 C.3   213  GLU213      0.0402
    142  CG       -38.8540   19.2700  104.7610 C.3   213  GLU213      0.1161
    143  CD       -37.6620   19.6740  105.6310 C.2   213  GLU213      0.3649
    144  OE1      -36.5060   19.3580  105.2670 O.co2 213  GLU213     -0.2457
    145  OE2      -37.8840   20.3110  106.6980 O.co2 213  GLU213     -0.2457
    146  N        -39.7740   16.2240  103.3510 N.am  214  GLY214     -0.1957
    147  CA       -40.3670   15.0620  104.0250 C.3   214  GLY214      0.1869
    148  C        -39.7920   14.8260  105.4230 C.2   214  GLY214      0.2309
    149  O        -38.8610   15.5220  105.8210 O.2   214  GLY214     -0.2863
    150  N        -37.3630   13.7150  107.6680 N.3   216  GLY216     -0.1210
    151  CA       -35.9520   13.2900  107.6590 C.3   216  GLY216      0.1956
    152  C        -35.2650   13.3040  106.2940 C.2   216  GLY216      0.2612
    153  O        -34.2310   12.6610  106.1330 O.2   216  GLY216     -0.2717
    154  N        -35.8770   13.9430  105.2890 N.am  217  PHE217     -0.1962
    155  CA       -35.2920   13.9740  103.9420 C.3   217  PHE217      0.1771
    156  C        -35.6990   15.1970  103.0890 C.2   217  PHE217      0.2619
    157  O        -36.7960   15.7300  103.2490 O.2   217  PHE217     -0.2715
    158  CB       -35.5570   12.6680  103.1680 C.3   217  PHE217      0.0574
    159  CG       -36.9900   12.4460  102.7770 C.ar  217  PHE217     -0.0200
    160  CD1      -37.4770   12.8970  101.5480 C.ar  217  PHE217     -0.0042
    161  CD2      -37.8510   11.7100  103.6010 C.ar  217  PHE217     -0.0042
    162  CE1      -38.7990   12.6520  101.1640 C.ar  217  PHE217     -0.0003
    163  CE2      -39.1810   11.4730  103.2200 C.ar  217  PHE217     -0.0003
    164  CZ       -39.6480   11.9380  102.0140 C.ar  217  PHE217     -0.0000
    165  N        -34.8030   15.5820  102.1720 N.am  218  ASN218     -0.1972
    166  CA       -35.0900   16.5560  101.1380 C.3   218  ASN218      0.1688
    167  C        -35.5480   15.8490   99.8450 C.2   218  ASN218      0.2292
    168  O        -35.2050   14.6840   99.5960 O.2   218  ASN218     -0.2864
    169  CB       -33.8370   17.3790  100.8160 C.3   218  ASN218      0.1181
    170  CG       -33.3800   18.2610  101.9580 C.2   218  ASN218      0.2629
    171  OD1      -32.3360   18.0140  102.5690 O.2   218  ASN218     -0.2716
    172  ND2      -34.1810   19.2470  102.2940 N.am  218  ASN218     -0.0877
    173  N        -34.8270   21.8830  105.1850 N.3   235  LEU235     -0.1245
    174  CA       -33.5190   21.9250  105.7870 C.3   235  LEU235      0.1561
    175  C        -32.4610   22.0340  104.6890 C.2   235  LEU235      0.2260
    176  O        -32.5490   21.3390  103.6950 O.2   235  LEU235     -0.2867
    177  CB       -33.2670   20.6590  106.5950 C.3   235  LEU235      0.0270
    178  CG       -31.9260   20.6340  107.3590 C.3   235  LEU235      0.0019
    179  CD1      -32.0380   21.4860  108.6270 C.3   235  LEU235      0.0001
    180  CD2      -31.4940   19.2030  107.6600 C.3   235  LEU235      0.0001
    181  N        -29.8050   20.5540  103.5740 N.3   237  GLY237     -0.1210
    182  CA       -29.2100   19.2440  103.7990 C.3   237  GLY237      0.1956
    183  C        -27.8150   19.1630  103.2630 C.2   237  GLY237      0.2612
    184  O        -27.5070   19.7500  102.2320 O.2   237  GLY237     -0.2717
    185  N        -26.9740   18.4000  103.9580 N.am  238  ILE238     -0.1965
    186  CA       -25.5950   18.0950  103.5060 C.3   238  ILE238      0.1727
    187  C        -25.6460   17.0980  102.3360 C.2   238  ILE238      0.2617
    188  O        -24.8340   17.1740  101.4090 O.2   238  ILE238     -0.2715
    189  CB       -24.7010   17.5620  104.6710 C.3   238  ILE238      0.0290
    190  CG1      -24.7030   18.5550  105.8700 C.3   238  ILE238      0.0022
    191  CG2      -23.2860   17.2630  104.1980 C.3   238  ILE238      0.0023
    192  CD1      -24.2320   19.9490  105.5530 C.3   238  ILE238      0.0001
    193  N        -26.5880   16.1540  102.3860 N.am  239  THR239     -0.1937
    194  CA       -26.7800   15.2150  101.2650 C.3   239  THR239      0.2028
    195  C        -27.2760   15.9580  100.0140 C.2   239  THR239      0.2642
    196  O        -26.7860   15.7010   98.9060 O.2   239  THR239     -0.2714
    197  CB       -27.7270   14.0460  101.6180 C.3   239  THR239      0.1808
    198  OG1      -27.4320   13.5830  102.9330 O.3   239  THR239     -0.2208
    199  CG2      -27.5240   12.8750  100.6440 C.3   239  THR239      0.0379
    200  N        -28.2410   16.8550  100.2110 N.am  240  ARG240     -0.1977
    201  CA       -28.7420   17.7220   99.1280 C.3   240  ARG240      0.1597
    202  C        -27.6070   18.4860   98.4610 C.2   240  ARG240      0.2287
    203  O        -27.5130   18.5270   97.2320 O.2   240  ARG240     -0.2864
    204  CB       -29.7790   18.7340   99.6570 C.3   240  ARG240      0.0334
    205  CG       -30.4640   19.5680   98.5590 C.3   240  ARG240      0.0492
    206  CD       -31.3550   20.6720   99.1260 C.3   240  ARG240      0.2205
    207  NE       -30.6040   21.8340   99.6230 N.pl3 240  ARG240     -0.0865
    208  CZ       -31.1370   22.8580  100.2880 C.cat 240  ARG240      0.5346
    209  NH1      -32.4320   22.9050  100.5610 N.pl3 240  ARG240      0.1354
    210  NH2      -30.3550   23.8440  100.6990 N.pl3 240  ARG240      0.1354
    211  N        -33.2090   12.3320   99.3460 N.3   273  CYS273     -0.1221
    212  CA       -31.8550   12.2700   99.9310 C.3   273  CYS273      0.1808
    213  C        -31.7960   12.6600  101.4240 C.2   273  CYS273      0.2602
    214  O        -32.5780   13.4910  101.9110 O.2   273  CYS273     -0.2717
    215  CB       -30.8680   13.1210   99.1370 C.3   273  CYS273      0.0970
    216  SG       -31.2070   14.9150   99.1170 S.3   273  CYS273     -0.0800
    217  N        -30.8660   12.0180  102.1330 N.am  274  SER274     -0.1938
    218  CA       -30.6810   12.1960  103.5830 C.3   274  SER274      0.2055
    219  C        -29.3820   11.5150  104.0430 C.2   274  SER274      0.2644
    220  O        -28.9350   10.5460  103.4120 O.2   274  SER274     -0.2714
    221  CB       -31.8470   11.5850  104.3530 C.3   274  SER274      0.2130
    222  OG       -31.6810   11.6940  105.7680 O.3   274  SER274     -0.2179
    223  N        -28.7840   12.0100  105.1330 N.am  275  THR275     -0.1936
    224  CA       -27.6870   11.2840  105.7960 C.3   275  THR275      0.2028
    225  C        -28.1120    9.8340  106.1500 C.2   275  THR275      0.2642
    226  O        -27.2970    8.8940  106.0580 O.2   275  THR275     -0.2714
    227  CB       -27.1430   12.0330  107.0420 C.3   275  THR275      0.1808
    228  OG1      -26.5020   13.2260  106.6170 O.3   275  THR275     -0.2208
    229  CG2      -26.0740   11.2090  107.8130 C.3   275  THR275      0.0379
    230  N        -29.3780    9.6760  106.5390 N.am  276  GLY276     -0.1954
    231  CA       -29.9400    8.3800  106.8400 C.3   276  GLY276      0.1869
    232  C        -30.3840    7.5360  105.6680 C.2   276  GLY276      0.2309
    233  O        -31.5600    7.2180  105.5330 O.2   276  GLY276     -0.2863
@<TRIPOS>BOND
     1   203   202    2
     2   202   201    1
     3   205   206    1
     4   205   204    1
     5   196   195    2
     6   216   215    1
     7   206   207    1
     8   201   204    1
     9   201   200    1
    10   215   212    1
    11   211   212    1
    12   168   167    2
    13   207   208    2
    14   167   166    1
    15   212   213    1
    16   195   200   am
    17   195   194    1
    18   208   209    1
    19   208   210    1
    20   199   197    1
    21   169   166    1
    22   169   170    1
    23   166   165    1
    24   162   160   ar
    25   162   164   ar
    26   194   197    1
    27   194   193    1
    28   188   187    2
    29   213   214    2
    30   213   217   am
    31   160   159   ar
    32   197   198    1
    33   170   172   am
    34   170   171    2
    35   164   163   ar
    36   217   218    1
    37   165   156   am
    38   137   138    1
    39   184   183    2
    40   187   193   am
    41   187   186    1
    42   138   139    1
    43   138   141    1
    44    70    71   ar
    45    70    68   ar
    46   159   158    1
    47   159   161   ar
    48   139   140    2
    49   139   146   am
    50   156   157    2
    51   156   155    1
    52    71    69   ar
    53   158   155    1
    54   163   161   ar
    55   183   182    1
    56   183   185   am
    57   141   142    1
    58   146   147    1
    59   220   219    2
    60    68    65   ar
    61   186   185    1
    62   186   189    1
    63   181   182    1
    64   218   219    1
    65   218   221    1
    66   176   175    2
    67   155   154    1
    68   147   148    1
    69   219   223   am
    70    78    76    1
    71   191   189    1
    72    69    67   ar
    73   221   222    1
    74    65    67   ar
    75    65    63   ar
    76   189   190    1
    77   175   174    1
    78   142   143    1
    79    74    75    2
    80    74    73    1
    81    67    66   ar
    82   223   224    1
    83   173   174    1
    84   144   143   ar
    85   154   152   am
    86   148   149    2
    87   233   232    2
    88   192   190    1
    89    63    62    1
    90    63    64   ar
    91    76    77    1
    92    76    73    1
    93   143   145   ar
    94    62    59    1
    95   232   231    1
    96   174   177    1
    97   224   225    1
    98   224   227    1
    99    77    79    1
   100    73    72    1
   101    84    85    1
   102    84    81    1
   103    72    60   am
   104   226   225    2
   105    66    64   ar
   106   153   152    2
   107   225   230   am
   108    80    81    1
   109   152   151    1
   110    59    60    1
   111    59    58    1
   112    60    61    2
   113   230   231    1
   114   177   178    1
   115    85    86    1
   116   228   227    1
   117    81    82    1
   118    86    87    1
   119   227   229    1
   120    83    82    2
   121    39    38    1
   122   178   180    1
   123   178   179    1
   124    28    26   ar
   125    28    29   ar
   126   151   150    1
   127    87    88    2
   128    52    51    2
   129    58    51   am
   130    95    96    1
   131    95    92    1
   132    96    97    1
   133    26    25   ar
   134    29    27   ar
   135    51    50    1
   136    36    37    1
   137    36    35    1
   138   136   134    1
   139    38    37    2
   140    38    40    1
   141    94    93    2
   142    20    21    1
   143    93    92    1
   144    97    91    1
   145    88    90    1
   146    88    89    1
   147    92    91    1
   148    35    34    1
   149    25    27   ar
   150    25    24    1
   151    48    47    1
   152    34    31    1
   153   106   105    1
   154    21    24    1
   155    21    22    1
   156    50    49    1
   157    50    53    1
   158   132   131    2
   159   134   135    1
   160   134   133    1
   161    16    15    2
   162    47    46    1
   163   130   133    1
   164   130   131    1
   165   130   129    1
   166    31    30    1
   167    31    32    1
   168   105   104    1
   169    53    54    1
   170   104   103    1
   171    22    23    2
   172   128   127   ar
   173   128   126   ar
   174    15    14    1
   175    46    45    1
   176   127   125   ar
   177   126   124   ar
   178    54    55    1
   179    32    33    2
   180    98    99    1
   181   103   102    1
   182    17    19    1
   183    17    14    1
   184    17    18    1
   185   102    99    1
   186    57    55   am
   187    99   100    1
   188   125   122   ar
   189    14    13    1
   190    55    56    2
   191   124   122   ar
   192   124   123   ar
   193    41    42    1
   194    42    45    1
   195    42    43    1
   196   122   120   ar
   197   123   121   ar
   198    12    11    1
   199   114   112   am
   200   118   117    2
   201   100   107   am
   202   100   101    2
   203   120   121   ar
   204   120   119    1
   205   107   108    1
   206    43    44    2
   207     4     3    2
   208    11    10   ar
   209    11     9   ar
   210    10     8   ar
   211   117   116    1
   212   116   119    1
   213   116   115    1
   214   112   113    2
   215   112   111    1
   216   110   109    2
   217     9     7   ar
   218     3     2    1
   219     8     6   ar
   220   108   111    1
   221   108   109    1
   222     7     6   ar
   223     6     5    1
   224     2     1    1
   225     2     5    1
