@<TRIPOS>MOLECULE
tmp/5fraA00.pdb
 98 91 0 0 0
SMALL
GASTEIGER

@<TRIPOS>ATOM
      1  N         67.3520    9.4860   -3.6080 N.3    54  ILE54      -0.1245
      2  CA        68.6030    8.9280   -3.0870 C.3    54  ILE54       0.1561
      3  C         69.0440    9.8460   -1.9800 C.2    54  ILE54       0.2260
      4  O         69.2580   11.0430   -2.1680 O.2    54  ILE54      -0.2867
      5  CB        69.7260    8.8210   -4.1710 C.3    54  ILE54       0.0252
      6  CG1       69.3530    7.7800   -5.2180 C.3    54  ILE54       0.0019
      7  CG2       71.0640    8.4440   -3.5450 C.3    54  ILE54       0.0019
      8  CD1       70.0920    7.9270   -6.5360 C.3    54  ILE54       0.0001
      9  N         83.5760   13.6060   -7.2330 N.3    67  ASN67      -0.1240
     10  CA        83.3070   12.1540   -7.2750 C.3    67  ASN67       0.1653
     11  C         84.2380   11.2910   -6.3920 C.2    67  ASN67       0.2266
     12  O         84.2640   10.0900   -6.5480 O.2    67  ASN67      -0.2867
     13  CB        83.4040   11.6280   -8.7170 C.3    67  ASN67       0.1155
     14  CG        82.4680   12.3200   -9.6690 C.2    67  ASN67       0.2627
     15  OD1       81.3590   12.6800   -9.3260 O.2    67  ASN67      -0.2716
     16  ND2       82.9230   12.4630  -10.9050 N.am   67  ASN67      -0.0877
     17  N         73.5370    4.7930    1.0960 N.3    73  TYR73      -0.1241
     18  CA        72.3030    5.5020    0.7840 C.3    73  TYR73       0.1605
     19  C         71.0590    4.6590    0.8210 C.2    73  TYR73       0.2264
     20  O         71.0910    3.4180    0.7780 O.2    73  TYR73      -0.2867
     21  CB        72.4030    6.1650   -0.5770 C.3    73  TYR73       0.0534
     22  CG        72.3090    5.2530   -1.7670 C.ar   73  TYR73      -0.0201
     23  CD1       71.0540    4.8920   -2.2890 C.ar   73  TYR73      -0.0009
     24  CD2       73.4580    4.7410   -2.3920 C.ar   73  TYR73      -0.0009
     25  CE1       70.9430    4.0450   -3.3770 C.ar   73  TYR73       0.0417
     26  CE2       73.3730    3.8930   -3.4650 C.ar   73  TYR73       0.0417
     27  CZ        72.1070    3.5800   -3.9900 C.ar   73  TYR73       0.1957
     28  OH        71.9980    2.7440   -5.0790 O.3    73  TYR73      -0.2866
     29  N         77.6740    3.4680   -2.7880 N.3    82  GLU82      -0.1245
     30  CA        78.6900    3.7080   -3.8530 C.3    82  GLU82       0.1567
     31  C         80.0050    4.0550   -3.2470 C.2    82  GLU82       0.2260
     32  O         80.0550    4.6700   -2.1870 O.2    82  GLU82      -0.2867
     33  CB        78.3420    4.8570   -4.8430 C.3    82  GLU82       0.0388
     34  CG        76.9950    5.4780   -4.8830 C.3    82  GLU82       0.1160
     35  CD        76.9900    6.7320   -5.7250 C.2    82  GLU82       0.3649
     36  OE1       77.4150    6.7060   -6.8750 O.co2  82  GLU82      -0.2457
     37  OE2       76.5650    7.7630   -5.2380 O.co2  82  GLU82      -0.2457
     38  N         83.5280    5.6840   -4.8690 N.3    84  ARG84      -0.1245
     39  CA        84.1380    6.3280   -6.0040 C.3    84  ARG84       0.1563
     40  C         85.3400    7.1430   -5.5480 C.2    84  ARG84       0.2260
     41  O         85.3860    7.7050   -4.4420 O.2    84  ARG84      -0.2867
     42  CB        83.1540    7.2280   -6.7130 C.3    84  ARG84       0.0307
     43  CG        81.8110    6.6320   -7.0330 C.3    84  ARG84       0.0489
     44  CD        80.8080    7.7090   -7.4630 C.3    84  ARG84       0.2205
     45  NE        81.0920    8.1720   -8.8100 N.pl3  84  ARG84      -0.0865
     46  CZ        80.5200    9.2030   -9.4010 C.cat  84  ARG84       0.5346
     47  NH1       79.6450    9.9630   -8.7600 N.pl3  84  ARG84       0.1354
     48  NH2       80.8380    9.4920  -10.6450 N.pl3  84  ARG84       0.1354
     49  N         85.0930   16.0660  -14.3880 N.3    93  GLN93      -0.1245
     50  CA        84.9290   14.6190  -14.2530 C.3    93  GLN93       0.1566
     51  C         86.2530   13.8900  -14.3640 C.2    93  GLN93       0.2260
     52  O         86.3360   12.7040  -14.0820 O.2    93  GLN93      -0.2867
     53  CB        83.9800   14.1000  -15.3000 C.3    93  GLN93       0.0367
     54  CG        82.5890   14.7080  -15.2030 C.3    93  GLN93       0.0905
     55  CD        81.8600   14.3330  -13.9260 C.2    93  GLN93       0.2608
     56  OE1       81.8190   13.1620  -13.5460 O.2    93  GLN93      -0.2717
     57  NE2       81.3250   15.3290  -13.2230 N.am   93  GLN93      -0.0878
     58  N         79.3390    0.0280   -7.0000 N.3   101  HIS101     -0.1241
     59  CA        77.9790    0.4370   -6.7420 C.3   101  HIS101      0.1621
     60  C         77.1300   -0.8200   -6.5080 C.2   101  HIS101      0.2264
     61  O         76.8150   -1.5650   -7.4340 O.2   101  HIS101     -0.2867
     62  CB        77.4010    1.2740   -7.8760 C.3   101  HIS101      0.0745
     63  CG        76.0440    1.8480   -7.5580 C.ar  101  HIS101      0.0817
     64  ND1       75.1770    2.2870   -8.5350 N.ar  101  HIS101     -0.2268
     65  CD2       75.3860    1.9890   -6.3820 C.ar  101  HIS101      0.1154
     66  CE1       74.0470    2.6820   -7.9830 C.ar  101  HIS101      0.1986
     67  NE2       74.1400    2.5000   -6.6730 N.ar  101  HIS101     -0.2212
     68  N         80.2710   17.2460   -1.2640 N.3   161  ARG161     -0.1245
     69  CA        80.9090   17.1790   -2.5690 C.3   161  ARG161      0.1563
     70  C         81.2140   18.5480   -3.1430 C.2   161  ARG161      0.2260
     71  O         80.6510   19.5470   -2.7540 O.2   161  ARG161     -0.2867
     72  CB        80.0460   16.4050   -3.5720 C.3   161  ARG161      0.0307
     73  CG        79.6730   14.9850   -3.1320 C.3   161  ARG161      0.0489
     74  CD        78.5910   14.4570   -4.0510 C.3   161  ARG161      0.2205
     75  NE        79.1210   14.1750   -5.3690 N.pl3 161  ARG161     -0.0865
     76  CZ        78.4150   13.7110   -6.3720 C.cat 161  ARG161      0.5346
     77  NH1       77.1170   13.4290   -6.2190 N.pl3 161  ARG161      0.1354
     78  NH2       79.0110   13.4430   -7.5240 N.pl3 161  ARG161      0.1354
     79  N         75.1180   16.7360   -6.4290 N.3   166  ASN166     -0.1240
     80  CA        74.0280   16.2390   -5.5910 C.3   166  ASN166      0.1653
     81  C         74.6300   15.6400   -4.2770 C.2   166  ASN166      0.2266
     82  O         75.4100   14.6950   -4.3170 O.2   166  ASN166     -0.2867
     83  CB        73.2060   15.2160   -6.3350 C.3   166  ASN166      0.1155
     84  CG        71.9740   14.7770   -5.5750 C.2   166  ASN166      0.2627
     85  OD1       71.6860   15.2650   -4.4850 O.2   166  ASN166     -0.2716
     86  ND2       71.2840   13.8040   -6.1230 N.am  166  ASN166     -0.0877
     87  N         72.7930   14.4500   -1.8910 N.3   168  TYR168     -0.1241
     88  CA        71.8900   13.3450   -1.4630 C.3   168  TYR168      0.1605
     89  C         71.3920   13.5870   -0.0080 C.2   168  TYR168      0.2264
     90  O         71.4380   12.6970    0.8540 O.2   168  TYR168     -0.2867
     91  CB        72.6260   11.9990   -1.5180 C.3   168  TYR168      0.0534
     92  CG        73.4320   11.7310   -2.7500 C.ar  168  TYR168     -0.0201
     93  CD1       72.8080   11.5600   -3.9900 C.ar  168  TYR168     -0.0009
     94  CD2       74.8160   11.4890   -2.6650 C.ar  168  TYR168     -0.0009
     95  CE1       73.5460   11.2200   -5.0910 C.ar  168  TYR168      0.0417
     96  CE2       75.5500   11.1660   -3.7640 C.ar  168  TYR168      0.0417
     97  CZ        74.9080   11.0260   -4.9710 C.ar  168  TYR168      0.1957
     98  OH        75.6370   10.7090   -6.0890 O.3   168  TYR168     -0.2866
@<TRIPOS>BOND
     1    53    54    1
     2    53    50    1
     3    54    55    1
     4    49    50    1
     5    51    50    1
     6    51    52    2
     7    55    56    2
     8    55    57   am
     9    16    14   am
    10    48    46    1
    11    14    15    2
    12    14    13    1
    13    46    45    2
    14    46    47    1
    15    45    44    1
    16    13    10    1
    17    64    66   ar
    18    64    63   ar
    19    66    67   ar
    20    62    63    1
    21    62    59    1
    22    63    65   ar
    23    78    76    1
    24    44    43    1
    25    61    60    2
    26    10     9    1
    27    10    11    1
    28    43    42    1
    29    58    59    1
    30    36    35   ar
    31    59    60    1
    32    42    39    1
    33    67    65   ar
    34    12    11    2
    35     8     6    1
    36    79    80    1
    37    76    77    1
    38    76    75    2
    39    83    80    1
    40    83    84    1
    41    86    84   am
    42    98    97    1
    43    39    40    1
    44    39    38    1
    45    35    37   ar
    46    35    34    1
    47    80    81    1
    48    84    85    2
    49    40    41    2
    50    75    74    1
    51     6     5    1
    52    95    97   ar
    53    95    93   ar
    54    28    27    1
    55    97    96   ar
    56    34    33    1
    57    33    30    1
    58    82    81    2
    59     5     7    1
    60     5     2    1
    61    74    73    1
    62    93    92   ar
    63    27    26   ar
    64    27    25   ar
    65    30    31    1
    66    30    29    1
    67    96    94   ar
    68     1     2    1
    69    72    73    1
    70    72    69    1
    71    26    24   ar
    72    25    23   ar
    73    31    32    2
    74    70    71    2
    75    70    69    1
    76     2     3    1
    77    92    94   ar
    78    92    91    1
    79    69    68    1
    80    24    22   ar
    81    23    22   ar
    82     4     3    2
    83    87    88    1
    84    22    21    1
    85    91    88    1
    86    88    89    1
    87    21    18    1
    88    89    90    2
    89    20    19    2
    90    18    19    1
    91    18    17    1
