@<TRIPOS>MOLECULE
tmp/5frdA00.pdb
 197 189 0 0 0
SMALL
GASTEIGER

@<TRIPOS>ATOM
      1  N          6.5280   -0.4310    3.2750 N.3    89  SER89      -0.1217
      2  CA         6.6360   -1.8460    2.8770 C.3    89  SER89       0.1889
      3  C          8.0990   -2.3210    2.7800 C.2    89  SER89       0.2288
      4  O          8.7580   -2.2830    3.8160 O.2    89  SER89      -0.2866
      5  CB         5.7830   -2.1040    1.6360 C.3    89  SER89       0.2089
      6  OG         5.3910   -3.4890    1.5850 O.3    89  SER89      -0.2183
      7  N          6.3810   -4.3100    8.1050 N.3   115  GLY115     -0.1210
      8  CA         6.3590   -5.3930    9.0750 C.3   115  GLY115      0.1956
      9  C          7.7570   -5.7780    9.4800 C.2   115  GLY115      0.2612
     10  O          8.7540   -5.4400    8.8140 O.2   115  GLY115     -0.2717
     11  N          7.8350   -6.5050   10.5780 N.am  116  ALA116     -0.1965
     12  CA         9.0950   -7.1000   11.0450 C.3   116  ALA116      0.1728
     13  C          9.5080   -8.3420   10.2760 C.2   116  ALA116      0.2616
     14  O         10.6440   -8.7810   10.3550 O.2   116  ALA116     -0.2715
     15  CB         8.9800   -7.4250   12.5240 C.3   116  ALA116      0.0334
     16  N          8.5960   -8.8780    9.4860 N.am  117  ARG117     -0.1963
     17  CA         8.7960  -10.0130    8.6110 C.3   117  ARG117      0.1729
     18  C          7.8390   -9.8110    7.4390 C.2   117  ARG117      0.2616
     19  O          6.6610   -9.4340    7.6600 O.2   117  ARG117     -0.2715
     20  CB         8.4630  -11.3200    9.3330 C.3   117  ARG117      0.0348
     21  CG         8.7660  -12.5690    8.5160 C.3   117  ARG117      0.0492
     22  CD         8.2280  -13.8210    9.1950 C.3   117  ARG117      0.2205
     23  NE         9.0680  -14.1960   10.3320 N.pl3 117  ARG117     -0.0865
     24  CZ         8.8380  -15.2410   11.1230 C.cat 117  ARG117      0.5346
     25  NH1        7.7650  -16.0050   10.9520 N.pl3 117  ARG117      0.1354
     26  NH2        9.6810  -15.4850   12.1240 N.pl3 117  ARG117      0.1354
     27  N          8.3360  -10.0330    6.2190 N.am  118  LEU118     -0.1963
     28  CA         7.5660   -9.6880    5.0140 C.3   118  LEU118      0.1728
     29  C          7.4880  -10.8290    4.0200 C.2   118  LEU118      0.2616
     30  O          7.7030  -10.6640    2.8100 O.2   118  LEU118     -0.2715
     31  CB         8.1410   -8.4110    4.3870 C.3   118  LEU118      0.0311
     32  CG         7.9740   -7.1260    5.2080 C.3   118  LEU118      0.0022
     33  CD1        8.7330   -5.9890    4.5390 C.3   118  LEU118      0.0001
     34  CD2        6.5030   -6.7420    5.3700 C.3   118  LEU118      0.0001
     35  N          7.0930  -11.9970    4.5130 N.am  119  ARG119     -0.1963
     36  CA         6.8120  -13.0950    3.6200 C.3   119  ARG119      0.1729
     37  C          5.7880  -12.6800    2.5510 C.2   119  ARG119      0.2616
     38  O          4.8280  -11.9610    2.8370 O.2   119  ARG119     -0.2715
     39  CB         6.2700  -14.2930    4.4040 C.3   119  ARG119      0.0348
     40  CG         7.3200  -15.0090    5.2530 C.3   119  ARG119      0.0492
     41  CD         8.3540  -15.8000    4.4420 C.3   119  ARG119      0.2205
     42  NE         7.7530  -16.5550    3.3570 N.pl3 119  ARG119     -0.0865
     43  CZ         6.9810  -17.6320    3.5010 C.cat 119  ARG119      0.5346
     44  NH1        6.7490  -18.1500    4.6990 N.pl3 119  ARG119      0.1354
     45  NH2        6.4320  -18.1900    2.4160 N.pl3 119  ARG119      0.1354
     46  N          6.0070  -13.1670    1.3380 N.am  120  VAL120     -0.1963
     47  CA         5.1480  -12.8740    0.2100 C.3   120  VAL120      0.1727
     48  C          4.3530  -14.1250   -0.2180 C.2   120  VAL120      0.2616
     49  O          4.9220  -15.2090   -0.3630 O.2   120  VAL120     -0.2715
     50  CB         5.9760  -12.3450   -0.9660 C.3   120  VAL120      0.0290
     51  CG1        5.0800  -12.0110   -2.1540 C.3   120  VAL120      0.0023
     52  CG2        6.8060  -11.1330   -0.5400 C.3   120  VAL120      0.0023
     53  N          3.0700  -13.9330   -0.4410 N.am  121  LEU121     -0.1964
     54  CA         2.2060  -15.0200   -0.9240 C.3   121  LEU121      0.1713
     55  C          2.8480  -15.6900   -2.1120 C.2   121  LEU121      0.2458
     56  O          3.1610  -15.0210   -3.0900 O.2   121  LEU121     -0.2730
     57  CB         0.8740  -14.4810   -1.3960 C.3   121  LEU121      0.0310
     58  CG        -0.2070  -14.1380   -0.3930 C.3   121  LEU121      0.0022
     59  CD1       -1.3260  -13.3860   -1.0960 C.3   121  LEU121      0.0001
     60  CD2       -0.7120  -15.3970    0.3000 C.3   121  LEU121      0.0001
     61  N          3.0730  -17.0300   -2.0480 N.am  122  PRO122     -0.2727
     62  CA         3.6380  -17.7150   -3.2080 C.3   122  PRO122      0.1402
     63  C          2.8770  -17.5140   -4.5260 C.2   122  PRO122      0.2269
     64  O          3.4850  -17.3640   -5.5850 O.2   122  PRO122     -0.2865
     65  CB         3.6210  -19.1760   -2.7740 C.3   122  PRO122      0.0296
     66  CG         3.8840  -19.0860   -1.3170 C.3   122  PRO122      0.0237
     67  CD         3.0620  -17.9070   -0.8630 C.3   122  PRO122      0.0939
     68  N          1.6630  -14.7640   -5.5440 N.3   124  ILE124     -0.1245
     69  CA         2.2120  -13.5240   -6.1080 C.3   124  ILE124      0.1561
     70  C          3.6280  -13.8110   -6.5660 C.2   124  ILE124      0.2260
     71  O          3.9620  -13.5840   -7.7110 O.2   124  ILE124     -0.2867
     72  CB         2.1840  -12.3430   -5.0880 C.3   124  ILE124      0.0252
     73  CG1        0.7420  -11.9610   -4.6820 C.3   124  ILE124      0.0019
     74  CG2        2.9090  -11.1080   -5.6550 C.3   124  ILE124      0.0019
     75  CD1        0.5920  -10.9860   -3.5210 C.3   124  ILE124      0.0001
     76  N         -1.8630   -8.9740   -6.1500 N.3   139  MET139     -0.1245
     77  CA        -1.1590   -8.0620   -5.2390 C.3   139  MET139      0.1570
     78  C         -1.8960   -6.7340   -5.1080 C.2   139  MET139      0.2261
     79  O         -2.1030   -6.1980   -4.0160 O.2   139  MET139     -0.2867
     80  CB         0.2560   -7.8450   -5.7100 C.3   139  MET139      0.0387
     81  CG         1.0610   -6.9900   -4.7510 C.3   139  MET139      0.0595
     82  SD         2.7560   -6.9180   -5.2920 S.3   139  MET139     -0.1393
     83  CE         3.3800   -5.6940   -4.1170 C.3   139  MET139      0.0692
     84  N         -4.9980   -6.4020   -2.9750 N.3   142  MET142     -0.1245
     85  CA        -4.6680   -6.3820   -1.5580 C.3   142  MET142      0.1570
     86  C         -4.0120   -5.0670   -1.1150 C.2   142  MET142      0.2261
     87  O         -3.7080   -4.9020    0.0700 O.2   142  MET142     -0.2867
     88  CB        -3.7140   -7.5390   -1.2740 C.3   142  MET142      0.0387
     89  CG        -4.3530   -8.9110   -1.5260 C.3   142  MET142      0.0595
     90  SD        -3.2190  -10.3010   -1.5070 S.3   142  MET142     -0.1393
     91  CE        -2.9360  -10.4250    0.2390 C.3   142  MET142      0.0692
     92  N         10.4770   -8.1640   -4.1630 N.3   169  LEU169     -0.1245
     93  CA         9.6240   -9.0210   -3.3490 C.3   169  LEU169      0.1561
     94  C         10.3960  -10.2210   -2.8280 C.2   169  LEU169      0.2260
     95  O         10.0990  -10.6960   -1.7320 O.2   169  LEU169     -0.2867
     96  CB         8.3800   -9.4600   -4.1000 C.3   169  LEU169      0.0270
     97  CG         7.3660   -8.3450   -4.3600 C.3   169  LEU169      0.0019
     98  CD1        6.2650   -8.8970   -5.2600 C.3   169  LEU169      0.0001
     99  CD2        6.7590   -7.8120   -3.0840 C.3   169  LEU169      0.0001
    100  N         12.0350   -8.9500    0.2320 N.3   172  CYS172     -0.1235
    101  CA        11.0210   -8.9360    1.2940 C.3   172  CYS172      0.1677
    102  C         10.7950  -10.3150    1.8940 C.2   172  CYS172      0.2270
    103  O         10.7190  -10.4950    3.1380 O.2   172  CYS172     -0.2867
    104  CB         9.6690   -8.4300    0.7840 C.3   172  CYS172      0.0956
    105  SG         9.6110   -6.6790    0.3620 S.3   172  CYS172     -0.0801
    106  N         11.5470  -10.7310   13.2090 N.3   178  LEU178     -0.1245
    107  CA        10.4020  -10.8920   14.1210 C.3   178  LEU178      0.1561
    108  C         10.8570  -11.3540   15.5290 C.2   178  LEU178      0.2260
    109  O         10.4780  -10.7520   16.5280 O.2   178  LEU178     -0.2867
    110  CB         9.3940  -11.8600   13.5060 C.3   178  LEU178      0.0270
    111  CG         8.0280  -12.0040   14.1580 C.3   178  LEU178      0.0019
    112  CD1        7.2250  -10.7380   13.9530 C.3   178  LEU178      0.0001
    113  CD2        7.2860  -13.2060   13.5680 C.3   178  LEU178      0.0001
    114  N         10.6790   -9.8500   19.3270 N.3   182  ARG182     -0.1245
    115  CA         9.9340  -10.6350   20.3350 C.3   182  ARG182      0.1563
    116  C         10.7680  -10.8890   21.5860 C.2   182  ARG182      0.2260
    117  O         10.2480  -10.8040   22.6880 O.2   182  ARG182     -0.2867
    118  CB         9.4570  -11.9720   19.7430 C.3   182  ARG182      0.0307
    119  CG         8.1130  -11.9240   19.0330 C.3   182  ARG182      0.0489
    120  CD         7.8160  -13.2640   18.3660 C.3   182  ARG182      0.2205
    121  NE         6.4690  -13.3560   17.7910 N.pl3 182  ARG182     -0.0865
    122  CZ         6.0610  -14.2850   16.9200 C.cat 182  ARG182      0.5346
    123  NH1        6.8840  -15.2360   16.4790 N.pl3 182  ARG182      0.1354
    124  NH2        4.8050  -14.2590   16.4750 N.pl3 182  ARG182      0.1354
    125  N         -4.2220   -5.4750    3.1260 N.3   201  LYS201     -0.1231
    126  CA        -4.1300   -6.9320    3.2240 C.3   201  LYS201      0.1693
    127  C         -2.7320   -7.4730    2.9590 C.2   201  LYS201      0.2592
    128  O         -2.4580   -8.6490    3.1980 O.2   201  LYS201     -0.2718
    129  CB        -5.1550   -7.5810    2.2940 C.3   201  LYS201      0.0285
    130  CG        -6.5770   -7.2590    2.7160 C.3   201  LYS201      0.0035
    131  CD        -6.9270   -7.8760    4.0610 C.3   201  LYS201      0.0206
    132  CE        -8.4250   -7.8060    4.3420 C.3   201  LYS201      0.1093
    133  NZ        -8.8880   -6.4260    4.6540 N.3   201  LYS201     -0.1314
    134  N         -1.8250   -6.6340    2.4620 N.am  202  LEU202     -0.1966
    135  CA        -0.4520   -7.0590    2.2600 C.3   202  LEU202      0.1728
    136  C          0.3310   -7.0090    3.5670 C.2   202  LEU202      0.2617
    137  O          1.1560   -7.8740    3.8390 O.2   202  LEU202     -0.2715
    138  CB         0.2410   -6.2150    1.1880 C.3   202  LEU202      0.0311
    139  CG        -0.2610   -6.4180   -0.2430 C.3   202  LEU202      0.0022
    140  CD1        0.3510   -5.3950   -1.1760 C.3   202  LEU202      0.0001
    141  CD2        0.0740   -7.8520   -0.6880 C.3   202  LEU202      0.0001
    142  N          0.1240   -5.9340    4.3250 N.am  203  THR203     -0.1937
    143  CA         0.7740   -5.7380    5.6250 C.3   203  THR203      0.2013
    144  C         -0.3550   -5.2880    6.5490 C.2   203  THR203      0.2484
    145  O         -0.6420   -4.1270    6.6960 O.2   203  THR203     -0.2729
    146  CB         1.9090   -4.6880    5.5530 C.3   203  THR203      0.1807
    147  OG1        1.4380   -3.4780    4.9760 O.3   203  THR203     -0.2208
    148  CG2        3.0630   -5.1830    4.7210 C.3   203  THR203      0.0379
    149  N         -1.0560   -6.2680    7.1420 N.am  204  PRO204     -0.2726
    150  CA        -2.3080   -5.9390    7.8200 C.3   204  PRO204      0.1402
    151  C         -2.1210   -5.3240    9.1990 C.2   204  PRO204      0.2269
    152  O         -0.9870   -5.1230    9.6850 O.2   204  PRO204     -0.2865
    153  CB        -3.0140   -7.2940    7.9010 C.3   204  PRO204      0.0296
    154  CG        -1.9150   -8.2710    7.9120 C.3   204  PRO204      0.0237
    155  CD        -0.8340   -7.7100    7.0400 C.3   204  PRO204      0.0939
    156  N         -2.3440   -6.4020   12.2110 N.3   206  LYS206     -0.1231
    157  CA        -1.5220   -7.0950   13.2040 C.3   206  LYS206      0.1693
    158  C         -0.0380   -6.8310   13.0470 C.2   206  LYS206      0.2592
    159  O          0.6600   -6.8270   14.0370 O.2   206  LYS206     -0.2718
    160  CB        -1.7730   -8.5810   13.2270 C.3   206  LYS206      0.0285
    161  CG        -3.1130   -8.9630   13.8380 C.3   206  LYS206      0.0035
    162  CD        -3.4110  -10.4430   13.5760 C.3   206  LYS206      0.0206
    163  CE        -4.8880  -10.7920   13.8290 C.3   206  LYS206      0.1093
    164  NZ        -5.0600  -12.1460   14.4360 N.3   206  LYS206     -0.1314
    165  N          0.4400   -6.5890   11.8210 N.am  207  TYR207     -0.1976
    166  CA         1.8620   -6.2830   11.6630 C.3   207  TYR207      0.1639
    167  C          2.2000   -4.9570   12.3440 C.2   207  TYR207      0.2290
    168  O          3.3240   -4.7650   12.8590 O.2   207  TYR207     -0.2864
    169  CB         2.2650   -6.1710   10.2110 C.3   207  TYR207      0.0560
    170  CG         2.2790   -7.4320    9.3840 C.ar  207  TYR207     -0.0198
    171  CD1        1.6920   -8.6330    9.8260 C.ar  207  TYR207     -0.0009
    172  CD2        2.8960   -7.4380    8.1300 C.ar  207  TYR207     -0.0009
    173  CE1        1.7060   -9.7890    9.0260 C.ar  207  TYR207      0.0417
    174  CE2        2.9070   -8.5790    7.3270 C.ar  207  TYR207      0.0417
    175  CZ         2.2870   -9.7480    7.7770 C.ar  207  TYR207      0.1957
    176  OH         2.2490  -10.9060    6.9980 O.3   207  TYR207     -0.2866
    177  N          2.0000   -5.1520   16.0800 N.3   210  PHE210     -0.1241
    178  CA         3.2330   -5.8170   16.5530 C.3   210  PHE210      0.1605
    179  C          4.2980   -4.7710   16.8250 C.2   210  PHE210      0.2264
    180  O          4.9090   -4.7400   17.9020 O.2   210  PHE210     -0.2867
    181  CB         3.7190   -6.8440   15.5490 C.3   210  PHE210      0.0534
    182  CG         5.0080   -7.5010   15.9610 C.ar  210  PHE210     -0.0203
    183  CD1        4.9780   -8.6450   16.7310 C.ar  210  PHE210     -0.0042
    184  CD2        6.2300   -6.9700   15.6040 C.ar  210  PHE210     -0.0042
    185  CE1        6.1480   -9.2950   17.1200 C.ar  210  PHE210     -0.0003
    186  CE2        7.4150   -7.5960   16.0140 C.ar  210  PHE210     -0.0003
    187  CZ         7.3720   -8.7490   16.7910 C.ar  210  PHE210     -0.0000
    188  N         -3.0340   -0.6090    1.4760 N.3   228  HIS228     -0.1241
    189  CA        -1.5660   -0.5600    1.5450 C.3   228  HIS228      0.1621
    190  C         -1.0100    0.7390    1.0270 C.2   228  HIS228      0.2264
    191  O         -0.0420    1.2500    1.6080 O.2   228  HIS228     -0.2867
    192  CB        -1.0070   -1.7530    0.7770 C.3   228  HIS228      0.0745
    193  CG         0.4520   -2.0310    0.9550 C.ar  228  HIS228      0.0817
    194  ND1        0.9920   -2.3640    2.1670 N.ar  228  HIS228     -0.2268
    195  CD2        1.4560   -2.1350    0.0540 C.ar  228  HIS228      0.1154
    196  CE1        2.2750   -2.6550    2.0080 C.ar  228  HIS228      0.1986
    197  NE2        2.5900   -2.5030    0.7420 N.ar  228  HIS228     -0.2212
@<TRIPOS>BOND
     1    71    70    2
     2    70    69    1
     3    76    77    1
     4    69    68    1
     5    69    72    1
     6    80    77    1
     7    80    81    1
     8    74    72    1
     9    64    63    2
    10    82    81    1
    11    82    83    1
    12    98    97    1
    13    77    78    1
    14    78    79    2
    15    72    73    1
    16    73    75    1
    17    63    62    1
    18    97    96    1
    19    97    99    1
    20    92    93    1
    21    96    93    1
    22    93    94    1
    23    62    65    1
    24    62    61    1
    25    56    55    2
    26    84    85    1
    27    94    95    2
    28    65    66    1
    29    51    50    1
    30    55    61   am
    31    55    54    1
    32    61    67    1
    33    85    88    1
    34    85    86    1
    35    89    90    1
    36    89    88    1
    37    90    91    1
    38    57    54    1
    39    57    58    1
    40    66    67    1
    41   140   139    1
    42    86    87    2
    43    59    58    1
    44    50    52    1
    45    50    47    1
    46    54    53    1
    47   141   139    1
    48    53    48   am
    49    58    60    1
    50    49    48    2
    51   139   138    1
    52    48    47    1
    53   195   197   ar
    54   195   193   ar
    55    47    46    1
    56   100   101    1
    57   105   104    1
    58   197   196   ar
    59   192   193    1
    60   192   189    1
    61   104   101    1
    62   193   194   ar
    63   190   189    1
    64   190   191    2
    65   138   135    1
    66   101   102    1
    67    46    37   am
    68   188   189    1
    69     6     5    1
    70     5     2    1
    71   102   103    2
    72   196   194   ar
    73   135   134    1
    74   135   136    1
    75   129   130    1
    76   129   126    1
    77    45    43    1
    78   134   127   am
    79    37    38    2
    80    37    36    1
    81   130   131    1
    82     3     2    1
    83     3     4    2
    84    30    29    2
    85     2     1    1
    86   127   128    2
    87   127   126    1
    88   125   126    1
    89    42    43    2
    90    42    41    1
    91    43    44    1
    92   136   137    2
    93   136   142   am
    94    36    39    1
    95    36    35    1
    96    29    35   am
    97    29    28    1
    98   131   132    1
    99   142   143    1
   100   132   133    1
   101    31    28    1
   102    31    32    1
   103    39    40    1
   104    41    40    1
   105    33    32    1
   106   148   146    1
   107   147   146    1
   108    28    27    1
   109    32    34    1
   110   146   143    1
   111   143   144    1
   112    27    18   am
   113   144   145    2
   114   144   149   am
   115   176   175    1
   116   155   149    1
   117   155   154    1
   118   149   150    1
   119   174   175   ar
   120   174   172   ar
   121    18    19    2
   122    18    17    1
   123   175   173   ar
   124   150   153    1
   125   150   151    1
   126   153   154    1
   127     7     8    1
   128   172   170   ar
   129    21    22    1
   130    21    20    1
   131    17    20    1
   132    17    16    1
   133    10     9    2
   134   173   171   ar
   135     8     9    1
   136    22    23    1
   137   151   152    2
   138   170   171   ar
   139   170   169    1
   140     9    11   am
   141    16    13   am
   142   169   166    1
   143    13    14    2
   144    13    12    1
   145    23    24    2
   146    11    12    1
   147    25    24    1
   148    12    15    1
   149    24    26    1
   150   166   165    1
   151   166   167    1
   152   165   158   am
   153   156   157    1
   154   167   168    2
   155   158   157    1
   156   158   159    2
   157   157   160    1
   158   106   107    1
   159   160   161    1
   160   110   107    1
   161   110   111    1
   162   113   111    1
   163   162   163    1
   164   162   161    1
   165   163   164    1
   166   112   111    1
   167   107   108    1
   168   108   109    2
   169   181   182    1
   170   181   178    1
   171   184   182   ar
   172   184   186   ar
   173   182   183   ar
   174   186   187   ar
   175   177   178    1
   176   124   122    1
   177   123   122    1
   178   178   179    1
   179   183   185   ar
   180   187   185   ar
   181   179   180    2
   182   122   121    2
   183   121   120    1
   184   120   119    1
   185   119   118    1
   186   114   115    1
   187   118   115    1
   188   115   116    1
   189   116   117    2
