@<TRIPOS>MOLECULE
tmp/5freA01.pdb
 101 98 0 0 0
SMALL
GASTEIGER

@<TRIPOS>ATOM
      1  N        -14.3470   80.5230   87.1070 N.3     3  TRP3       -0.1227
      2  CA       -13.0210   80.5720   87.7060 C.3     3  TRP3        0.1737
      3  C        -12.2550   81.7480   87.1510 C.2     3  TRP3        0.2595
      4  O        -12.2180   81.9190   85.9430 O.2     3  TRP3       -0.2718
      5  CB       -12.2370   79.2750   87.4130 C.3     3  TRP3        0.0564
      6  CG       -12.7540   78.1080   88.1220 C.ar    3  TRP3        0.0003
      7  CD1      -13.5480   77.1320   87.6200 C.ar    3  TRP3        0.0946
      8  CD2      -12.5370   77.7840   89.5060 C.ar    3  TRP3        0.0152
      9  NE1      -13.8530   76.2190   88.6030 N.ar    3  TRP3       -0.2442
     10  CE2      -13.2290   76.5940   89.7680 C.ar    3  TRP3        0.0810
     11  CE3      -11.7790   78.3710   90.5350 C.ar    3  TRP3        0.0012
     12  CZ2      -13.2210   75.9850   91.0200 C.ar    3  TRP3        0.0191
     13  CZ3      -11.7930   77.7910   91.7660 C.ar    3  TRP3        0.0001
     14  CH2      -12.4940   76.5870   92.0070 C.ar    3  TRP3        0.0015
     15  N        -11.6060   82.5500   87.9930 N.am    4  GLU4       -0.1965
     16  CA       -10.7540   83.5810   87.4520 C.3     4  GLU4        0.1733
     17  C         -9.5840   82.9190   86.7430 C.2     4  GLU4        0.2616
     18  O         -9.0580   83.3980   85.7210 O.2     4  GLU4       -0.2715
     19  CB       -10.2420   84.5250   88.5220 C.3     4  GLU4        0.0429
     20  CG       -11.3010   85.2000   89.3820 C.3     4  GLU4        0.1163
     21  CD       -10.6990   86.1980   90.3860 C.2     4  GLU4        0.3649
     22  OE1       -9.4540   86.2630   90.5660 O.co2   4  GLU4       -0.2457
     23  OE2      -11.4860   86.9350   91.0110 O.co2   4  GLU4       -0.2457
     24  N         -9.1560   81.7910   87.2780 N.am    5  LEU5       -0.1963
     25  CA        -8.0080   81.1030   86.7170 C.3     5  LEU5        0.1728
     26  C         -8.2510   79.6320   86.8440 C.2     5  LEU5        0.2616
     27  O         -8.3640   79.1260   87.9540 O.2     5  LEU5       -0.2715
     28  CB        -6.7280   81.5250   87.4310 C.3     5  LEU5        0.0311
     29  CG        -5.4420   80.7780   87.0650 C.3     5  LEU5        0.0022
     30  CD1       -5.1600   80.9370   85.5790 C.3     5  LEU5        0.0001
     31  CD2       -4.2370   81.2320   87.8730 C.3     5  LEU5        0.0001
     32  N         -8.3590   78.9610   85.6870 N.am    6  LEU6       -0.1977
     33  CA        -8.5210   77.5310   85.6110 C.3     6  LEU6        0.1596
     34  C         -7.3770   76.9360   84.8010 C.2     6  LEU6        0.2287
     35  O         -7.1390   77.3910   83.6710 O.2     6  LEU6       -0.2864
     36  CB        -9.8520   77.2050   84.9710 C.3     6  LEU6        0.0297
     37  CG       -10.1420   75.7570   84.6610 C.3     6  LEU6        0.0022
     38  CD1      -10.3890   74.9230   85.9250 C.3     6  LEU6        0.0001
     39  CD2      -11.3340   75.7140   83.6990 C.3     6  LEU6        0.0001
     40  N         -5.4300   74.5010   82.2750 N.3     8  SER8       -0.1217
     41  CA        -5.8750   73.7480   81.1170 C.3     8  SER8        0.1889
     42  C         -5.8430   72.2710   81.4280 C.2     8  SER8        0.2288
     43  O         -5.0030   71.8170   82.1840 O.2     8  SER8       -0.2866
     44  CB        -4.9600   74.0430   79.9290 C.3     8  SER8        0.2089
     45  OG        -3.6040   73.8760   80.3140 O.3     8  SER8       -0.2183
     46  N         -9.7810   72.8990   77.8280 N.3   177  TYR177     -0.1241
     47  CA       -10.2860   72.9820   79.2130 C.3   177  TYR177      0.1605
     48  C        -11.5110   72.1100   79.3480 C.2   177  TYR177      0.2264
     49  O        -12.2630   71.9370   78.3910 O.2   177  TYR177     -0.2867
     50  CB       -10.6480   74.4160   79.5630 C.3   177  TYR177      0.0534
     51  CG        -9.5350   75.4160   79.4200 C.ar  177  TYR177     -0.0201
     52  CD1       -9.2400   75.9780   78.1930 C.ar  177  TYR177     -0.0009
     53  CD2       -8.7720   75.8190   80.5360 C.ar  177  TYR177     -0.0009
     54  CE1       -8.2240   76.8910   78.0620 C.ar  177  TYR177      0.0417
     55  CE2       -7.7360   76.7210   80.4080 C.ar  177  TYR177      0.0417
     56  CZ        -7.4700   77.2580   79.1580 C.ar  177  TYR177      0.1957
     57  OH        -6.4830   78.1850   78.9950 O.3   177  TYR177     -0.2866
     58  N        -15.2560   78.2750   79.3470 N.3   181  LEU181     -0.1245
     59  CA       -14.6880   79.4890   79.9340 C.3   181  LEU181      0.1561
     60  C        -15.6020   80.6700   79.6590 C.2   181  LEU181      0.2260
     61  O        -16.5230   80.5810   78.8110 O.2   181  LEU181     -0.2867
     62  CB       -13.3090   79.7180   79.3840 C.3   181  LEU181      0.0270
     63  CG       -12.2740   78.6080   79.5970 C.3   181  LEU181      0.0019
     64  CD1      -10.9020   79.1050   79.1200 C.3   181  LEU181      0.0001
     65  CD2      -12.2180   78.1130   81.0510 C.3   181  LEU181      0.0001
     66  N        -13.1180   86.1890   79.0720 N.3   185  TYR185     -0.1241
     67  CA       -11.7640   85.6500   78.9200 C.3   185  TYR185      0.1605
     68  C        -11.4540   85.3450   77.4620 C.2   185  TYR185      0.2264
     69  O        -10.3620   85.6500   76.9730 O.2   185  TYR185     -0.2867
     70  CB       -11.5670   84.3790   79.7740 C.3   185  TYR185      0.0534
     71  CG       -10.2340   83.6920   79.5110 C.ar  185  TYR185     -0.0201
     72  CD1       -9.0660   84.1760   80.0820 C.ar  185  TYR185     -0.0009
     73  CD2      -10.1410   82.6050   78.6500 C.ar  185  TYR185     -0.0009
     74  CE1       -7.8500   83.5900   79.8350 C.ar  185  TYR185      0.0417
     75  CE2       -8.9300   82.0120   78.3780 C.ar  185  TYR185      0.0417
     76  CZ        -7.7800   82.4910   78.9860 C.ar  185  TYR185      0.1957
     77  OH        -6.5710   81.9200   78.7190 O.3   185  TYR185     -0.2866
     78  N        -10.9020   88.4290   75.3000 N.3   188  SER188     -0.1202
     79  CA        -9.5520   88.9820   75.5170 C.3   188  SER188      0.2020
     80  C         -8.4750   88.1050   74.9430 C.2   188  SER188      0.2618
     81  O         -7.5950   88.6020   74.2880 O.2   188  SER188     -0.2717
     82  CB        -9.2080   89.1520   76.9830 C.3   188  SER188      0.2103
     83  OG       -10.2700   89.8430   77.5980 O.3   188  SER188     -0.2182
     84  N         -8.5300   86.8040   75.1980 N.am  189  LYS189     -0.1979
     85  CA        -7.4710   85.9180   74.7560 C.3   189  LYS189      0.1596
     86  C         -7.3860   85.8080   73.2300 C.2   189  LYS189      0.2287
     87  O         -6.2980   85.9320   72.6400 O.2   189  LYS189     -0.2864
     88  CB        -7.6230   84.5490   75.3830 C.3   189  LYS189      0.0298
     89  CG        -6.4730   83.5920   75.0720 C.3   189  LYS189      0.0038
     90  CD        -5.2670   83.9230   75.9240 C.3   189  LYS189      0.0206
     91  CE        -4.0630   83.0820   75.5700 C.3   189  LYS189      0.1093
     92  NZ        -2.9010   83.4520   76.4470 N.3   189  LYS189     -0.1314
     93  N         -5.8960   88.8260   71.3080 N.3   192  GLU192     -0.1245
     94  CA        -4.4660   89.0620   71.1420 C.3   192  GLU192      0.1567
     95  C         -4.0200   89.0950   69.6610 C.2   192  GLU192      0.2260
     96  O         -3.0030   89.7130   69.3670 O.2   192  GLU192     -0.2867
     97  CB        -3.6460   88.0970   72.0200 C.3   192  GLU192      0.0388
     98  CG        -3.6530   88.4670   73.5240 C.3   192  GLU192      0.1160
     99  CD        -3.3880   87.3010   74.5190 C.2   192  GLU192      0.3649
    100  OE1       -2.8070   86.2400   74.1510 O.co2 192  GLU192     -0.2457
    101  OE2       -3.7570   87.4520   75.7260 O.co2 192  GLU192     -0.2457
@<TRIPOS>BOND
     1    96    95    2
     2    95    94    1
     3    94    93    1
     4    94    97    1
     5    97    98    1
     6    87    86    2
     7    86    85    1
     8    98    99    1
     9   100    99   ar
    10    81    80    2
    11    99   101   ar
    12    85    84    1
    13    85    88    1
    14    80    84   am
    15    80    79    1
    16    89    88    1
    17    89    90    1
    18    78    79    1
    19    79    82    1
    20    91    90    1
    21    91    92    1
    22    69    68    2
    23    82    83    1
    24    68    67    1
    25    46    47    1
    26    54    52   ar
    27    54    56   ar
    28    52    51   ar
    29    75    73   ar
    30    75    76   ar
    31    49    48    2
    32    73    71   ar
    33    77    76    1
    34    61    60    2
    35    67    66    1
    36    67    70    1
    37    76    74   ar
    38    57    56    1
    39    64    63    1
    40    56    55   ar
    41    47    48    1
    42    47    50    1
    43    58    59    1
    44    62    63    1
    45    62    59    1
    46    51    50    1
    47    51    53   ar
    48    71    70    1
    49    71    72   ar
    50    63    65    1
    51    60    59    1
    52    74    72   ar
    53    44    45    1
    54    44    41    1
    55    55    53   ar
    56    41    42    1
    57    41    40    1
    58    42    43    2
    59    35    34    2
    60    39    37    1
    61    37    36    1
    62    37    38    1
    63    34    33    1
    64    36    33    1
    65    30    29    1
    66    33    32    1
    67    32    26   am
    68    18    17    2
    69     4     3    2
    70    25    26    1
    71    25    24    1
    72    25    28    1
    73    17    24   am
    74    17    16    1
    75    26    27    2
    76    29    28    1
    77    29    31    1
    78     1     2    1
    79     3     2    1
    80     3    15   am
    81     5     2    1
    82     5     6    1
    83    16    15    1
    84    16    19    1
    85     7     6   ar
    86     7     9   ar
    87     6     8   ar
    88    19    20    1
    89     9    10   ar
    90    20    21    1
    91     8    10   ar
    92     8    11   ar
    93    10    12   ar
    94    21    22   ar
    95    21    23   ar
    96    11    13   ar
    97    12    14   ar
    98    13    14   ar
