@<TRIPOS>MOLECULE
tmp/5freA00.pdb
 107 100 0 0 0
SMALL
GASTEIGER

@<TRIPOS>ATOM
      1  N         -9.9760   72.6610   53.7060 N.3    51  ILE51      -0.1245
      2  CA       -10.4710   72.4090   55.0840 C.3    51  ILE51       0.1561
      3  C         -9.3310   71.7030   55.8010 C.2    51  ILE51       0.2260
      4  O         -8.8310   70.6930   55.2950 O.2    51  ILE51      -0.2867
      5  CB       -11.7420   71.5180   55.0900 C.3    51  ILE51       0.0252
      6  CG1      -12.9600   72.3420   54.6400 C.3    51  ILE51       0.0019
      7  CG2      -12.0230   70.9580   56.4720 C.3    51  ILE51       0.0019
      8  CD1      -14.0570   71.4990   54.0560 C.3    51  ILE51       0.0001
      9  N        -15.0170   55.7680   58.8300 N.3    63  LYS63      -0.1231
     10  CA       -14.8270   56.9120   57.9690 C.3    63  LYS63       0.1693
     11  C        -15.3840   58.1630   58.6170 C.2    63  LYS63       0.2592
     12  O        -14.8340   59.2350   58.4190 O.2    63  LYS63      -0.2718
     13  CB       -15.5320   56.6960   56.6340 C.3    63  LYS63       0.0285
     14  CG       -15.0250   55.4890   55.8750 C.3    63  LYS63       0.0035
     15  CD       -15.5720   55.4830   54.4590 C.3    63  LYS63       0.0206
     16  CE       -14.7050   54.5930   53.5940 C.3    63  LYS63       0.1093
     17  NZ       -15.0520   54.7460   52.1530 N.3    63  LYS63      -0.1314
     18  N        -16.4720   58.0420   59.3860 N.am   64  ASN64      -0.1974
     19  CA       -17.2120   59.2380   59.8050 C.3    64  ASN64       0.1688
     20  C        -17.4800   59.3650   61.3170 C.2    64  ASN64       0.2292
     21  O        -18.3640   60.1080   61.7000 O.2    64  ASN64      -0.2864
     22  CB       -18.5540   59.3670   59.0580 C.3    64  ASN64       0.1181
     23  CG       -18.4110   59.3280   57.5610 C.2    64  ASN64       0.2629
     24  OD1      -17.5180   59.9520   56.9900 O.2    64  ASN64      -0.2716
     25  ND2      -19.3410   58.5850   56.8910 N.am   64  ASN64      -0.0877
     26  N        -11.9850   72.8210   62.6870 N.3    70  TYR70      -0.1241
     27  CA       -11.2780   73.1330   61.4420 C.3    70  TYR70       0.1605
     28  C        -11.3110   74.5840   61.0150 C.2    70  TYR70       0.2264
     29  O        -12.1270   75.3830   61.4620 O.2    70  TYR70      -0.2867
     30  CB       -11.7990   72.3260   60.2690 C.3    70  TYR70       0.0534
     31  CG       -13.1610   72.7460   59.7660 C.ar   70  TYR70      -0.0201
     32  CD1      -13.3070   73.7670   58.8420 C.ar   70  TYR70      -0.0009
     33  CD2      -14.3320   72.1370   60.2600 C.ar   70  TYR70      -0.0009
     34  CE1      -14.5590   74.1660   58.3910 C.ar   70  TYR70       0.0417
     35  CE2      -15.6140   72.5180   59.7970 C.ar   70  TYR70       0.0417
     36  CZ       -15.7170   73.5490   58.8700 C.ar   70  TYR70       0.1957
     37  OH       -16.9640   73.9320   58.3710 O.3    70  TYR70      -0.2866
     38  N        -17.1960   70.0560   63.0790 N.3    79  GLU79      -0.1245
     39  CA       -18.1610   69.0120   62.8640 C.3    79  GLU79       0.1567
     40  C        -17.9950   67.9550   63.9210 C.2    79  GLU79       0.2260
     41  O        -16.9070   67.6910   64.3530 O.2    79  GLU79      -0.2867
     42  CB       -18.0090   68.3090   61.5170 C.3    79  GLU79       0.0388
     43  CG       -17.0230   68.8070   60.4800 C.3    79  GLU79       0.1160
     44  CD       -16.8720   67.8040   59.3410 C.2    79  GLU79       0.3649
     45  OE1      -17.9210   67.2720   58.8940 O.co2  79  GLU79      -0.2457
     46  OE2      -15.7240   67.5710   58.8790 O.co2  79  GLU79      -0.2457
     47  N        -19.4890   64.0270   64.3050 N.3    81  ARG81      -0.1245
     48  CA       -20.1800   62.9480   63.6210 C.3    81  ARG81       0.1563
     49  C        -19.8570   61.6270   64.3240 C.2    81  ARG81       0.2260
     50  O        -18.7950   61.4490   64.8900 O.2    81  ARG81      -0.2867
     51  CB       -19.7090   62.8350   62.1700 C.3    81  ARG81       0.0307
     52  CG       -19.7520   64.1290   61.3830 C.3    81  ARG81       0.0489
     53  CD       -19.0480   64.0040   60.0590 C.3    81  ARG81       0.2205
     54  NE       -19.8390   63.2890   59.0780 N.pl3  81  ARG81      -0.0865
     55  CZ       -19.4050   62.8790   57.8880 C.cat  81  ARG81       0.5346
     56  NH1      -18.1440   63.0880   57.4720 N.pl3  81  ARG81       0.1354
     57  NH2      -20.2400   62.1940   57.1120 N.pl3  81  ARG81       0.1354
     58  N        -20.4250   53.7550   54.2500 N.3    90  GLN90      -0.1245
     59  CA       -21.0910   54.9600   54.7620 C.3    90  GLN90       0.1566
     60  C        -22.1480   54.5800   55.7890 C.2    90  GLN90       0.2260
     61  O        -22.7270   55.4520   56.4190 O.2    90  GLN90      -0.2867
     62  CB       -21.7570   55.7730   53.6350 C.3    90  GLN90       0.0367
     63  CG       -20.7920   56.4050   52.6560 C.3    90  GLN90       0.0905
     64  CD       -19.8870   57.4260   53.3300 C.2    90  GLN90       0.2608
     65  OE1      -20.3500   58.2370   54.1390 O.2    90  GLN90      -0.2717
     66  NE2      -18.5870   57.3550   53.0550 N.am   90  GLN90      -0.0878
     67  N        -22.9010   70.3980   62.7330 N.3    98  HIS98      -0.1241
     68  CA       -21.9540   71.1430   61.9370 C.3    98  HIS98       0.1621
     69  C        -22.1880   72.6310   62.1780 C.2    98  HIS98       0.2264
     70  O        -23.2730   73.1530   61.9060 O.2    98  HIS98      -0.2867
     71  CB       -22.0610   70.8080   60.4440 C.3    98  HIS98       0.0745
     72  CG       -20.9510   71.4060   59.6220 C.ar   98  HIS98       0.0817
     73  ND1      -20.9990   71.4830   58.2460 N.ar   98  HIS98      -0.2268
     74  CD2      -19.8100   72.0400   59.9840 C.ar   98  HIS98       0.1154
     75  CE1      -19.9070   72.0870   57.7950 C.ar   98  HIS98       0.1986
     76  NE2      -19.1620   72.4280   58.8350 N.ar   98  HIS98      -0.2212
     77  N         -8.8850   59.0420   60.0670 N.3   158  ARG158     -0.1245
     78  CA       -10.0990   58.3850   59.6190 C.3   158  ARG158      0.1563
     79  C         -9.7870   57.0580   58.9180 C.2   158  ARG158      0.2260
     80  O         -8.6680   56.8090   58.5150 O.2   158  ARG158     -0.2867
     81  CB       -10.8220   59.3170   58.6260 C.3   158  ARG158      0.0307
     82  CG       -11.1910   60.6630   59.2060 C.3   158  ARG158      0.0489
     83  CD       -11.7760   61.6150   58.1650 C.3   158  ARG158      0.2205
     84  NE       -13.0930   61.1930   57.6820 N.pl3 158  ARG158     -0.0865
     85  CZ       -13.8060   61.8250   56.7360 C.cat 158  ARG158      0.5346
     86  NH1      -13.3500   62.9330   56.1660 N.pl3 158  ARG158      0.1354
     87  NH2      -14.9980   61.3570   56.3910 N.pl3 158  ARG158      0.1354
     88  N        -10.6430   61.8160   53.6420 N.3   163  ASN163     -0.1240
     89  CA        -9.9350   63.0790   53.7360 C.3   163  ASN163      0.1653
     90  C         -9.5670   63.3880   55.2010 C.2   163  ASN163      0.2266
     91  O        -10.4570   63.5210   56.0490 O.2   163  ASN163     -0.2867
     92  CB       -10.8080   64.1850   53.1640 C.3   163  ASN163      0.1155
     93  CG       -10.1180   65.5270   53.1410 C.2   163  ASN163      0.2627
     94  OD1       -8.9760   65.6430   53.5280 O.2   163  ASN163     -0.2716
     95  ND2      -10.8210   66.5580   52.6630 N.am  163  ASN163     -0.0877
     96  N         -7.9650   66.0460   56.2980 N.3   165  TYR165     -0.1241
     97  CA        -7.9480   67.4770   56.5190 C.3   165  TYR165      0.1605
     98  C         -6.6080   67.9390   57.0660 C.2   165  TYR165      0.2264
     99  O         -6.5300   68.6520   58.0950 O.2   165  TYR165     -0.2867
    100  CB        -9.0730   67.8720   57.5040 C.3   165  TYR165      0.0534
    101  CG       -10.4630   67.3190   57.2270 C.ar  165  TYR165     -0.0201
    102  CD1      -11.1560   67.6280   56.0410 C.ar  165  TYR165     -0.0009
    103  CD2      -11.0940   66.5020   58.1500 C.ar  165  TYR165     -0.0009
    104  CE1      -12.4300   67.1350   55.7850 C.ar  165  TYR165      0.0417
    105  CE2      -12.3880   66.0100   57.9160 C.ar  165  TYR165      0.0417
    106  CZ       -13.0570   66.3410   56.7380 C.ar  165  TYR165      0.1957
    107  OH       -14.3070   65.8140   56.5250 O.3   165  TYR165     -0.2866
@<TRIPOS>BOND
     1    17    16    1
     2    63    64    1
     3    63    62    1
     4    95    93   am
     5    66    64   am
     6    93    92    1
     7    93    94    2
     8    92    89    1
     9    64    65    2
    10    16    15    1
    11    62    59    1
    12    88    89    1
    13     1     2    1
    14    89    90    1
    15     8     6    1
    16    58    59    1
    17    15    14    1
    18     6     5    1
    19    59    60    1
    20     2     5    1
    21     2     3    1
    22     5     7    1
    23    90    91    2
    24     4     3    2
    25   104   102   ar
    26   104   106   ar
    27    60    61    2
    28    14    13    1
    29   102   101   ar
    30    86    85    1
    31    96    97    1
    32    87    85    1
    33    97    98    1
    34    97   100    1
    35   107   106    1
    36    13    10    1
    37    85    84    2
    38   106   105   ar
    39    25    23   am
    40    24    23    2
    41    98    99    2
    42    57    55    1
    43   101   100    1
    44   101   103   ar
    45    56    55    1
    46    23    22    1
    47    84    83    1
    48    75    73   ar
    49    75    76   ar
    50    55    54    2
    51   105   103   ar
    52    10    11    1
    53    10     9    1
    54    83    82    1
    55    73    72   ar
    56    37    36    1
    57    34    32   ar
    58    34    36   ar
    59    12    11    2
    60    80    79    2
    61    11    18   am
    62    81    82    1
    63    81    78    1
    64    76    74   ar
    65    32    31   ar
    66    36    35   ar
    67    46    44   ar
    68    45    44   ar
    69    79    78    1
    70    22    19    1
    71    54    53    1
    72    44    43    1
    73    18    19    1
    74    78    77    1
    75    72    74   ar
    76    72    71    1
    77    31    33   ar
    78    31    30    1
    79    35    33   ar
    80    19    20    1
    81    53    52    1
    82    30    27    1
    83    71    68    1
    84    43    42    1
    85    28    27    1
    86    28    29    2
    87    20    21    2
    88    52    51    1
    89    27    26    1
    90    42    39    1
    91    70    69    2
    92    68    69    1
    93    68    67    1
    94    51    48    1
    95    39    38    1
    96    39    40    1
    97    48    47    1
    98    48    49    1
    99    40    41    2
   100    49    50    2
