@<TRIPOS>MOLECULE
tmp/5friA00.pdb
 204 194 0 0 0
SMALL
GASTEIGER

@<TRIPOS>ATOM
      1  N         -3.8530   14.7910   -1.8940 N.3    12  GLU12      -0.1245
      2  CA        -4.6500   14.0360   -0.9090 C.3    12  GLU12       0.1567
      3  C         -3.9650   13.9880    0.4640 C.2    12  GLU12       0.2260
      4  O         -2.7790   13.6850    0.5690 O.2    12  GLU12      -0.2867
      5  CB        -4.9130   12.5950   -1.4010 C.3    12  GLU12       0.0388
      6  CG        -5.7960   11.7450   -0.4480 C.3    12  GLU12       0.1160
      7  CD        -6.0660   10.3190   -0.9430 C.2    12  GLU12       0.3649
      8  OE1       -5.4270    9.8780   -1.9260 O.co2  12  GLU12      -0.2457
      9  OE2       -6.9410    9.6440   -0.3400 O.co2  12  GLU12      -0.2457
     10  N         -3.0270   12.2910    3.7940 N.3    14  ILE14      -0.1245
     11  CA        -2.8590   10.9040    4.2370 C.3    14  ILE14       0.1561
     12  C         -3.1770   10.7890    5.7150 C.2    14  ILE14       0.2260
     13  O         -3.9980    9.9590    6.1160 O.2    14  ILE14      -0.2867
     14  CB        -1.4350   10.4020    4.0030 C.3    14  ILE14       0.0252
     15  CG1       -1.1820   10.2370    2.5040 C.3    14  ILE14       0.0019
     16  CG2       -1.1770    9.1050    4.8210 C.3    14  ILE14       0.0019
     17  CD1       -2.3400    9.6440    1.7510 C.3    14  ILE14       0.0001
     18  N          1.1220   14.1600    6.6350 N.3    22  VAL22      -0.1245
     19  CA         1.5700   13.4730    5.4250 C.3    22  VAL22       0.1561
     20  C          0.5530   13.6500    4.3000 C.2    22  VAL22       0.2260
     21  O         -0.6540   13.5070    4.5220 O.2    22  VAL22      -0.2867
     22  CB         1.8900   11.9690    5.6650 C.3    22  VAL22       0.0252
     23  CG1        2.3800   11.3090    4.3940 C.3    22  VAL22       0.0019
     24  CG2        2.9530   11.7970    6.7480 C.3    22  VAL22       0.0019
     25  N          5.3730   11.1540   -1.5910 N.3    33  ALA33      -0.1231
     26  CA         4.7690   11.3780   -0.2960 C.3    33  ALA33       0.1694
     27  C          5.5060   12.5500    0.3200 C.2    33  ALA33       0.2592
     28  O          6.7260   12.6790    0.1650 O.2    33  ALA33      -0.2718
     29  CB         4.8530   10.1060    0.5990 C.3    33  ALA33       0.0304
     30  N          4.7580   13.4270    0.9770 N.am   34  VAL34      -0.1966
     31  CA         5.3030   14.6270    1.5350 C.3    34  VAL34       0.1727
     32  C          4.8700   14.7600    2.9870 C.2    34  VAL34       0.2616
     33  O          3.6720   14.6970    3.3030 O.2    34  VAL34      -0.2715
     34  CB         4.8570   15.8710    0.7610 C.3    34  VAL34       0.0290
     35  CG1        5.5210   17.1330    1.3490 C.3    34  VAL34       0.0023
     36  CG2        5.1950   15.7260   -0.7170 C.3    34  VAL34       0.0023
     37  N          5.8480   14.9210    3.8660 N.am   35  LYS35      -0.1977
     38  CA         5.5680   15.2250    5.2590 C.3    35  LYS35       0.1596
     39  C          5.8190   16.7080    5.4790 C.2    35  LYS35       0.2287
     40  O          6.9260   17.1930    5.2660 O.2    35  LYS35      -0.2864
     41  CB         6.4350   14.3810    6.1860 C.3    35  LYS35       0.0298
     42  CG         5.9920   14.4250    7.6270 C.3    35  LYS35       0.0038
     43  CD         7.0610   13.9670    8.6030 C.3    35  LYS35       0.0206
     44  CE         7.1300   12.4750    8.8180 C.3    35  LYS35       0.1093
     45  NZ         7.5250   12.1820   10.2520 N.3    35  LYS35      -0.1314
     46  N         14.8140   15.0440   11.4860 N.3    48  GLU48      -0.1245
     47  CA        14.4390   13.9580   10.5820 C.3    48  GLU48       0.1567
     48  C         15.1730   14.0770    9.2320 C.2    48  GLU48       0.2260
     49  O         15.6720   13.0840    8.7130 O.2    48  GLU48      -0.2867
     50  CB        12.9110   13.8700   10.4270 C.3    48  GLU48       0.0388
     51  CG        12.4750   12.5900    9.7190 C.3    48  GLU48       0.1160
     52  CD        11.0130   12.2400    9.8880 C.2    48  GLU48       0.3649
     53  OE1       10.2390   13.0520   10.4540 O.co2  48  GLU48      -0.2457
     54  OE2       10.6410   11.1080    9.4590 O.co2  48  GLU48      -0.2457
     55  N         17.7650   11.2300    7.6750 N.3    52  TYR52      -0.1241
     56  CA        17.6190   10.7180    6.3140 C.3    52  TYR52       0.1605
     57  C         18.8250   11.0110    5.4020 C.2    52  TYR52       0.2264
     58  O         19.0590   10.2990    4.4290 O.2    52  TYR52      -0.2867
     59  CB        16.3490   11.2730    5.6750 C.3    52  TYR52       0.0534
     60  CG        15.1250   10.4590    5.9310 C.ar   52  TYR52      -0.0201
     61  CD1       14.9820    9.1960    5.3630 C.ar   52  TYR52      -0.0009
     62  CD2       14.0870   10.9510    6.7160 C.ar   52  TYR52      -0.0009
     63  CE1       13.8370    8.4310    5.5760 C.ar   52  TYR52       0.0417
     64  CE2       12.9440   10.1950    6.9400 C.ar   52  TYR52       0.0417
     65  CZ        12.8220    8.9370    6.3560 C.ar   52  TYR52       0.1957
     66  OH        11.6770    8.1840    6.5670 O.3    52  TYR52      -0.2866
     67  N         12.5710    3.7990    4.0440 N.3    63  LEU63      -0.1245
     68  CA        11.8010    4.6800    3.1650 C.3    63  LEU63       0.1561
     69  C         12.7410    5.5680    2.3600 C.2    63  LEU63       0.2260
     70  O         13.6710    6.1890    2.9100 O.2    63  LEU63      -0.2867
     71  CB        10.7970    5.5320    3.9500 C.3    63  LEU63       0.0270
     72  CG         9.9310    6.5250    3.1500 C.3    63  LEU63       0.0019
     73  CD1        9.0200    5.7880    2.2050 C.3    63  LEU63       0.0001
     74  CD2        9.1000    7.4030    4.1080 C.3    63  LEU63       0.0001
     75  N          9.4570   17.3230    3.9190 N.3    81  LEU81      -0.1245
     76  CA        10.2880   16.1460    3.6320 C.3    81  LEU81       0.1561
     77  C          9.5790   15.3420    2.5630 C.2    81  LEU81       0.2260
     78  O          8.4320   14.9580    2.7600 O.2    81  LEU81      -0.2867
     79  CB        10.4620   15.2550    4.8490 C.3    81  LEU81       0.0270
     80  CG        11.1170   15.7940    6.1070 C.3    81  LEU81       0.0019
     81  CD1       11.1030   14.6750    7.1340 C.3    81  LEU81       0.0001
     82  CD2       12.5360   16.2930    5.8400 C.3    81  LEU81       0.0001
     83  N          9.4320   11.9680    0.0670 N.3    83  SER83      -0.1202
     84  CA         9.8590   10.5680   -0.0330 C.3    83  SER83       0.2020
     85  C          9.1290    9.8340   -1.1460 C.2    83  SER83       0.2619
     86  O          8.1930   10.3540   -1.7580 O.2    83  SER83      -0.2717
     87  CB         9.5950    9.8270    1.2880 C.3    83  SER83       0.2103
     88  OG         8.2030    9.5530    1.4670 O.3    83  SER83      -0.2182
     89  N          9.5850    8.6190   -1.4120 N.am   84  ASP84      -0.1959
     90  CA         8.8430    7.6630   -2.2240 C.3    84  ASP84       0.1840
     91  C          7.4100    7.5300   -1.6980 C.2    84  ASP84       0.2622
     92  O          7.1810    7.6820   -0.5090 O.2    84  ASP84      -0.2715
     93  CB         9.5100    6.2990   -2.1550 C.3    84  ASP84       0.1450
     94  CG        10.8920    6.2640   -2.8280 C.2    84  ASP84       0.3671
     95  OD1       11.2780    7.2380   -3.5130 O.co2  84  ASP84      -0.2456
     96  OD2       11.5760    5.2300   -2.6630 O.co2  84  ASP84      -0.2456
     97  N          6.4630    7.2590   -2.5980 N.am   85  TYR85      -0.1960
     98  CA         5.0760    6.9630   -2.2330 C.3    85  TYR85       0.1771
     99  C          4.8200    5.4700   -2.4500 C.2    85  TYR85       0.2620
    100  O          5.2380    4.9020   -3.4660 O.2    85  TYR85      -0.2715
    101  CB         4.1080    7.7910   -3.0850 C.3    85  TYR85       0.0574
    102  CG         2.6630    7.3780   -2.9760 C.ar   85  TYR85      -0.0198
    103  CD1        1.9090    7.7270   -1.8600 C.ar   85  TYR85      -0.0009
    104  CD2        2.0440    6.6550   -3.9860 C.ar   85  TYR85      -0.0009
    105  CE1        0.5790    7.3560   -1.7470 C.ar   85  TYR85       0.0417
    106  CE2        0.7090    6.2790   -3.8810 C.ar   85  TYR85       0.0417
    107  CZ        -0.0090    6.6380   -2.7510 C.ar   85  TYR85       0.1957
    108  OH        -1.3250    6.2880   -2.6220 O.3    85  TYR85      -0.2866
    109  N          4.1630    4.8450   -1.4760 N.am   86  HIS86      -0.1959
    110  CA         3.7730    3.4350   -1.5560 C.3    86  HIS86       0.1787
    111  C          2.2710    3.3270   -1.4070 C.2    86  HIS86       0.2620
    112  O          1.7200    3.7100   -0.3770 O.2    86  HIS86      -0.2715
    113  CB         4.4860    2.6550   -0.4850 C.3    86  HIS86       0.0785
    114  CG         5.9690    2.6500   -0.6610 C.ar   86  HIS86       0.0821
    115  ND1        6.5750    2.0620   -1.7490 N.ar   86  HIS86      -0.2267
    116  CD2        6.9630    3.1960    0.0790 C.ar   86  HIS86       0.1154
    117  CE1        7.8810    2.2390   -1.6710 C.ar   86  HIS86       0.1986
    118  NE2        8.1460    2.9130   -0.5660 N.ar   86  HIS86      -0.2212
    119  N          1.6220    2.8070   -2.4490 N.am   87  GLU87      -0.1963
    120  CA         0.1590    2.7850   -2.5490 C.3    87  GLU87       0.1733
    121  C         -0.5060    2.0830   -1.3790 C.2    87  GLU87       0.2616
    122  O         -1.5410    2.5260   -0.9090 O.2    87  GLU87      -0.2715
    123  CB        -0.2520    2.0950   -3.8420 C.3    87  GLU87       0.0429
    124  CG        -1.7200    2.1950   -4.1730 C.3    87  GLU87       0.1163
    125  CD        -1.9840    1.8540   -5.6260 C.2    87  GLU87       0.3649
    126  OE1       -1.7890    0.6780   -6.0040 O.co2  87  GLU87      -0.2457
    127  OE2       -2.3530    2.7750   -6.3910 O.co2  87  GLU87      -0.2457
    128  N          0.0990    0.9970   -0.9030 N.am   88  HIS88      -0.1959
    129  CA        -0.4580    0.2490    0.2340 C.3    88  HIS88       0.1787
    130  C         -0.4880    1.0330    1.5370 C.2    88  HIS88       0.2621
    131  O         -1.3310    0.7770    2.3890 O.2    88  HIS88      -0.2715
    132  CB         0.3100   -1.0530    0.4560 C.3    88  HIS88       0.0785
    133  CG         0.0250   -2.1010   -0.5630 C.ar   88  HIS88       0.0821
    134  ND1       -1.2570   -2.4500   -0.9320 N.ar   88  HIS88      -0.2267
    135  CD2        0.8520   -2.9050   -1.2690 C.ar   88  HIS88       0.1154
    136  CE1       -1.2030   -3.3960   -1.8500 C.ar   88  HIS88       0.1986
    137  NE2        0.0660   -3.6900   -2.0720 N.ar   88  HIS88      -0.2212
    138  N          0.4250    1.9890    1.6960 N.am   89  GLY89      -0.1940
    139  CA         0.5650    2.7000    2.9640 C.3    89  GLY89       0.2014
    140  C          1.1600    1.8190    4.0490 C.2    89  GLY89       0.2639
    141  O          1.9810    0.9340    3.7860 O.2    89  GLY89      -0.2714
    142  N          0.7390    2.0500    5.2830 N.am   90  SER90      -0.1949
    143  CA         1.3930    1.4400    6.4180 C.3    90  SER90       0.1924
    144  C          1.0970   -0.0560    6.5450 C.2    90  SER90       0.2314
    145  O          0.0560   -0.5530    6.0800 O.2    90  SER90      -0.2863
    146  CB         0.9980    2.1570    7.7050 C.3    90  SER90       0.2116
    147  OG        -0.3400    1.8560    8.0550 O.3    90  SER90      -0.2180
    148  N         -2.2560   -0.5230    8.2240 N.3    93  ASP93      -0.1239
    149  CA        -3.3860   -0.5220    7.3050 C.3    93  ASP93       0.1674
    150  C         -3.4420   -1.8360    6.5200 C.2    93  ASP93       0.2266
    151  O         -4.5020   -2.4280    6.3660 O.2    93  ASP93      -0.2867
    152  CB        -3.2870    0.6380    6.3180 C.3    93  ASP93       0.1410
    153  CG        -3.6150    1.9920    6.9430 C.2    93  ASP93       0.3668
    154  OD1       -3.8940    2.0620    8.1590 O.co2  93  ASP93      -0.2456
    155  OD2       -3.6030    2.9880    6.1840 O.co2  93  ASP93      -0.2456
    156  N         -6.3760   -4.7030    6.4210 N.3    97  ARG97      -0.1245
    157  CA        -7.1130   -4.9850    5.1840 C.3    97  ARG97       0.1563
    158  C         -7.0360   -6.4410    4.7330 C.2    97  ARG97       0.2260
    159  O         -8.0070   -6.9830    4.2080 O.2    97  ARG97      -0.2867
    160  CB        -6.5950   -4.1180    4.0420 C.3    97  ARG97       0.0307
    161  CG        -6.9730   -2.6560    4.1190 C.3    97  ARG97       0.0489
    162  CD        -6.5880   -1.9550    2.8250 C.3    97  ARG97       0.2205
    163  NE        -7.1000   -0.5910    2.7480 N.pl3  97  ARG97      -0.0865
    164  CZ        -6.3390    0.4920    2.8180 C.cat  97  ARG97       0.5346
    165  NH1       -5.0330    0.3700    2.9760 N.pl3  97  ARG97       0.1354
    166  NH2       -6.8870    1.6960    2.7320 N.pl3  97  ARG97       0.1354
    167  N          2.5820    1.2530   12.3230 N.3   140  LYS140     -0.1231
    168  CA         2.1450    2.4880   11.6630 C.3   140  LYS140      0.1693
    169  C          3.3060    3.2590   11.0100 C.2   140  LYS140      0.2592
    170  O          3.0780    4.1810   10.2330 O.2   140  LYS140     -0.2718
    171  CB         1.3620    3.3800   12.6240 C.3   140  LYS140      0.0285
    172  CG        -0.0930    2.8810   12.8670 C.3   140  LYS140      0.0035
    173  CD        -0.8110    3.6840   13.9480 C.3   140  LYS140      0.0206
    174  CE        -2.2370    3.1680   14.2240 C.3   140  LYS140      0.1093
    175  NZ        -2.6310    3.2340   15.6940 N.3   140  LYS140     -0.1314
    176  N          4.5410    2.8780   11.3360 N.am  141  ASN141     -0.1974
    177  CA         5.7450    3.5460   10.8320 C.3   141  ASN141      0.1688
    178  C          6.5210    2.6890    9.8390 C.2   141  ASN141      0.2292
    179  O          7.6780    2.9850    9.5470 O.2   141  ASN141     -0.2864
    180  CB         6.6840    3.8430   12.0070 C.3   141  ASN141      0.1181
    181  CG         6.2690    5.0380   12.7890 C.2   141  ASN141      0.2629
    182  OD1        5.3360    5.7750   12.4080 O.2   141  ASN141     -0.2716
    183  ND2        6.9400    5.2470   13.9150 N.am  141  ASN141     -0.0877
    184  N          6.0310    0.8810    5.9860 N.3   143  LEU143     -0.1245
    185  CA         5.1870    0.9550    4.7900 C.3   143  LEU143      0.1561
    186  C          5.3750   -0.3140    3.9750 C.2   143  LEU143      0.2260
    187  O          6.4510   -0.9020    3.9930 O.2   143  LEU143     -0.2867
    188  CB         5.5100    2.2100    3.9720 C.3   143  LEU143      0.0270
    189  CG         5.3330    3.4420    4.8810 C.3   143  LEU143      0.0019
    190  CD1        6.4300    4.4500    4.7160 C.3   143  LEU143      0.0001
    191  CD2        3.9550    4.0550    4.7570 C.3   143  LEU143      0.0001
    192  N         10.0220    3.8550    8.2230 N.3   153  ALA153     -0.1231
    193  CA         9.9220    5.3020    8.1150 C.3   153  ALA153      0.1694
    194  C          9.8960    5.9540    9.5090 C.2   153  ALA153      0.2592
    195  O         10.1010    5.2880   10.5120 O.2   153  ALA153     -0.2718
    196  CB         8.6670    5.6770    7.3190 C.3   153  ALA153      0.0304
    197  N          9.6660    7.2630    9.5380 N.am  154  ASP154     -0.1974
    198  CA         9.5390    8.0480   10.7740 C.3   154  ASP154      0.1709
    199  C         10.8170    7.9850   11.5940 C.2   154  ASP154      0.2293
    200  O         10.8610    7.3780   12.6600 O.2   154  ASP154     -0.2864
    201  CB         8.3320    7.5950   11.6080 C.3   154  ASP154      0.1436
    202  CG         7.3650    8.7150   11.8590 C.2   154  ASP154      0.3671
    203  OD1        6.7770    9.2100   10.8610 O.co2 154  ASP154     -0.2456
    204  OD2        7.2300    9.1410   13.0340 O.co2 154  ASP154     -0.2456
@<TRIPOS>BOND
     1   127   125   ar
     2   126   125   ar
     3   125   124    1
     4   124   123    1
     5   104   106   ar
     6   104   102   ar
     7   106   107   ar
     8   123   120    1
     9    95    94   ar
    10   100    99    2
    11   101   102    1
    12   101    98    1
    13   102   103   ar
    14    94    96   ar
    15    94    93    1
    16   107   108    1
    17   107   105   ar
    18    97    98    1
    19    97    91   am
    20   120   119    1
    21   120   121    1
    22    99    98    1
    23    99   109   am
    24   119   111   am
    25    90    93    1
    26    90    91    1
    27    90    89    1
    28   137   136   ar
    29   137   135   ar
    30     8     7   ar
    31     1     2    1
    32   103   105   ar
    33   136   134   ar
    34    86    85    2
    35   115   117   ar
    36   115   114   ar
    37    91    92    2
    38   117   118   ar
    39    25    26    1
    40   110   109    1
    41   110   111    1
    42   110   113    1
    43    89    85   am
    44   111   112    2
    45     5     2    1
    46     5     6    1
    47   121   122    2
    48   121   128   am
    49   135   133   ar
    50    85    84    1
    51     7     6    1
    52     7     9   ar
    53   134   133   ar
    54     2     3    1
    55   128   129    1
    56    36    34    1
    57   114   113    1
    58   114   116   ar
    59   118   116   ar
    60   133   132    1
    61    26    27    1
    62    26    29    1
    63    84    83    1
    64    84    87    1
    65    28    27    2
    66   129   132    1
    67   129   130    1
    68    27    30   am
    69     3     4    2
    70    34    35    1
    71    34    31    1
    72    30    31    1
    73    87    88    1
    74    31    32    1
    75   130   138   am
    76   130   131    2
    77   138   139    1
    78    17    15    1
    79    73    72    1
    80    69    70    2
    81    69    68    1
    82    15    14    1
    83    77    78    2
    84    77    76    1
    85   166   164    1
    86   163   164    2
    87   163   162    1
    88   164   165    1
    89   162   161    1
    90   139   140    1
    91    32    33    2
    92    32    37   am
    93    72    71    1
    94    72    74    1
    95    68    71    1
    96    68    67    1
    97    76    75    1
    98    76    79    1
    99   141   140    2
   100    10    11    1
   101    37    38    1
   102   188   185    1
   103   188   189    1
   104   186   187    2
   105   186   185    1
   106    14    11    1
   107    14    16    1
   108   160   161    1
   109   160   157    1
   110   140   142   am
   111   159   158    2
   112    11    12    1
   113    20    21    2
   114    20    19    1
   115    23    22    1
   116    58    57    2
   117   190   189    1
   118   158   157    1
   119   191   189    1
   120   185   184    1
   121    79    80    1
   122   157   156    1
   123    38    39    1
   124    38    41    1
   125    40    39    2
   126   142   143    1
   127    61    63   ar
   128    61    60   ar
   129    57    56    1
   130    19    22    1
   131    19    18    1
   132    63    65   ar
   133    22    24    1
   134    59    60    1
   135    59    56    1
   136    12    13    2
   137    82    80    1
   138    60    62   ar
   139   145   144    2
   140    80    81    1
   141   155   153   ar
   142    41    42    1
   143    56    55    1
   144   152   153    1
   145   152   149    1
   146    65    66    1
   147    65    64   ar
   148   151   150    2
   149   143   144    1
   150   143   146    1
   151   150   149    1
   152    62    64   ar
   153   153   154   ar
   154   149   148    1
   155   196   193    1
   156    42    43    1
   157   146   147    1
   158   193   192    1
   159   193   194    1
   160    43    44    1
   161    49    48    2
   162    44    45    1
   163    48    47    1
   164    54    52   ar
   165   194   197   am
   166   194   195    2
   167   197   198    1
   168   179   178    2
   169    51    52    1
   170    51    50    1
   171   178   177    1
   172    52    53   ar
   173   170   169    2
   174    50    47    1
   175    47    46    1
   176   198   199    1
   177   198   201    1
   178   177   176    1
   179   177   180    1
   180   203   202   ar
   181   169   176   am
   182   169   168    1
   183   199   200    2
   184   201   202    1
   185   168   167    1
   186   168   171    1
   187   202   204   ar
   188   180   181    1
   189   182   181    2
   190   171   172    1
   191   181   183   am
   192   172   173    1
   193   173   174    1
   194   174   175    1
