@<TRIPOS>MOLECULE
tmp/5frnA00.pdb
 117 116 0 0 0
SMALL
GASTEIGER

@<TRIPOS>ATOM
      1  N        -35.6880   32.3050  -10.3390 N.3   120  ASP120     -0.1225
      2  CA       -35.3500   31.9960  -11.7210 C.3   120  ASP120      0.1805
      3  C        -33.8330   31.9130  -11.8140 C.2   120  ASP120      0.2597
      4  O        -33.1120   32.3330  -10.9050 O.2   120  ASP120     -0.2718
      5  CB       -35.9130   33.0500  -12.6790 C.3   120  ASP120      0.1424
      6  CG       -35.8000   32.6380  -14.1290 C.2   120  ASP120      0.3668
      7  OD1      -35.8910   31.4150  -14.4030 O.co2 120  ASP120     -0.2456
      8  OD2      -35.6190   33.5390  -14.9820 O.co2 120  ASP120     -0.2456
      9  N        -33.3540   31.3570  -12.9220 N.am  121  TYR121     -0.1976
     10  CA       -31.9290   31.2350  -13.1830 C.3   121  TYR121      0.1639
     11  C        -31.5230   32.1190  -14.3530 C.2   121  TYR121      0.2290
     12  O        -32.2230   32.1910  -15.3670 O.2   121  TYR121     -0.2864
     13  CB       -31.5390   29.7850  -13.4770 C.3   121  TYR121      0.0560
     14  CG       -31.1640   28.9870  -12.2540 C.ar  121  TYR121     -0.0198
     15  CD1      -29.9190   29.1410  -11.6570 C.ar  121  TYR121     -0.0009
     16  CD2      -32.0480   28.0700  -11.7000 C.ar  121  TYR121     -0.0009
     17  CE1      -29.5680   28.4100  -10.5370 C.ar  121  TYR121      0.0417
     18  CE2      -31.7040   27.3330  -10.5810 C.ar  121  TYR121      0.0417
     19  CZ       -30.4630   27.5080  -10.0050 C.ar  121  TYR121      0.1957
     20  OH       -30.1160   26.7780   -8.8920 O.3   121  TYR121     -0.2866
     21  N        -40.8390   29.2850  -12.8560 N.3   177  ASP177     -0.1225
     22  CA       -41.2630   28.6980  -14.1160 C.3   177  ASP177      0.1805
     23  C        -41.0880   27.1820  -14.0500 C.2   177  ASP177      0.2598
     24  O        -40.6410   26.6240  -13.0440 O.2   177  ASP177     -0.2718
     25  CB       -40.5250   29.3320  -15.3050 C.3   177  ASP177      0.1424
     26  CG       -38.9850   29.3180  -15.1870 C.2   177  ASP177      0.3668
     27  OD1      -38.3640   28.2690  -14.9830 O.co2 177  ASP177     -0.2456
     28  OD2      -38.3680   30.3850  -15.3560 O.co2 177  ASP177     -0.2456
     29  N        -41.4700   26.4960  -15.1240 N.am  178  GLN178     -0.1965
     30  CA       -41.4310   25.0330  -15.1280 C.3   178  GLN178      0.1733
     31  C        -40.0860   24.4850  -15.5770 C.2   178  GLN178      0.2616
     32  O        -40.0210   23.4590  -16.2610 O.2   178  GLN178     -0.2715
     33  CB       -42.5630   24.4880  -15.9900 C.3   178  GLN178      0.0408
     34  CG       -43.9420   24.6960  -15.3780 C.3   178  GLN178      0.0908
     35  CD       -45.0370   23.9630  -16.1280 C.2   178  GLN178      0.2608
     36  OE1      -44.8750   22.8040  -16.5130 O.2   178  GLN178     -0.2717
     37  NE2      -46.1600   24.6370  -16.3390 N.am  178  GLN178     -0.0878
     38  N        -38.9950   25.1500  -15.2010 N.am  179  GLY179     -0.1955
     39  CA       -37.6770   24.6110  -15.4540 C.3   179  GLY179      0.1869
     40  C        -37.4090   23.3550  -14.6480 C.2   179  GLY179      0.2309
     41  O        -38.0820   23.0540  -13.6600 O.2   179  GLY179     -0.2863
     42  N        -47.6650   29.0100  -16.0310 N.3   202  THR202     -0.1204
     43  CA       -48.0900   28.2720  -17.2080 C.3   202  THR202      0.1979
     44  C        -46.8820   28.0510  -18.1190 C.2   202  THR202      0.2460
     45  O        -45.9540   28.8650  -18.1390 O.2   202  THR202     -0.2732
     46  CB       -49.1950   29.0280  -17.9460 C.3   202  THR202      0.1783
     47  OG1      -48.7880   30.3830  -18.1730 O.3   202  THR202     -0.2211
     48  CG2      -50.4840   29.0140  -17.1310 C.3   202  THR202      0.0376
     49  N        -46.8510   26.9470  -18.8650 N.am  203  PRO203     -0.2717
     50  CA       -45.6200   26.5910  -19.5820 C.3   203  PRO203      0.1535
     51  C        -45.3160   27.5500  -20.7230 C.2   203  PRO203      0.2599
     52  O        -46.2180   28.0420  -21.4060 O.2   203  PRO203     -0.2715
     53  CB       -45.9080   25.1770  -20.0990 C.3   203  PRO203      0.0310
     54  CG       -47.3880   25.1220  -20.2170 C.3   203  PRO203      0.0237
     55  CD       -47.9200   25.9580  -19.0860 C.3   203  PRO203      0.0939
     56  N        -44.0230   27.8170  -20.9090 N.am  204  TYR204     -0.1960
     57  CA       -43.5000   28.6360  -22.0040 C.3   204  TYR204      0.1771
     58  C        -44.1710   30.0110  -22.0370 C.2   204  TYR204      0.2620
     59  O        -44.7660   30.4300  -23.0330 O.2   204  TYR204     -0.2715
     60  CB       -43.6420   27.9040  -23.3400 C.3   204  TYR204      0.0574
     61  CG       -42.9180   26.5740  -23.3590 C.ar  204  TYR204     -0.0198
     62  CD1      -41.5620   26.5020  -23.6550 C.ar  204  TYR204     -0.0009
     63  CD2      -43.5880   25.3930  -23.0650 C.ar  204  TYR204     -0.0009
     64  CE1      -40.8960   25.2890  -23.6660 C.ar  204  TYR204      0.0417
     65  CE2      -42.9300   24.1780  -23.0730 C.ar  204  TYR204      0.0417
     66  CZ       -41.5850   24.1310  -23.3740 C.ar  204  TYR204      0.1957
     67  OH       -40.9280   22.9220  -23.3840 O.3   204  TYR204     -0.2866
     68  N        -44.0410   30.7190  -20.9180 N.am  205  HIS205     -0.1960
     69  CA       -44.6590   32.0250  -20.7350 C.3   205  HIS205      0.1772
     70  C        -43.9350   32.7910  -19.6320 C.2   205  HIS205      0.2462
     71  O        -44.4500   32.8950  -18.5130 O.2   205  HIS205     -0.2730
     72  CB       -46.1410   31.8620  -20.3920 C.3   205  HIS205      0.0785
     73  CG       -46.9360   33.1210  -20.5240 C.ar  205  HIS205      0.0821
     74  ND1      -47.4220   33.8120  -19.4350 N.ar  205  HIS205     -0.2267
     75  CD2      -47.3340   33.8120  -21.6170 C.ar  205  HIS205      0.1154
     76  CE1      -48.0860   34.8750  -19.8530 C.ar  205  HIS205      0.1986
     77  NE2      -48.0470   34.8990  -21.1730 N.ar  205  HIS205     -0.2212
     78  N        -42.7450   33.3380  -19.9050 N.am  206  PRO206     -0.2716
     79  CA       -41.9740   34.0000  -18.8380 C.3   206  PRO206      0.1536
     80  C        -42.5650   35.3210  -18.3640 C.2   206  PRO206      0.2598
     81  O        -42.0810   35.8560  -17.3550 O.2   206  PRO206     -0.2715
     82  CB       -40.5910   34.2010  -19.4750 C.3   206  PRO206      0.0310
     83  CG       -40.8400   34.1920  -20.9430 C.3   206  PRO206      0.0237
     84  CD       -42.0000   33.2690  -21.1740 C.3   206  PRO206      0.0939
     85  N        -43.5750   35.8650  -19.0530 N.am  207  GLN207     -0.1978
     86  CA       -44.3410   36.9820  -18.5060 C.3   207  GLN207      0.1601
     87  C        -44.8030   36.6860  -17.0870 C.2   207  GLN207      0.2287
     88  O        -44.8070   37.5720  -16.2240 O.2   207  GLN207     -0.2864
     89  CB       -45.5640   37.2720  -19.3780 C.3   207  GLN207      0.0394
     90  CG       -45.3470   38.1790  -20.5670 C.3   207  GLN207      0.0908
     91  CD       -46.6220   38.3660  -21.3670 C.2   207  GLN207      0.2608
     92  OE1      -47.7000   38.5420  -20.7990 O.2   207  GLN207     -0.2717
     93  NE2      -46.5090   38.3100  -22.6890 N.am  207  GLN207     -0.0878
     94  N        -42.6220   37.6010  -14.4450 N.3   210  GLY210     -0.1225
     95  CA       -42.1100   38.8910  -14.8790 C.3   210  GLY210      0.1811
     96  C        -41.3860   39.6870  -13.8110 C.2   210  GLY210      0.2280
     97  O        -40.5230   40.5070  -14.1390 O.2   210  GLY210     -0.2866
     98  N        -37.9260   38.1580  -13.7850 N.3   213  GLU213     -0.1245
     99  CA       -37.3470   38.3750  -15.1070 C.3   213  GLU213      0.1567
    100  C        -36.9090   39.8230  -15.2840 C.2   213  GLU213      0.2260
    101  O        -35.8060   40.0880  -15.7720 O.2   213  GLU213     -0.2867
    102  CB       -38.3380   37.9830  -16.2080 C.3   213  GLU213      0.0388
    103  CG       -38.7430   36.5100  -16.2400 C.3   213  GLU213      0.1160
    104  CD       -37.5910   35.5590  -16.5380 C.2   213  GLU213      0.3649
    105  OE1      -36.4620   36.0210  -16.8120 O.co2 213  GLU213     -0.2457
    106  OE2      -37.8230   34.3340  -16.4920 O.co2 213  GLU213     -0.2457
    107  N        -41.2110   23.5170  -28.9430 N.3   321  ARG321     -0.1245
    108  CA       -39.9420   23.5600  -29.6660 C.3   321  ARG321      0.1563
    109  C        -40.1360   22.9110  -31.0340 C.2   321  ARG321      0.2260
    110  O        -39.6400   21.8030  -31.2860 O.2   321  ARG321     -0.2867
    111  CB       -38.8320   22.8630  -28.8830 C.3   321  ARG321      0.0307
    112  CG       -38.4860   23.6230  -27.5990 C.3   321  ARG321      0.0489
    113  CD       -37.4860   24.7220  -27.9710 C.3   321  ARG321      0.2205
    114  NE       -36.9990   25.3480  -26.6970 N.pl3 321  ARG321     -0.0865
    115  CZ       -37.7100   26.2850  -26.0700 C.cat 321  ARG321      0.5346
    116  NH1      -38.8370   26.8060  -26.5480 N.pl3 321  ARG321      0.1354
    117  NH2      -37.3630   26.6150  -24.8110 N.pl3 321  ARG321      0.1354
@<TRIPOS>BOND
     1   110   109    2
     2   109   108    1
     3   108   107    1
     4   108   111    1
     5   111   112    1
     6   113   112    1
     7   113   114    1
     8   114   115    2
     9   116   115    1
    10   115   117    1
    11    64    62   ar
    12    64    66   ar
    13    62    61   ar
    14    67    66    1
    15    66    65   ar
    16    61    60    1
    17    61    63   ar
    18    60    57    1
    19    65    63   ar
    20    59    58    2
    21    93    91   am
    22    58    57    1
    23    58    68   am
    24    57    56    1
    25    75    77   ar
    26    75    73   ar
    27    52    51    2
    28    91    92    2
    29    91    90    1
    30    84    83    1
    31    84    78    1
    32    77    76   ar
    33    83    82    1
    34    68    69    1
    35    56    51   am
    36    69    72    1
    37    69    70    1
    38    51    50    1
    39    90    89    1
    40    73    72    1
    41    73    74   ar
    42    54    53    1
    43    54    55    1
    44    53    50    1
    45    78    70   am
    46    78    79    1
    47    76    74   ar
    48    70    71    2
    49    50    49    1
    50    82    79    1
    51    89    86    1
    52    55    49    1
    53    85    86    1
    54    85    80   am
    55    49    44   am
    56    79    80    1
    57    86    87    1
    58    80    81    2
    59    47    46    1
    60    45    44    2
    61    44    43    1
    62    46    43    1
    63    46    48    1
    64    43    42    1
    65    87    88    2
    66   105   104   ar
    67   104   106   ar
    68   104   103    1
    69    36    35    2
    70    37    35   am
    71    32    31    2
    72   103   102    1
    73   102    99    1
    74    35    34    1
    75    33    34    1
    76    33    30    1
    77   101   100    2
    78    31    38   am
    79    31    30    1
    80    39    38    1
    81    39    40    1
    82    12    11    2
    83    28    26   ar
    84    25    26    1
    85    25    22    1
    86   100    99    1
    87    26    27   ar
    88    30    29    1
    89    29    23   am
    90    99    98    1
    91     8     6   ar
    92    95    94    1
    93    95    96    1
    94    40    41    2
    95     7     6   ar
    96    11    10    1
    97    97    96    2
    98     6     5    1
    99    22    23    1
   100    22    21    1
   101    23    24    2
   102    13    10    1
   103    13    14    1
   104    10     9    1
   105     9     3   am
   106     5     2    1
   107    14    16   ar
   108    14    15   ar
   109     3     2    1
   110     3     4    2
   111     2     1    1
   112    16    18   ar
   113    15    17   ar
   114    18    19   ar
   115    17    19   ar
   116    19    20    1
