@<TRIPOS>MOLECULE
tmp/5froA00.pdb
 117 116 0 0 0
SMALL
GASTEIGER

@<TRIPOS>ATOM
      1  N        -35.6880   32.3500  -10.2530 N.3   120  ASP120     -0.1225
      2  CA       -35.3590   32.0550  -11.6420 C.3   120  ASP120      0.1805
      3  C        -33.8420   32.0260  -11.7670 C.2   120  ASP120      0.2597
      4  O        -33.1240   32.5280  -10.8980 O.2   120  ASP120     -0.2718
      5  CB       -35.9680   33.0940  -12.5910 C.3   120  ASP120      0.1424
      6  CG       -35.8130   32.7170  -14.0490 C.2   120  ASP120      0.3668
      7  OD1      -35.9850   31.5250  -14.3790 O.co2 120  ASP120     -0.2456
      8  OD2      -35.5170   33.6170  -14.8630 O.co2 120  ASP120     -0.2456
      9  N        -33.3620   31.4350  -12.8570 N.am  121  TYR121     -0.1976
     10  CA       -31.9350   31.3570  -13.1350 C.3   121  TYR121      0.1639
     11  C        -31.5580   32.2470  -14.3110 C.2   121  TYR121      0.2290
     12  O        -32.3080   32.3670  -15.2850 O.2   121  TYR121     -0.2864
     13  CB       -31.5040   29.9170  -13.4240 C.3   121  TYR121      0.0560
     14  CG       -31.1240   29.1370  -12.1880 C.ar  121  TYR121     -0.0198
     15  CD1      -29.8760   29.2980  -11.6020 C.ar  121  TYR121     -0.0009
     16  CD2      -32.0080   28.2390  -11.6100 C.ar  121  TYR121     -0.0009
     17  CE1      -29.5210   28.5880  -10.4730 C.ar  121  TYR121      0.0417
     18  CE2      -31.6610   27.5240  -10.4800 C.ar  121  TYR121      0.0417
     19  CZ       -30.4170   27.7020   -9.9150 C.ar  121  TYR121      0.1957
     20  OH       -30.0680   26.9920   -8.7890 O.3   121  TYR121     -0.2866
     21  N        -40.8350   29.3380  -12.7880 N.3   177  ASP177     -0.1225
     22  CA       -41.2290   28.7090  -14.0380 C.3   177  ASP177      0.1805
     23  C        -41.0830   27.1930  -13.9140 C.2   177  ASP177      0.2598
     24  O        -40.6600   26.6650  -12.8820 O.2   177  ASP177     -0.2718
     25  CB       -40.4120   29.2670  -15.2060 C.3   177  ASP177      0.1424
     26  CG       -38.9070   29.0870  -15.0260 C.2   177  ASP177      0.3668
     27  OD1      -38.4630   28.0530  -14.4790 O.co2 177  ASP177     -0.2456
     28  OD2      -38.1550   29.9840  -15.4610 O.co2 177  ASP177     -0.2456
     29  N        -41.4200   26.4770  -14.9830 N.am  178  GLN178     -0.1965
     30  CA       -41.3510   25.0170  -14.9630 C.3   178  GLN178      0.1733
     31  C        -39.9850   24.4920  -15.3820 C.2   178  GLN178      0.2616
     32  O        -39.8770   23.4980  -16.1090 O.2   178  GLN178     -0.2715
     33  CB       -42.4610   24.4410  -15.8360 C.3   178  GLN178      0.0408
     34  CG       -43.8510   24.7490  -15.2900 C.3   178  GLN178      0.0908
     35  CD       -44.9640   24.0860  -16.0790 C.2   178  GLN178      0.2608
     36  OE1      -44.7360   23.1190  -16.8050 O.2   178  GLN178     -0.2717
     37  NE2      -46.1790   24.6070  -15.9400 N.am  178  GLN178     -0.0878
     38  N        -38.9180   25.1470  -14.9290 N.am  179  GLY179     -0.1955
     39  CA       -37.5850   24.6390  -15.1710 C.3   179  GLY179      0.1869
     40  C        -37.2980   23.3850  -14.3670 C.2   179  GLY179      0.2309
     41  O        -37.9400   23.0970  -13.3570 O.2   179  GLY179     -0.2863
     42  N        -47.5520   29.1440  -16.0020 N.3   202  THR202     -0.1204
     43  CA       -47.9760   28.3990  -17.1720 C.3   202  THR202      0.1979
     44  C        -46.7590   28.1400  -18.0600 C.2   202  THR202      0.2460
     45  O        -45.8240   28.9480  -18.0930 O.2   202  THR202     -0.2732
     46  CB       -49.0510   29.1650  -17.9430 C.3   202  THR202      0.1783
     47  OG1      -48.6550   30.5340  -18.0920 O.3   202  THR202     -0.2211
     48  CG2      -50.3820   29.1040  -17.2100 C.3   202  THR202      0.0376
     49  N        -46.7280   27.0220  -18.7770 N.am  203  PRO203     -0.2717
     50  CA       -45.5030   26.6570  -19.4970 C.3   203  PRO203      0.1535
     51  C        -45.2110   27.6040  -20.6490 C.2   203  PRO203      0.2599
     52  O        -46.1140   28.1200  -21.3120 O.2   203  PRO203     -0.2715
     53  CB       -45.7990   25.2410  -20.0030 C.3   203  PRO203      0.0310
     54  CG       -47.2850   25.1930  -20.1080 C.3   203  PRO203      0.0237
     55  CD       -47.8000   26.0320  -18.9740 C.3   203  PRO203      0.0939
     56  N        -43.9160   27.8360  -20.8700 N.am  204  TYR204     -0.1960
     57  CA       -43.4160   28.6200  -22.0000 C.3   204  TYR204      0.1771
     58  C        -44.0350   30.0180  -22.0250 C.2   204  TYR204      0.2620
     59  O        -44.6220   30.4550  -23.0180 O.2   204  TYR204     -0.2715
     60  CB       -43.6480   27.8700  -23.3140 C.3   204  TYR204      0.0574
     61  CG       -42.9700   26.5220  -23.3120 C.ar  204  TYR204     -0.0198
     62  CD1      -41.6080   26.4130  -23.5540 C.ar  204  TYR204     -0.0009
     63  CD2      -43.6770   25.3620  -23.0260 C.ar  204  TYR204     -0.0009
     64  CE1      -40.9700   25.1850  -23.5320 C.ar  204  TYR204      0.0417
     65  CE2      -43.0460   24.1260  -23.0010 C.ar  204  TYR204      0.0417
     66  CZ       -41.6930   24.0460  -23.2560 C.ar  204  TYR204      0.1957
     67  OH       -41.0590   22.8230  -23.2350 O.3   204  TYR204     -0.2866
     68  N        -43.8680   30.7240  -20.9110 N.am  205  HIS205     -0.1960
     69  CA       -44.4690   32.0350  -20.7170 C.3   205  HIS205      0.1772
     70  C        -43.7110   32.7840  -19.6250 C.2   205  HIS205      0.2462
     71  O        -44.1800   32.8620  -18.4830 O.2   205  HIS205     -0.2730
     72  CB       -45.9480   31.8850  -20.3560 C.3   205  HIS205      0.0785
     73  CG       -46.7390   33.1430  -20.5160 C.ar  205  HIS205      0.0821
     74  ND1      -47.2840   33.8220  -19.4480 N.ar  205  HIS205     -0.2267
     75  CD2      -47.0720   33.8500  -21.6220 C.ar  205  HIS205      0.1154
     76  CE1      -47.9190   34.8920  -19.8880 C.ar  205  HIS205      0.1986
     77  NE2      -47.8060   34.9330  -21.2040 N.ar  205  HIS205     -0.2212
     78  N        -42.5310   33.3380  -19.9320 N.am  206  PRO206     -0.2716
     79  CA       -41.7530   34.0310  -18.8910 C.3   206  PRO206      0.1536
     80  C        -42.3980   35.3130  -18.3880 C.2   206  PRO206      0.2598
     81  O        -41.9690   35.8170  -17.3390 O.2   206  PRO206     -0.2715
     82  CB       -40.4100   34.3110  -19.5790 C.3   206  PRO206      0.0310
     83  CG       -40.7170   34.2880  -21.0330 C.3   206  PRO206      0.0237
     84  CD       -41.8230   33.2950  -21.2230 C.3   206  PRO206      0.0939
     85  N        -43.3900   35.8670  -19.0920 N.am  207  GLN207     -0.1978
     86  CA       -44.1280   36.9960  -18.5450 C.3   207  GLN207      0.1601
     87  C        -44.6290   36.7010  -17.1260 C.2   207  GLN207      0.2287
     88  O        -44.6310   37.5900  -16.2700 O.2   207  GLN207     -0.2864
     89  CB       -45.2910   37.3680  -19.4610 C.3   207  GLN207      0.0394
     90  CG       -44.8720   37.9090  -20.8280 C.3   207  GLN207      0.0908
     91  CD       -44.7280   36.8190  -21.8720 C.2   207  GLN207      0.2608
     92  OE1      -44.0080   35.8410  -21.6710 O.2   207  GLN207     -0.2717
     93  NE2      -45.4250   36.9770  -22.9920 N.am  207  GLN207     -0.0878
     94  N        -42.5230   37.5910  -14.4190 N.3   210  GLY210     -0.1225
     95  CA       -42.0100   38.8750  -14.8700 C.3   210  GLY210      0.1811
     96  C        -41.3410   39.7000  -13.7890 C.2   210  GLY210      0.2280
     97  O        -40.4800   40.5310  -14.0870 O.2   210  GLY210     -0.2866
     98  N        -37.8720   38.1840  -13.8170 N.3   213  GLU213     -0.1245
     99  CA       -37.2790   38.3770  -15.1370 C.3   213  GLU213      0.1567
    100  C        -36.8490   39.8230  -15.3370 C.2   213  GLU213      0.2260
    101  O        -35.7500   40.0890  -15.8420 O.2   213  GLU213     -0.2867
    102  CB       -38.2600   37.9630  -16.2340 C.3   213  GLU213      0.0388
    103  CG       -38.6790   36.4970  -16.2200 C.3   213  GLU213      0.1160
    104  CD       -37.5430   35.5360  -16.5370 C.2   213  GLU213      0.3649
    105  OE1      -36.4690   35.9850  -16.9910 O.co2 213  GLU213     -0.2457
    106  OE2      -37.7340   34.3200  -16.3280 O.co2 213  GLU213     -0.2457
    107  N        -41.1990   23.6160  -28.8540 N.3   321  ARG321     -0.1245
    108  CA       -39.9410   23.6800  -29.5960 C.3   321  ARG321      0.1563
    109  C        -40.1390   23.0040  -30.9490 C.2   321  ARG321      0.2260
    110  O        -39.6650   21.8810  -31.1760 O.2   321  ARG321     -0.2867
    111  CB       -38.8040   23.0310  -28.8090 C.3   321  ARG321      0.0307
    112  CG       -38.4670   23.8290  -27.5460 C.3   321  ARG321      0.0489
    113  CD       -37.5000   24.9460  -27.9530 C.3   321  ARG321      0.2205
    114  NE       -37.0180   25.6130  -26.6980 N.pl3 321  ARG321     -0.0865
    115  CZ       -37.7480   26.5450  -26.0850 C.cat 321  ARG321      0.5346
    116  NH1      -38.8940   27.0250  -26.5630 N.pl3 321  ARG321      0.1354
    117  NH2      -37.3980   26.9130  -24.8380 N.pl3 321  ARG321      0.1354
@<TRIPOS>BOND
     1   110   109    2
     2   109   108    1
     3   108   107    1
     4   108   111    1
     5   111   112    1
     6   113   112    1
     7   113   114    1
     8   114   115    2
     9   116   115    1
    10   115   117    1
    11    62    64   ar
    12    62    61   ar
    13    64    66   ar
    14    60    61    1
    15    60    57    1
    16    61    63   ar
    17    66    67    1
    18    66    65   ar
    19    63    65   ar
    20    59    58    2
    21    93    91   am
    22    58    57    1
    23    58    68   am
    24    57    56    1
    25    91    92    2
    26    91    90    1
    27    75    77   ar
    28    75    73   ar
    29    52    51    2
    30    84    83    1
    31    84    78    1
    32    77    76   ar
    33    83    82    1
    34    68    69    1
    35    56    51   am
    36    90    89    1
    37    69    72    1
    38    69    70    1
    39    51    50    1
    40    73    72    1
    41    73    74   ar
    42    54    53    1
    43    54    55    1
    44    53    50    1
    45    78    70   am
    46    78    79    1
    47    76    74   ar
    48    70    71    2
    49    82    79    1
    50    50    49    1
    51    89    86    1
    52    85    86    1
    53    85    80   am
    54    55    49    1
    55    79    80    1
    56    49    44   am
    57    86    87    1
    58    80    81    2
    59    45    44    2
    60    47    46    1
    61    44    43    1
    62    46    48    1
    63    46    43    1
    64    43    42    1
    65    87    88    2
    66   105   104   ar
    67    36    35    2
    68   104   106   ar
    69   104   103    1
    70   102   103    1
    71   102    99    1
    72    32    31    2
    73    35    37   am
    74    35    34    1
    75   101   100    2
    76    33    34    1
    77    33    30    1
    78    28    26   ar
    79    31    30    1
    80    31    38   am
    81   100    99    1
    82    12    11    2
    83    25    26    1
    84    25    22    1
    85    39    38    1
    86    39    40    1
    87    99    98    1
    88    26    27   ar
    89    29    30    1
    90    29    23   am
    91    95    94    1
    92    95    96    1
    93     8     6   ar
    94     7     6   ar
    95    40    41    2
    96    11    10    1
    97    97    96    2
    98     6     5    1
    99    22    23    1
   100    22    21    1
   101    23    24    2
   102    13    10    1
   103    13    14    1
   104    10     9    1
   105     9     3   am
   106     5     2    1
   107    14    16   ar
   108    14    15   ar
   109     3     2    1
   110     3     4    2
   111     2     1    1
   112    16    18   ar
   113    15    17   ar
   114    18    19   ar
   115    17    19   ar
   116    19    20    1
