@<TRIPOS>MOLECULE
tmp/5frvA00.pdb
 117 115 0 0 0
SMALL
GASTEIGER

@<TRIPOS>ATOM
      1  N        -29.8930   14.5990  -27.9420 N.3    87  LEU87      -0.1245
      2  CA       -28.7830   15.3680  -27.4050 C.3    87  LEU87       0.1561
      3  C        -28.9310   15.4260  -25.8970 C.2    87  LEU87       0.2260
      4  O        -27.9590   15.2510  -25.1600 O.2    87  LEU87      -0.2867
      5  CB       -28.7560   16.7800  -28.0070 C.3    87  LEU87       0.0270
      6  CG       -27.5980   17.7420  -27.7140 C.3    87  LEU87       0.0019
      7  CD1      -27.7560   18.4340  -26.3600 C.3    87  LEU87       0.0001
      8  CD2      -26.2510   17.0190  -27.8240 C.3    87  LEU87       0.0001
      9  N        -27.5240   13.0960  -22.9940 N.3    90  GLY90      -0.1210
     10  CA       -26.1770   13.3390  -22.4990 C.3    90  GLY90       0.1940
     11  C        -26.1590   14.0640  -21.1670 C.2    90  GLY90       0.2453
     12  O        -25.6430   13.5430  -20.1780 O.2    90  GLY90      -0.2732
     13  N        -26.7140   15.2820  -21.1330 N.am   91  PRO91      -0.2728
     14  CA       -26.8140   16.0220  -19.8680 C.3    91  PRO91       0.1401
     15  C        -27.5640   15.2200  -18.7960 C.2    91  PRO91       0.2269
     16  O        -27.1980   15.2660  -17.6190 O.2    91  PRO91      -0.2865
     17  CB       -27.5800   17.2910  -20.2650 C.3    91  PRO91       0.0296
     18  CG       -27.1920   17.5260  -21.6850 C.3    91  PRO91       0.0237
     19  CD       -27.0440   16.1300  -22.2980 C.3    91  PRO91       0.0939
     20  N        -25.0290   12.3700  -17.5180 N.3    94  HIS94      -0.1241
     21  CA       -24.0730   13.0250  -16.6910 C.3    94  HIS94       0.1621
     22  C        -24.5550   13.3190  -15.2830 C.2    94  HIS94       0.2264
     23  O        -23.8270   13.2140  -14.3530 O.2    94  HIS94      -0.2867
     24  CB       -23.5730   14.3010  -17.3180 C.3    94  HIS94       0.0745
     25  CG       -22.0960   14.3490  -17.4290 C.ar   94  HIS94       0.0817
     26  ND1      -21.4310   15.3530  -18.0580 N.ar   94  HIS94      -0.2268
     27  CD2      -21.1600   13.4790  -17.0150 C.ar   94  HIS94       0.1154
     28  CE1      -20.1480   15.1040  -18.0360 C.ar   94  HIS94       0.1986
     29  NE2      -19.9530   13.9730  -17.4070 N.ar   94  HIS94      -0.2212
     30  N        -26.5020   19.3260  -14.9770 N.3   102  VAL102     -0.1245
     31  CA       -26.3520   19.9750  -16.2710 C.3   102  VAL102      0.1561
     32  C        -27.6360   20.6720  -16.6500 C.2   102  VAL102      0.2260
     33  O        -28.7220   20.1000  -16.5320 O.2   102  VAL102     -0.2867
     34  CB       -25.9740   18.9710  -17.3530 C.3   102  VAL102      0.0252
     35  CG1      -25.5910   19.6960  -18.6590 C.3   102  VAL102      0.0019
     36  CG2      -24.8340   18.0950  -16.8590 C.3   102  VAL102      0.0019
     37  N        -23.9510   25.0610  -22.2500 N.3   120  PHE120     -0.1241
     38  CA       -24.5360   24.4030  -21.0800 C.3   120  PHE120      0.1605
     39  C        -24.0370   24.9930  -19.7710 C.2   120  PHE120      0.2264
     40  O        -22.8800   25.4210  -19.6740 O.2   120  PHE120     -0.2867
     41  CB       -24.2240   22.8960  -21.0790 C.3   120  PHE120      0.0534
     42  CG       -24.6270   22.1890  -22.3460 C.ar  120  PHE120     -0.0203
     43  CD1      -23.8360   22.2610  -23.4740 C.ar  120  PHE120     -0.0042
     44  CD2      -25.7850   21.4380  -22.3940 C.ar  120  PHE120     -0.0042
     45  CE1      -24.2080   21.6260  -24.6360 C.ar  120  PHE120     -0.0003
     46  CE2      -26.1580   20.7970  -23.5590 C.ar  120  PHE120     -0.0003
     47  CZ       -25.3710   20.8930  -24.6720 C.ar  120  PHE120     -0.0000
     48  N        -23.2090   24.0950  -15.7980 N.3   122  TRP122     -0.1241
     49  CA       -22.7750   23.0160  -14.9130 C.3   122  TRP122      0.1605
     50  C        -22.8350   23.4390  -13.4450 C.2   122  TRP122      0.2264
     51  O        -22.0130   24.2370  -12.9950 O.2   122  TRP122     -0.2867
     52  CB       -21.3460   22.5990  -15.2510 C.3   122  TRP122      0.0550
     53  CG       -21.2020   21.5930  -16.3620 C.ar  122  TRP122      0.0003
     54  CD1      -22.1960   20.8890  -16.9720 C.ar  122  TRP122      0.0946
     55  CD2      -19.9750   21.1800  -16.9840 C.ar  122  TRP122      0.0152
     56  NE1      -21.6630   20.0570  -17.9380 N.ar  122  TRP122     -0.2442
     57  CE2      -20.3000   20.2200  -17.9570 C.ar  122  TRP122      0.0810
     58  CE3      -18.6310   21.5140  -16.7940 C.ar  122  TRP122      0.0012
     59  CZ2      -19.3330   19.6000  -18.7390 C.ar  122  TRP122      0.0191
     60  CZ3      -17.6720   20.9140  -17.5970 C.ar  122  TRP122      0.0001
     61  CH2      -18.0290   19.9600  -18.5450 C.ar  122  TRP122      0.0015
     62  N        -16.2340   14.0320  -21.5460 N.3   149  TYR149     -0.1227
     63  CA       -17.5200   13.3610  -21.6760 C.3   149  TYR149      0.1736
     64  C        -18.3930   14.1000  -22.6770 C.2   149  TYR149      0.2595
     65  O        -18.9460   13.4940  -23.6140 O.2   149  TYR149     -0.2718
     66  CB       -18.2120   13.2490  -20.3060 C.3   149  TYR149      0.0548
     67  CG       -19.5540   12.5310  -20.3400 C.ar  149  TYR149     -0.0200
     68  CD1      -20.6890   13.1620  -20.8440 C.ar  149  TYR149     -0.0009
     69  CD2      -19.6840   11.2180  -19.8750 C.ar  149  TYR149     -0.0009
     70  CE1      -21.9090   12.5170  -20.8880 C.ar  149  TYR149      0.0417
     71  CE2      -20.9080   10.5630  -19.9170 C.ar  149  TYR149      0.0417
     72  CZ       -22.0080   11.2180  -20.4190 C.ar  149  TYR149      0.1957
     73  OH       -23.2200   10.5790  -20.4310 O.3   149  TYR149     -0.2866
     74  N        -18.5080   15.4080  -22.4880 N.am  150  ALA150     -0.1980
     75  CA       -19.3160   16.2220  -23.3800 C.3   150  ALA150      0.1597
     76  C        -18.8170   16.0550  -24.8100 C.2   150  ALA150      0.2287
     77  O        -19.6110   15.8780  -25.7400 O.2   150  ALA150     -0.2864
     78  CB       -19.2870   17.6980  -22.9420 C.3   150  ALA150      0.0319
     79  N        -19.5070   12.2340  -25.9960 N.3   153  TYR153     -0.1227
     80  CA       -20.9280   12.0040  -26.2150 C.3   153  TYR153      0.1736
     81  C        -21.4040   12.6900  -27.5090 C.2   153  TYR153      0.2596
     82  O        -21.9820   12.0560  -28.4070 O.2   153  TYR153     -0.2718
     83  CB       -21.7460   12.4880  -25.0110 C.3   153  TYR153      0.0548
     84  CG       -23.2350   12.2260  -25.1790 C.ar  153  TYR153     -0.0200
     85  CD1      -24.0460   13.1310  -25.8740 C.ar  153  TYR153     -0.0009
     86  CD2      -23.8240   11.0690  -24.6890 C.ar  153  TYR153     -0.0009
     87  CE1      -25.3920   12.8900  -26.0690 C.ar  153  TYR153      0.0417
     88  CE2      -25.1830   10.8350  -24.8670 C.ar  153  TYR153      0.0417
     89  CZ       -25.9560   11.7520  -25.5650 C.ar  153  TYR153      0.1957
     90  OH       -27.3010   11.5340  -25.7530 O.3   153  TYR153     -0.2866
     91  N        -21.1530   13.9870  -27.6110 N.am  154  THR154     -0.1953
     92  CA       -21.6790   14.7420  -28.7460 C.3   154  THR154      0.1897
     93  C        -21.0790   14.2930  -30.0490 C.2   154  THR154      0.2313
     94  O        -21.7810   14.1860  -31.0630 O.2   154  THR154     -0.2863
     95  CB       -21.4400   16.2220  -28.5740 C.3   154  THR154      0.1794
     96  OG1      -21.7970   16.5930  -27.2290 O.3   154  THR154     -0.2208
     97  CG2      -22.2810   16.9970  -29.5790 C.3   154  THR154      0.0378
     98  N        -15.4980   20.6140  -26.8780 N.3   164  TYR164     -0.1241
     99  CA       -16.0000   21.5590  -25.8590 C.3   164  TYR164      0.1605
    100  C        -14.8990   22.2450  -25.0820 C.2   164  TYR164      0.2264
    101  O        -13.7980   21.7210  -24.9160 O.2   164  TYR164     -0.2867
    102  CB       -16.8990   20.8760  -24.8220 C.3   164  TYR164      0.0534
    103  CG       -18.2500   20.4520  -25.3160 C.ar  164  TYR164     -0.0201
    104  CD1      -18.3750   19.3720  -26.1800 C.ar  164  TYR164     -0.0009
    105  CD2      -19.4000   21.0920  -24.8880 C.ar  164  TYR164     -0.0009
    106  CE1      -19.6060   18.9670  -26.6350 C.ar  164  TYR164      0.0417
    107  CE2      -20.6370   20.6750  -25.3190 C.ar  164  TYR164      0.0417
    108  CZ       -20.7280   19.6010  -26.1960 C.ar  164  TYR164      0.1957
    109  OH       -21.9570   19.1740  -26.6520 O.3   164  TYR164     -0.2866
    110  N        -20.0390   25.8420  -20.3560 N.3   179  ILE179     -0.1245
    111  CA       -19.2840   25.2510  -21.4440 C.3   179  ILE179      0.1561
    112  C        -19.8720   25.5790  -22.8250 C.2   179  ILE179      0.2260
    113  O        -21.0400   25.9480  -22.9620 O.2   179  ILE179     -0.2867
    114  CB       -19.1960   23.7030  -21.2890 C.3   179  ILE179      0.0252
    115  CG1      -20.5120   23.0450  -21.7250 C.3   179  ILE179      0.0019
    116  CG2      -18.8210   23.3230  -19.8390 C.3   179  ILE179      0.0019
    117  CD1      -20.5440   21.5220  -21.5860 C.3   179  ILE179      0.0001
@<TRIPOS>BOND
     1    94    93    2
     2    93    92    1
     3    97    95    1
     4    92    95    1
     5    92    91    1
     6    95    96    1
     7    82    81    2
     8     5     6    1
     9     5     2    1
    10     1     2    1
    11     8     6    1
    12     6     7    1
    13    91    81   am
    14    81    80    1
    15     2     3    1
    16    98    99    1
    17   109   108    1
    18   106   108   ar
    19   106   104   ar
    20    80    79    1
    21    80    83    1
    22   108   107   ar
    23   104   103   ar
    24    87    85   ar
    25    87    89   ar
    26     3     4    2
    27    85    84   ar
    28    99   100    1
    29    99   102    1
    30    90    89    1
    31    77    76    2
    32    89    88   ar
    33   107   105   ar
    34   103   105   ar
    35   103   102    1
    36    84    83    1
    37    84    86   ar
    38   100   101    2
    39    88    86   ar
    40    76    75    1
    41    47    45   ar
    42    47    46   ar
    43    45    43   ar
    44    65    64    2
    45    46    44   ar
    46    43    42   ar
    47    75    78    1
    48    75    74    1
    49     9    10    1
    50   113   112    2
    51   112   111    1
    52    64    74   am
    53    64    63    1
    54    10    11    1
    55    44    42   ar
    56    42    41    1
    57    19    18    1
    58    19    13    1
    59    37    38    1
    60   115   117    1
    61   115   114    1
    62    18    17    1
    63    63    62    1
    64    63    66    1
    65   111   114    1
    66   111   110    1
    67   114   116    1
    68    11    13   am
    69    11    12    2
    70    13    14    1
    71    38    41    1
    72    38    39    1
    73    70    68   ar
    74    70    72   ar
    75    68    67   ar
    76    73    72    1
    77    72    71   ar
    78    67    66    1
    79    67    69   ar
    80    17    14    1
    81    71    69   ar
    82    14    15    1
    83    39    40    2
    84    15    16    2
    85    59    61   ar
    86    59    57   ar
    87    35    34    1
    88    61    60   ar
    89    26    28   ar
    90    26    25   ar
    91    28    29   ar
    92    57    56   ar
    93    57    55   ar
    94    56    54   ar
    95    60    58   ar
    96    20    21    1
    97    25    24    1
    98    25    27   ar
    99    29    27   ar
   100    34    36    1
   101    34    31    1
   102    24    21    1
   103    55    58   ar
   104    55    53   ar
   105    54    53   ar
   106    21    22    1
   107    32    33    2
   108    32    31    1
   109    53    52    1
   110    31    30    1
   111    48    49    1
   112    22    23    2
   113    52    49    1
   114    49    50    1
   115    50    51    2
