@<TRIPOS>MOLECULE
tmp/5frwA00.pdb
 117 115 0 0 0
SMALL
GASTEIGER

@<TRIPOS>ATOM
      1  N         53.3280   49.8340   80.3460 N.3    88  LEU88      -0.1245
      2  CA        52.2110   50.5700   79.7850 C.3    88  LEU88       0.1561
      3  C         52.3420   50.6410   78.2780 C.2    88  LEU88       0.2260
      4  O         51.3720   50.4450   77.5520 O.2    88  LEU88      -0.2867
      5  CB        52.1390   51.9880   80.3770 C.3    88  LEU88       0.0270
      6  CG        50.9990   52.9240   79.9370 C.3    88  LEU88       0.0019
      7  CD1       51.3110   53.6920   78.6520 C.3    88  LEU88       0.0001
      8  CD2       49.6910   52.1520   79.8040 C.3    88  LEU88       0.0001
      9  N         50.9040   48.4170   75.3540 N.3    91  GLY91      -0.1210
     10  CA        49.5760   48.6620   74.8150 C.3    91  GLY91       0.1940
     11  C         49.6450   49.4060   73.5020 C.2    91  GLY91       0.2453
     12  O         49.1970   48.8830   72.4910 O.2    91  GLY91      -0.2732
     13  N         50.1930   50.6310   73.5140 N.am   92  PRO92      -0.2728
     14  CA        50.4500   51.3680   72.2720 C.3    92  PRO92       0.1401
     15  C         51.0990   50.5170   71.1720 C.2    92  PRO92       0.2269
     16  O         50.6630   50.5930   70.0270 O.2    92  PRO92      -0.2865
     17  CB        51.3850   52.4880   72.7390 C.3    92  PRO92       0.0296
     18  CG        50.8040   52.8490   74.0800 C.3    92  PRO92       0.0237
     19  CD        50.3860   51.5000   74.6950 C.3    92  PRO92       0.0939
     20  N         48.6490   47.7950   69.9070 N.3    95  HIS95      -0.1241
     21  CA        47.6210   48.4630   69.1150 C.3    95  HIS95       0.1621
     22  C         48.1130   48.7820   67.7040 C.2    95  HIS95       0.2264
     23  O         47.3220   48.8620   66.7640 O.2    95  HIS95      -0.2867
     24  CB        47.1570   49.7440   69.8120 C.3    95  HIS95       0.0745
     25  CG        45.6740   49.8290   69.9940 C.ar   95  HIS95       0.0817
     26  ND1       45.0550   50.9210   70.5640 N.ar   95  HIS95      -0.2268
     27  CD2       44.6850   48.9590   69.6800 C.ar   95  HIS95       0.1154
     28  CE1       43.7500   50.7190   70.5950 C.ar   95  HIS95       0.1986
     29  NE2       43.4990   49.5360   70.0640 N.ar   95  HIS95      -0.2212
     30  N         50.0240   54.5110   67.4420 N.3   103  VAL103     -0.1245
     31  CA        49.9120   55.1770   68.7350 C.3   103  VAL103      0.1561
     32  C         51.2070   55.8540   69.1430 C.2   103  VAL103      0.2260
     33  O         52.2770   55.2540   69.0820 O.2   103  VAL103     -0.2867
     34  CB        49.4990   54.1920   69.8580 C.3   103  VAL103      0.0252
     35  CG1       49.0180   54.9620   71.0850 C.3   103  VAL103      0.0019
     36  CG2       48.3970   53.2670   69.3820 C.3   103  VAL103      0.0019
     37  N         47.5590   60.3230   74.5570 N.3   121  PHE121     -0.1241
     38  CA        48.1910   59.6600   73.4200 C.3   121  PHE121      0.1605
     39  C         47.6630   60.2730   72.1450 C.2   121  PHE121      0.2264
     40  O         46.5100   60.6930   72.0970 O.2   121  PHE121     -0.2867
     41  CB        47.9020   58.1470   73.4120 C.3   121  PHE121      0.0534
     42  CG        48.2470   57.4480   74.6970 C.ar  121  PHE121     -0.0203
     43  CD1       47.4010   57.5120   75.7870 C.ar  121  PHE121     -0.0042
     44  CD2       49.4190   56.7190   74.8080 C.ar  121  PHE121     -0.0042
     45  CE1       47.7240   56.8630   76.9810 C.ar  121  PHE121     -0.0003
     46  CE2       49.7500   56.0730   75.9930 C.ar  121  PHE121     -0.0003
     47  CZ        48.9040   56.1470   77.0770 C.ar  121  PHE121     -0.0000
     48  N         46.6660   59.3600   68.2640 N.3   123  TRP123     -0.1241
     49  CA        46.2680   58.2600   67.4030 C.3   123  TRP123      0.1605
     50  C         46.3110   58.6860   65.9440 C.2   123  TRP123      0.2264
     51  O         45.5210   59.5330   65.5260 O.2   123  TRP123     -0.2867
     52  CB        44.8600   57.7920   67.7220 C.3   123  TRP123      0.0550
     53  CG        44.7500   56.8000   68.8500 C.ar  123  TRP123      0.0003
     54  CD1       45.7680   56.1350   69.4750 C.ar  123  TRP123      0.0946
     55  CD2       43.5400   56.3650   69.4790 C.ar  123  TRP123      0.0152
     56  NE1       45.2600   55.3040   70.4470 N.ar  123  TRP123     -0.2442
     57  CE2       43.8930   55.4280   70.4660 C.ar  123  TRP123      0.0810
     58  CE3       42.1870   56.6740   69.2970 C.ar  123  TRP123      0.0012
     59  CZ2       42.9420   54.7960   71.2680 C.ar  123  TRP123      0.0191
     60  CZ3       41.2440   56.0430   70.1090 C.ar  123  TRP123      0.0001
     61  CH2       41.6300   55.1120   71.0690 C.ar  123  TRP123      0.0015
     62  N         39.6370   49.3220   73.9480 N.3   150  TYR150     -0.1227
     63  CA        40.9310   48.6430   74.0720 C.3   150  TYR150      0.1736
     64  C         41.8680   49.3630   75.0450 C.2   150  TYR150      0.2595
     65  O         42.4590   48.7280   75.9320 O.2   150  TYR150     -0.2718
     66  CB        41.6060   48.5090   72.6960 C.3   150  TYR150      0.0548
     67  CG        42.9470   47.7670   72.7260 C.ar  150  TYR150     -0.0200
     68  CD1       44.1120   48.4030   73.1440 C.ar  150  TYR150     -0.0009
     69  CD2       43.0480   46.4500   72.2970 C.ar  150  TYR150     -0.0009
     70  CE1       45.3270   47.7390   73.1750 C.ar  150  TYR150      0.0417
     71  CE2       44.2670   45.7800   72.3050 C.ar  150  TYR150      0.0417
     72  CZ        45.3970   46.4250   72.7470 C.ar  150  TYR150      0.1957
     73  OH        46.6080   45.7650   72.7590 O.3   150  TYR150     -0.2866
     74  N         42.0150   50.6740   74.8920 N.am  151  ALA151     -0.1980
     75  CA        42.8820   51.4300   75.8060 C.3   151  ALA151      0.1597
     76  C         42.3820   51.3010   77.2530 C.2   151  ALA151      0.2287
     77  O         43.1590   51.1550   78.2070 O.2   151  ALA151     -0.2864
     78  CB        42.9490   52.8910   75.3900 C.3   151  ALA151      0.0319
     79  N         43.0240   47.4650   78.3700 N.3   154  TYR154     -0.1227
     80  CA        44.4560   47.2440   78.5430 C.3   154  TYR154      0.1736
     81  C         44.9870   47.9540   79.7900 C.2   154  TYR154      0.2596
     82  O         45.7010   47.3640   80.6080 O.2   154  TYR154     -0.2718
     83  CB        45.2460   47.7200   77.3060 C.3   154  TYR154      0.0548
     84  CG        46.7300   47.5070   77.4690 C.ar  154  TYR154     -0.0200
     85  CD1       47.5270   48.4720   78.0740 C.ar  154  TYR154     -0.0009
     86  CD2       47.3260   46.3160   77.0600 C.ar  154  TYR154     -0.0009
     87  CE1       48.8750   48.2590   78.2740 C.ar  154  TYR154      0.0417
     88  CE2       48.6720   46.1000   77.2370 C.ar  154  TYR154      0.0417
     89  CZ        49.4430   47.0770   77.8530 C.ar  154  TYR154      0.1957
     90  OH        50.7920   46.8730   78.0390 O.3   154  TYR154     -0.2866
     91  N         44.6530   49.2300   79.9360 N.am  155  THR155     -0.1953
     92  CA        45.2230   50.0130   81.0300 C.3   155  THR155      0.1897
     93  C         44.6400   49.6170   82.3630 C.2   155  THR155      0.2313
     94  O         45.3450   49.5880   83.3710 O.2   155  THR155     -0.2863
     95  CB        45.0030   51.4990   80.8050 C.3   155  THR155      0.1794
     96  OG1       45.3820   51.8180   79.4510 O.3   155  THR155     -0.2208
     97  CG2       45.8240   52.3080   81.8050 C.3   155  THR155      0.0378
     98  N         39.0940   55.8970   79.2800 N.3   165  TYR165     -0.1241
     99  CA        39.6200   56.8160   78.2650 C.3   165  TYR165      0.1605
    100  C         38.5340   57.5310   77.5000 C.2   165  TYR165      0.2264
    101  O         37.4440   57.0050   77.3050 O.2   165  TYR165     -0.2867
    102  CB        40.4840   56.0990   77.2440 C.3   165  TYR165      0.0534
    103  CG        41.8560   55.6980   77.7050 C.ar  165  TYR165     -0.0201
    104  CD1       42.0390   54.6140   78.5510 C.ar  165  TYR165     -0.0009
    105  CD2       42.9720   56.3600   77.2320 C.ar  165  TYR165     -0.0009
    106  CE1       43.3040   54.2250   78.9360 C.ar  165  TYR165      0.0417
    107  CE2       44.2380   55.9780   77.5970 C.ar  165  TYR165      0.0417
    108  CZ        44.4050   54.9080   78.4510 C.ar  165  TYR165      0.1957
    109  OH        45.6860   54.5220   78.8070 O.3   165  TYR165     -0.2866
    110  N         43.5740   61.1240   72.7650 N.3   180  ILE180     -0.1245
    111  CA        42.8380   60.5510   73.8760 C.3   180  ILE180      0.1561
    112  C         43.4770   60.8930   75.2080 C.2   180  ILE180      0.2260
    113  O         44.6600   61.2460   75.2650 O.2   180  ILE180     -0.2867
    114  CB        42.7540   59.0180   73.7500 C.3   180  ILE180      0.0252
    115  CG1       44.1090   58.3930   74.1050 C.3   180  ILE180      0.0019
    116  CG2       42.3100   58.6340   72.3250 C.3   180  ILE180      0.0019
    117  CD1       44.1490   56.8460   74.0860 C.3   180  ILE180      0.0001
@<TRIPOS>BOND
     1    51    50    2
     2    50    49    1
     3    23    22    2
     4    49    52    1
     5    49    48    1
     6    30    31    1
     7    22    21    1
     8    52    53    1
     9    31    32    1
    10    31    34    1
    11    53    54   ar
    12    53    55   ar
    13    33    32    2
    14    21    24    1
    15    21    20    1
    16    58    55   ar
    17    58    60   ar
    18    36    34    1
    19    54    56   ar
    20    55    57   ar
    21    27    25   ar
    22    27    29   ar
    23    24    25    1
    24    34    35    1
    25    25    26   ar
    26    16    15    2
    27    29    28   ar
    28    60    61   ar
    29    56    57   ar
    30    57    59   ar
    31    26    28   ar
    32    61    59   ar
    33    15    14    1
    34    40    39    2
    35    39    38    1
    36    14    17    1
    37    14    13    1
    38    69    71   ar
    39    69    67   ar
    40    71    72   ar
    41   116   114    1
    42    12    11    2
    43    66    67    1
    44    66    63    1
    45    67    68   ar
    46    17    18    1
    47    72    73    1
    48    72    70   ar
    49   110   111    1
    50    68    70   ar
    51    41    38    1
    52    41    42    1
    53    38    37    1
    54    11    13   am
    55    11    10    1
    56    13    19    1
    57   114   111    1
    58   114   115    1
    59   111   112    1
    60    62    63    1
    61    63    64    1
    62    18    19    1
    63   117   115    1
    64    42    44   ar
    65    42    43   ar
    66    44    46   ar
    67    10     9    1
    68    74    64   am
    69    74    75    1
    70    64    65    2
    71   112   113    2
    72    78    75    1
    73    43    45   ar
    74    75    76    1
    75    46    47   ar
    76    45    47   ar
    77    86    88   ar
    78    86    84   ar
    79   105   107   ar
    80   105   103   ar
    81    88    89   ar
    82   102   103    1
    83   102    99    1
    84    76    77    2
    85   101   100    2
    86    83    84    1
    87    83    80    1
    88    84    85   ar
    89   100    99    1
    90     4     3    2
    91   107   108   ar
    92   103   104   ar
    93    89    90    1
    94    89    87   ar
    95    85    87   ar
    96    99    98    1
    97     3     2    1
    98    79    80    1
    99   108   109    1
   100   108   106   ar
   101    80    81    1
   102   104   106   ar
   103     7     6    1
   104    96    95    1
   105     2     1    1
   106     2     5    1
   107    81    91   am
   108    81    82    2
   109     8     6    1
   110    91    92    1
   111     6     5    1
   112    95    92    1
   113    95    97    1
   114    92    93    1
   115    93    94    2
