@<TRIPOS>MOLECULE
tmp/5frxA00.pdb
 129 127 0 0 0
SMALL
GASTEIGER

@<TRIPOS>ATOM
      1  N        -29.9220   14.3530  -28.1120 N.3    83  LEU83      -0.1245
      2  CA       -28.8480   15.0970  -27.4830 C.3    83  LEU83       0.1561
      3  C        -28.9680   15.1430  -25.9750 C.2    83  LEU83       0.2260
      4  O        -27.9780   14.9830  -25.2510 O.2    83  LEU83      -0.2867
      5  CB       -28.8320   16.5210  -28.0440 C.3    83  LEU83       0.0270
      6  CG       -27.7240   17.5000  -27.6630 C.3    83  LEU83       0.0019
      7  CD1      -28.0290   18.1830  -26.3450 C.3    83  LEU83       0.0001
      8  CD2      -26.3910   16.7780  -27.6100 C.3    83  LEU83       0.0001
      9  N        -27.4750   12.7990  -23.1530 N.3    86  GLY86      -0.1210
     10  CA       -26.1340   13.0730  -22.6650 C.3    86  GLY86       0.1940
     11  C        -26.1040   13.8110  -21.3330 C.2    86  GLY86       0.2453
     12  O        -25.5830   13.2940  -20.3490 O.2    86  GLY86      -0.2732
     13  N        -26.6440   15.0410  -21.2980 N.am   87  PRO87      -0.2728
     14  CA       -26.7670   15.8010  -20.0550 C.3    87  PRO87       0.1401
     15  C        -27.4660   15.0050  -18.9590 C.2    87  PRO87       0.2269
     16  O        -27.0320   15.0230  -17.8010 O.2    87  PRO87      -0.2865
     17  CB       -27.6020   17.0130  -20.4830 C.3    87  PRO87       0.0296
     18  CG       -27.1650   17.2600  -21.8530 C.3    87  PRO87       0.0237
     19  CD       -26.9460   15.8820  -22.4660 C.3    87  PRO87       0.0939
     20  N        -25.1320   12.2400  -17.6730 N.3    90  HIS90      -0.1241
     21  CA       -24.1220   12.8840  -16.8870 C.3    90  HIS90       0.1621
     22  C        -24.6380   13.2170  -15.5010 C.2    90  HIS90       0.2264
     23  O        -23.9160   13.1730  -14.5600 O.2    90  HIS90      -0.2867
     24  CB       -23.6110   14.1390  -17.5850 C.3    90  HIS90       0.0745
     25  CG       -22.1410   14.3700  -17.4380 C.ar   90  HIS90       0.0817
     26  ND1      -21.5460   15.5640  -17.7420 N.ar   90  HIS90      -0.2268
     27  CD2      -21.1510   13.5620  -17.0160 C.ar   90  HIS90       0.1154
     28  CE1      -20.2560   15.4790  -17.5280 C.ar   90  HIS90       0.1986
     29  NE2      -19.9890   14.2750  -17.0870 N.ar   90  HIS90      -0.2212
     30  N        -26.3600   19.2220  -15.0070 N.3    98  VAL98      -0.1245
     31  CA       -26.2380   19.7900  -16.3350 C.3    98  VAL98       0.1561
     32  C        -27.4820   20.5860  -16.6410 C.2    98  VAL98       0.2260
     33  O        -28.5920   20.1320  -16.3710 O.2    98  VAL98      -0.2867
     34  CB       -26.0420   18.6940  -17.4060 C.3    98  VAL98       0.0252
     35  CG1      -25.7260   19.3220  -18.7440 C.3    98  VAL98       0.0019
     36  CG2      -24.9280   17.7570  -16.9910 C.3    98  VAL98       0.0019
     37  N        -24.2590   21.4010  -35.2950 N.3   112  TYR112     -0.1241
     38  CA       -24.4270   21.3800  -33.8480 C.3   112  TYR112      0.1605
     39  C        -23.7870   22.6100  -33.2400 C.2   112  TYR112      0.2264
     40  O        -22.6190   22.8960  -33.4830 O.2   112  TYR112     -0.2867
     41  CB       -23.8020   20.1200  -33.2120 C.3   112  TYR112      0.0534
     42  CG       -23.9330   20.1190  -31.7040 C.ar  112  TYR112     -0.0201
     43  CD1      -25.0920   19.6390  -31.0910 C.ar  112  TYR112     -0.0009
     44  CD2      -22.9220   20.6350  -30.8900 C.ar  112  TYR112     -0.0009
     45  CE1      -25.2360   19.6560  -29.7150 C.ar  112  TYR112      0.0417
     46  CE2      -23.0650   20.6520  -29.4990 C.ar  112  TYR112      0.0417
     47  CZ       -24.2240   20.1640  -28.9310 C.ar  112  TYR112      0.1957
     48  OH       -24.3860   20.1740  -27.5730 O.3   112  TYR112     -0.2866
     49  N        -24.0250   24.9430  -22.3240 N.3   116  PHE116     -0.1241
     50  CA       -24.6180   24.3510  -21.1410 C.3   116  PHE116      0.1605
     51  C        -24.1000   25.0060  -19.8780 C.2   116  PHE116      0.2264
     52  O        -22.9850   25.5160  -19.8500 O.2   116  PHE116     -0.2867
     53  CB       -24.3350   22.8410  -21.1110 C.3   116  PHE116      0.0534
     54  CG       -24.8440   22.1110  -22.3180 C.ar  116  PHE116     -0.0203
     55  CD1      -24.1600   22.1600  -23.5090 C.ar  116  PHE116     -0.0042
     56  CD2      -26.0050   21.3660  -22.2500 C.ar  116  PHE116     -0.0042
     57  CE1      -24.6310   21.4910  -24.6130 C.ar  116  PHE116     -0.0003
     58  CE2      -26.4770   20.6940  -23.3530 C.ar  116  PHE116     -0.0003
     59  CZ       -25.7930   20.7510  -24.5280 C.ar  116  PHE116     -0.0000
     60  N        -23.1710   24.0960  -15.8760 N.3   118  TRP118     -0.1241
     61  CA       -22.7960   22.9740  -15.0040 C.3   118  TRP118      0.1605
     62  C        -22.8620   23.3580  -13.5330 C.2   118  TRP118      0.2264
     63  O        -22.0150   24.0990  -13.0530 O.2   118  TRP118     -0.2867
     64  CB       -21.3700   22.4760  -15.3010 C.3   118  TRP118      0.0550
     65  CG       -21.2370   21.4760  -16.4150 C.ar  118  TRP118      0.0003
     66  CD1      -22.2310   20.7410  -16.9870 C.ar  118  TRP118      0.0946
     67  CD2      -20.0270   21.1320  -17.1170 C.ar  118  TRP118      0.0152
     68  NE1      -21.7140   19.9520  -17.9960 N.ar  118  TRP118     -0.2442
     69  CE2      -20.3640   20.1790  -18.0970 C.ar  118  TRP118      0.0810
     70  CE3      -18.6930   21.5390  -17.0090 C.ar  118  TRP118      0.0012
     71  CZ2      -19.4160   19.6210  -18.9560 C.ar  118  TRP118      0.0191
     72  CZ3      -17.7540   20.9870  -17.8800 C.ar  118  TRP118      0.0001
     73  CH2      -18.1220   20.0390  -18.8310 C.ar  118  TRP118      0.0015
     74  N        -16.1980   14.0330  -21.6250 N.3   145  TYR145     -0.1227
     75  CA       -17.4650   13.3220  -21.7610 C.3   145  TYR145      0.1736
     76  C        -18.3680   14.0390  -22.7530 C.2   145  TYR145      0.2595
     77  O        -18.9070   13.4140  -23.6630 O.2   145  TYR145     -0.2718
     78  CB       -18.1470   13.1790  -20.3980 C.3   145  TYR145      0.0548
     79  CG       -19.4990   12.4840  -20.4350 C.ar  145  TYR145     -0.0200
     80  CD1      -20.6160   13.1510  -20.9110 C.ar  145  TYR145     -0.0009
     81  CD2      -19.6640   11.1750  -19.9530 C.ar  145  TYR145     -0.0009
     82  CE1      -21.8340   12.5590  -20.9560 C.ar  145  TYR145      0.0417
     83  CE2      -20.9110   10.5620  -19.9810 C.ar  145  TYR145      0.0417
     84  CZ       -21.9980   11.2670  -20.4930 C.ar  145  TYR145      0.1957
     85  OH       -23.2710   10.7170  -20.5460 O.3   145  TYR145     -0.2866
     86  N        -18.5260   15.3480  -22.5800 N.am  146  ALA146     -0.1980
     87  CA       -19.3070   16.1460  -23.5120 C.3   146  ALA146      0.1597
     88  C        -18.8400   15.9070  -24.9470 C.2   146  ALA146      0.2287
     89  O        -19.6330   15.5600  -25.8310 O.2   146  ALA146     -0.2864
     90  CB       -19.2090   17.6210  -23.1610 C.3   146  ALA146      0.0319
     91  N        -19.5560   12.0720  -25.9630 N.3   149  TYR149     -0.1227
     92  CA       -20.9720   11.8560  -26.2270 C.3   149  TYR149      0.1736
     93  C        -21.4460   12.4590  -27.5620 C.2   149  TYR149      0.2596
     94  O        -22.1440   11.8000  -28.3480 O.2   149  TYR149     -0.2718
     95  CB       -21.8420   12.4350  -25.1100 C.3   149  TYR149      0.0548
     96  CG       -23.3220   12.0760  -25.2560 C.ar  149  TYR149     -0.0200
     97  CD1      -24.1620   12.8260  -26.0950 C.ar  149  TYR149     -0.0009
     98  CD2      -23.8770   10.9700  -24.5890 C.ar  149  TYR149     -0.0009
     99  CE1      -25.5040   12.5040  -26.2620 C.ar  149  TYR149      0.0417
    100  CE2      -25.2350   10.6390  -24.7520 C.ar  149  TYR149      0.0417
    101  CZ       -26.0390   11.4160  -25.6020 C.ar  149  TYR149      0.1957
    102  OH       -27.3770   11.1280  -25.7940 O.3   149  TYR149     -0.2866
    103  N        -21.0830   13.7130  -27.8090 N.am  150  THR150     -0.1953
    104  CA       -21.7130   14.4820  -28.8840 C.3   150  THR150      0.1897
    105  C        -21.1010   14.1430  -30.2010 C.2   150  THR150      0.2313
    106  O        -21.7830   14.1350  -31.2130 O.2   150  THR150     -0.2863
    107  CB       -21.6100   15.9960  -28.6370 C.3   150  THR150      0.1794
    108  OG1      -22.3850   16.3140  -27.4790 O.3   150  THR150     -0.2208
    109  CG2      -22.1480   16.7870  -29.8130 C.3   150  THR150      0.0378
    110  N        -15.6370   20.4920  -26.9550 N.3   160  TYR160     -0.1241
    111  CA       -16.1310   21.4790  -25.9950 C.3   160  TYR160      0.1605
    112  C        -14.9930   22.1710  -25.2580 C.2   160  TYR160      0.2264
    113  O        -13.9240   21.5960  -25.0740 O.2   160  TYR160     -0.2867
    114  CB       -17.0370   20.8420  -24.9480 C.3   160  TYR160      0.0534
    115  CG       -18.3800   20.3290  -25.4050 C.ar  160  TYR160     -0.0201
    116  CD1      -18.4850   19.2210  -26.2390 C.ar  160  TYR160     -0.0009
    117  CD2      -19.5420   20.9160  -24.9510 C.ar  160  TYR160     -0.0009
    118  CE1      -19.7070   18.7380  -26.6240 C.ar  160  TYR160      0.0417
    119  CE2      -20.7670   20.4440  -25.3330 C.ar  160  TYR160      0.0417
    120  CZ       -20.8470   19.3500  -26.1630 C.ar  160  TYR160      0.1957
    121  OH       -22.0850   18.8750  -26.5230 O.3   160  TYR160     -0.2866
    122  N        -20.0140   25.8250  -20.5280 N.3   175  ILE175     -0.1245
    123  CA       -19.3220   25.1760  -21.6400 C.3   175  ILE175      0.1561
    124  C        -20.0070   25.4370  -22.9730 C.2   175  ILE175      0.2260
    125  O        -21.2190   25.6550  -23.0450 O.2   175  ILE175     -0.2867
    126  CB       -19.2050   23.6340  -21.4320 C.3   175  ILE175      0.0252
    127  CG1      -20.4860   22.9300  -21.9010 C.3   175  ILE175      0.0019
    128  CG2      -18.8430   23.2990  -19.9580 C.3   175  ILE175      0.0019
    129  CD1      -20.6170   21.4570  -21.4410 C.3   175  ILE175      0.0001
@<TRIPOS>BOND
     1    37    38    1
     2    38    39    1
     3    38    41    1
     4    40    39    2
     5    41    42    1
     6    42    43   ar
     7    42    44   ar
     8   106   105    2
     9    43    45   ar
    10    44    46   ar
    11   105   104    1
    12   109   107    1
    13    45    47   ar
    14    46    47   ar
    15    47    48    1
    16   104   107    1
    17   104   103    1
    18   107   108    1
    19    94    93    2
    20     1     2    1
    21     5     6    1
    22     5     2    1
    23   103    93   am
    24     6     8    1
    25     6     7    1
    26    93    92    1
    27     2     3    1
    28   110   111    1
    29   118   116   ar
    30   118   120   ar
    31   121   120    1
    32    99    97   ar
    33    99   101   ar
    34   116   115   ar
    35    92    91    1
    36    92    95    1
    37   120   119   ar
    38    97    96   ar
    39   111   112    1
    40   111   114    1
    41     3     4    2
    42    89    88    2
    43   102   101    1
    44   101   100   ar
    45   115   117   ar
    46   115   114    1
    47   119   117   ar
    48   112   113    2
    49    96    95    1
    50    96    98   ar
    51    88    87    1
    52   100    98   ar
    53    57    59   ar
    54    57    55   ar
    55    59    58   ar
    56    77    76    2
    57    87    90    1
    58    87    86    1
    59    55    54   ar
    60    58    56   ar
    61     9    10    1
    62   125   124    2
    63   124   123    1
    64    76    86   am
    65    76    75    1
    66    10    11    1
    67    19    18    1
    68    19    13    1
    69    49    50    1
    70    54    56   ar
    71    54    53    1
    72   127   129    1
    73   127   126    1
    74    18    17    1
    75    75    74    1
    76    75    78    1
    77   123   126    1
    78   123   122    1
    79   126   128    1
    80    11    13   am
    81    11    12    2
    82    13    14    1
    83    50    53    1
    84    50    51    1
    85    82    80   ar
    86    82    84   ar
    87    80    79   ar
    88    85    84    1
    89    84    83   ar
    90    17    14    1
    91    79    78    1
    92    79    81   ar
    93    14    15    1
    94    83    81   ar
    95    51    52    2
    96    15    16    2
    97    71    73   ar
    98    71    69   ar
    99    73    72   ar
   100    35    34    1
   101    69    68   ar
   102    69    67   ar
   103    68    66   ar
   104    72    70   ar
   105    26    28   ar
   106    26    25   ar
   107    20    21    1
   108    24    25    1
   109    24    21    1
   110    28    29   ar
   111    25    27   ar
   112    34    36    1
   113    34    31    1
   114    67    70   ar
   115    67    65   ar
   116    29    27   ar
   117    66    65   ar
   118    21    22    1
   119    32    33    2
   120    32    31    1
   121    65    64    1
   122    31    30    1
   123    60    61    1
   124    22    23    2
   125    64    61    1
   126    61    62    1
   127    62    63    2
