@<TRIPOS>MOLECULE
tmp/5fryB00.pdb
 117 115 0 0 0
SMALL
GASTEIGER

@<TRIPOS>ATOM
      1  N        -16.7260   -5.3200   10.6320 N.3    82  LEU82      -0.1245
      2  CA       -15.8410   -5.7660    9.5750 C.3    82  LEU82       0.1561
      3  C        -16.6510   -6.0590    8.3580 C.2    82  LEU82       0.2260
      4  O        -16.2760   -5.7220    7.2850 O.2    82  LEU82      -0.2867
      5  CB       -15.1860   -7.0510    9.9660 C.3    82  LEU82       0.0270
      6  CG       -14.2890   -7.7950    9.0100 C.3    82  LEU82       0.0019
      7  CD1      -15.0240   -8.4560    7.8900 C.3    82  LEU82       0.0001
      8  CD2      -13.2500   -6.8810    8.4830 C.3    82  LEU82       0.0001
      9  N        -17.5140   -3.7620    5.2760 N.3    85  GLY85      -0.1210
     10  CA       -16.6030   -3.4860    4.1750 C.3    85  GLY85       0.1940
     11  C        -16.9650   -4.2780    2.9280 C.2    85  GLY85       0.2453
     12  O        -17.2150   -3.7040    1.8720 O.2    85  GLY85      -0.2732
     13  N        -16.9880   -5.6110    3.0460 N.am   86  PRO86      -0.2728
     14  CA       -17.4770   -6.4880    1.9880 C.3    86  PRO86       0.1401
     15  C        -18.8450   -6.0580    1.4760 C.2    86  PRO86       0.2269
     16  O        -19.0650   -6.0690    0.2630 O.2    86  PRO86      -0.2865
     17  CB       -17.5390   -7.8500    2.6720 C.3    86  PRO86       0.0296
     18  CG       -16.4130   -7.8110    3.6330 C.3    86  PRO86       0.0237
     19  CD       -16.3210   -6.3790    4.1170 C.3    86  PRO86       0.0939
     20  N        -18.4150   -2.7200   -0.5980 N.3    89  HIS89      -0.1241
     21  CA       -17.6960   -3.0790   -1.8180 C.3    89  HIS89       0.1621
     22  C        -18.6510   -3.7290   -2.8630 C.2    89  HIS89       0.2264
     23  O        -18.5720   -3.4560   -4.0720 O.2    89  HIS89      -0.2867
     24  CB       -16.5560   -4.0280   -1.4470 C.3    89  HIS89       0.0745
     25  CG       -15.2410   -3.7200   -2.1090 C.ar   89  HIS89       0.0817
     26  ND1      -14.1450   -4.5300   -1.9480 N.ar   89  HIS89      -0.2268
     27  CD2      -14.8380   -2.6880   -2.8850 C.ar   89  HIS89       0.1154
     28  CE1      -13.1180   -4.0250   -2.6100 C.ar   89  HIS89       0.1986
     29  NE2      -13.5160   -2.9100   -3.1920 N.ar   89  HIS89      -0.2212
     30  N        -18.6400  -10.1130   -2.7190 N.3    97  VAL97      -0.1245
     31  CA       -17.7370  -10.5950   -1.6850 C.3    97  VAL97       0.1561
     32  C        -18.4320  -11.6330   -0.8300 C.2    97  VAL97       0.2260
     33  O        -19.5470  -11.4250   -0.3560 O.2    97  VAL97      -0.2867
     34  CB       -17.2160   -9.4530   -0.7870 C.3    97  VAL97       0.0252
     35  CG1      -16.1060   -9.9650    0.1570 C.3    97  VAL97       0.0019
     36  CG2      -16.6940   -8.2880   -1.6340 C.3    97  VAL97       0.0019
     37  N        -11.4910  -14.1430    2.2300 N.3   115  PHE115     -0.1241
     38  CA       -12.7530  -13.8380    1.5640 C.3   115  PHE115      0.1605
     39  C        -12.7740  -14.3430    0.1280 C.2   115  PHE115      0.2264
     40  O        -11.7330  -14.4240   -0.5300 O.2   115  PHE115     -0.2867
     41  CB       -13.0120  -12.3340    1.5340 C.3   115  PHE115      0.0534
     42  CG       -13.0360  -11.6960    2.8660 C.ar  115  PHE115     -0.0203
     43  CD1      -11.8780  -11.5830    3.6080 C.ar  115  PHE115     -0.0042
     44  CD2      -14.2070  -11.1690    3.3700 C.ar  115  PHE115     -0.0042
     45  CE1      -11.9010  -10.9840    4.8470 C.ar  115  PHE115     -0.0003
     46  CE2      -14.2190  -10.5420    4.5800 C.ar  115  PHE115     -0.0003
     47  CZ       -13.0720  -10.4530    5.3160 C.ar  115  PHE115     -0.0000
     48  N        -14.0220  -13.5960   -3.7480 N.3   117  TRP117     -0.1241
     49  CA       -14.3830  -12.5390   -4.7010 C.3   117  TRP117      0.1605
     50  C        -14.9240  -13.1290   -5.9970 C.2   117  TRP117      0.2264
     51  O        -14.1980  -13.7810   -6.7510 O.2   117  TRP117     -0.2867
     52  CB       -13.1880  -11.6490   -5.0420 C.3   117  TRP117      0.0550
     53  CG       -12.9060  -10.5620   -4.0460 C.ar  117  TRP117      0.0003
     54  CD1      -13.6940  -10.1910   -2.9880 C.ar  117  TRP117      0.0946
     55  CD2      -11.7500   -9.7230   -3.9990 C.ar  117  TRP117      0.0152
     56  NE1      -13.0890   -9.1730   -2.2840 N.ar  117  TRP117     -0.2442
     57  CE2      -11.8840   -8.8750   -2.8800 C.ar  117  TRP117      0.0810
     58  CE3      -10.5860   -9.6260   -4.7760 C.ar  117  TRP117      0.0012
     59  CZ2      -10.9360   -7.9040   -2.5500 C.ar  117  TRP117      0.0191
     60  CZ3       -9.6320   -8.6740   -4.4350 C.ar  117  TRP117      0.0001
     61  CH2       -9.8180   -7.8250   -3.3330 C.ar  117  TRP117      0.0015
     62  N         -8.6720   -1.4040   -1.3170 N.3   144  TYR144     -0.1227
     63  CA        -9.8790   -1.1760   -0.5140 C.3   144  TYR144      0.1736
     64  C         -9.9100   -2.0170    0.7730 C.2   144  TYR144      0.2595
     65  O        -10.0960   -1.4920    1.8750 O.2   144  TYR144     -0.2718
     66  CB       -11.1150   -1.4710   -1.3590 C.3   144  TYR144      0.0548
     67  CG       -12.4270   -1.2100   -0.6580 C.ar  144  TYR144     -0.0200
     68  CD1      -12.9240   -2.1010    0.3020 C.ar  144  TYR144     -0.0009
     69  CD2      -13.1740   -0.0880   -0.9590 C.ar  144  TYR144     -0.0009
     70  CE1      -14.1040   -1.8690    0.9460 C.ar  144  TYR144      0.0417
     71  CE2      -14.3710    0.1590   -0.3090 C.ar  144  TYR144      0.0417
     72  CZ       -14.8270   -0.7270    0.6320 C.ar  144  TYR144      0.1957
     73  OH       -16.0200   -0.4760    1.2380 O.3   144  TYR144     -0.2866
     74  N         -9.7510   -3.3290    0.6270 N.am  145  ALA145     -0.1980
     75  CA        -9.7500   -4.2170    1.7940 C.3   145  ALA145      0.1597
     76  C         -8.7500   -3.7520    2.8510 C.2   145  ALA145      0.2287
     77  O         -9.0750   -3.6190    4.0580 O.2   145  ALA145     -0.2864
     78  CB        -9.4350   -5.6360    1.3650 C.3   145  ALA145      0.0319
     79  N         -9.7520   -0.2770    4.4310 N.3   148  TYR148     -0.1227
     80  CA       -10.9130   -0.4040    5.3010 C.3   148  TYR148      0.1736
     81  C        -10.5740   -1.1030    6.6090 C.2   148  TYR148      0.2596
     82  O        -10.8470   -0.5850    7.6910 O.2   148  TYR148     -0.2718
     83  CB       -12.0290   -1.1700    4.5920 C.3   148  TYR148      0.0548
     84  CG       -13.2830   -1.3660    5.4410 C.ar  148  TYR148     -0.0200
     85  CD1      -13.3810   -2.4140    6.3520 C.ar  148  TYR148     -0.0009
     86  CD2      -14.3740   -0.5020    5.3150 C.ar  148  TYR148     -0.0009
     87  CE1      -14.5160   -2.5870    7.1220 C.ar  148  TYR148      0.0417
     88  CE2      -15.5080   -0.6700    6.0830 C.ar  148  TYR148      0.0417
     89  CZ       -15.5710   -1.7090    6.9840 C.ar  148  TYR148      0.1957
     90  OH       -16.6950   -1.8820    7.7420 O.3   148  TYR148     -0.2866
     91  N         -9.9920   -2.2880    6.5070 N.am  149  THR149     -0.1953
     92  CA        -9.7320   -3.0660    7.6980 C.3   149  THR149      0.1897
     93  C         -8.6400   -2.3970    8.5400 C.2   149  THR149      0.2313
     94  O         -8.7070   -2.4580    9.7590 O.2   149  THR149     -0.2863
     95  CB        -9.3600   -4.5140    7.3700 C.3   149  THR149      0.1794
     96  OG1      -10.2530   -5.0270    6.3660 O.3   149  THR149     -0.2208
     97  CG2       -9.4930   -5.3780    8.6340 C.3   149  THR149      0.0378
     98  N         -3.5140   -7.0560    2.7710 N.3   159  TYR159     -0.1241
     99  CA        -4.1950   -8.1300    2.0580 C.3   159  TYR159      0.1605
    100  C         -3.4530   -8.5550    0.7870 C.2   159  TYR159      0.2264
    101  O         -2.7160   -7.7760    0.1780 O.2   159  TYR159     -0.2867
    102  CB        -5.6130   -7.7200    1.6460 C.3   159  TYR159      0.0534
    103  CG        -6.6780   -7.7050    2.7220 C.ar  159  TYR159     -0.0201
    104  CD1       -6.7960   -6.6310    3.5990 C.ar  159  TYR159     -0.0009
    105  CD2       -7.6150   -8.7170    2.8130 C.ar  159  TYR159     -0.0009
    106  CE1       -7.7730   -6.5940    4.5510 C.ar  159  TYR159      0.0417
    107  CE2       -8.6000   -8.6790    3.7830 C.ar  159  TYR159      0.0417
    108  CZ        -8.6840   -7.6100    4.6370 C.ar  159  TYR159      0.1957
    109  OH        -9.6590   -7.5550    5.6150 O.3   159  TYR159     -0.2866
    110  N         -8.8520  -13.9380   -1.2480 N.3   174  ILE174     -0.1245
    111  CA        -7.9150  -13.0590   -0.5780 C.3   174  ILE174      0.1561
    112  C         -7.7340  -13.3790    0.8910 C.2   174  ILE174      0.2260
    113  O         -8.5800  -14.0000    1.5510 O.2   174  ILE174     -0.2867
    114  CB        -8.3300  -11.5890   -0.7170 C.3   174  ILE174      0.0252
    115  CG1       -9.3390  -11.2350    0.3580 C.3   174  ILE174      0.0019
    116  CG2       -8.9130  -11.3270   -2.1210 C.3   174  ILE174      0.0019
    117  CD1       -9.7410   -9.7630    0.2780 C.3   174  ILE174      0.0001
@<TRIPOS>BOND
     1    51    50    2
     2    50    49    1
     3    52    49    1
     4    52    53    1
     5    58    60   ar
     6    58    55   ar
     7    49    48    1
     8    60    61   ar
     9    23    22    2
    10    53    55   ar
    11    53    54   ar
    12    55    57   ar
    13    61    59   ar
    14    29    27   ar
    15    29    28   ar
    16    54    56   ar
    17    27    25   ar
    18    57    59   ar
    19    57    56   ar
    20    22    21    1
    21    30    31    1
    22    28    26   ar
    23   116   114    1
    24    25    26   ar
    25    25    24    1
    26    21    24    1
    27    21    20    1
    28    31    32    1
    29    31    34    1
    30    36    34    1
    31    66    67    1
    32    66    63    1
    33    62    63    1
    34   110   111    1
    35    69    67   ar
    36    69    71   ar
    37    32    33    2
    38    34    35    1
    39   114   111    1
    40   114   115    1
    41    67    68   ar
    42   111   112    1
    43    40    39    2
    44    63    64    1
    45    71    72   ar
    46    39    38    1
    47   101   100    2
    48    16    15    2
    49   117   115    1
    50    68    70   ar
    51    74    64   am
    52    74    75    1
    53    72    70   ar
    54    72    73    1
    55    64    65    2
    56   100    99    1
    57   112   113    2
    58    78    75    1
    59    15    14    1
    60    41    38    1
    61    41    42    1
    62    38    37    1
    63   102    99    1
    64   102   103    1
    65    75    76    1
    66    12    11    2
    67    14    17    1
    68    14    13    1
    69    99    98    1
    70    17    18    1
    71   103   105   ar
    72   103   104   ar
    73   105   107   ar
    74    76    77    2
    75    42    44   ar
    76    42    43   ar
    77    11    13   am
    78    11    10    1
    79    13    19    1
    80    44    46   ar
    81   104   106   ar
    82    43    45   ar
    83    18    19    1
    84   107   108   ar
    85    10     9    1
    86    79    80    1
    87   106   108   ar
    88    46    47   ar
    89    83    80    1
    90    83    84    1
    91   108   109    1
    92    45    47   ar
    93    80    81    1
    94    86    84   ar
    95    86    88   ar
    96    84    85   ar
    97    88    89   ar
    98    85    87   ar
    99    96    95    1
   100    91    81   am
   101    91    92    1
   102    81    82    2
   103    89    87   ar
   104    89    90    1
   105     4     3    2
   106    95    92    1
   107    95    97    1
   108    92    93    1
   109     7     6    1
   110     3     2    1
   111     8     6    1
   112    93    94    2
   113     6     5    1
   114     2     5    1
   115     2     1    1
