@<TRIPOS>MOLECULE
tmp/5frzA00.pdb
 117 115 0 0 0
SMALL
GASTEIGER

@<TRIPOS>ATOM
      1  N        -29.6820   14.5670  -27.9580 N.3    82  LEU82      -0.1245
      2  CA       -28.6210   15.3320  -27.3200 C.3    82  LEU82       0.1561
      3  C        -28.8030   15.3530  -25.8020 C.2    82  LEU82       0.2260
      4  O        -27.8440   15.1960  -25.0330 O.2    82  LEU82      -0.2867
      5  CB       -28.6110   16.7580  -27.8880 C.3    82  LEU82       0.0270
      6  CG       -27.4920   17.7220  -27.4980 C.3    82  LEU82       0.0019
      7  CD1      -27.8190   18.4720  -26.2110 C.3    82  LEU82       0.0001
      8  CD2      -26.1530   16.9780  -27.3800 C.3    82  LEU82       0.0001
      9  N        -27.5110   12.9860  -22.9440 N.3    85  GLY85      -0.1210
     10  CA       -26.1420   13.1600  -22.4930 C.3    85  GLY85       0.1940
     11  C        -26.1010   13.8180  -21.1310 C.2    85  GLY85       0.2453
     12  O        -25.6470   13.1980  -20.1550 O.2    85  GLY85      -0.2732
     13  N        -26.5910   15.0690  -21.0460 N.am   86  PRO86      -0.2728
     14  CA       -26.7080   15.7640  -19.7580 C.3    86  PRO86       0.1401
     15  C        -27.4720   14.9650  -18.7040 C.2    86  PRO86       0.2269
     16  O        -27.0980   14.9940  -17.5260 O.2    86  PRO86      -0.2865
     17  CB       -27.4600   17.0460  -20.1360 C.3    86  PRO86       0.0296
     18  CG       -26.9710   17.3300  -21.5240 C.3    86  PRO86       0.0237
     19  CD       -26.8860   15.9750  -22.1700 C.3    86  PRO86       0.0939
     20  N        -25.1430   12.2860  -17.4200 N.3    89  HIS89      -0.1241
     21  CA       -24.1110   12.9510  -16.6370 C.3    89  HIS89       0.1621
     22  C        -24.6370   13.3010  -15.2510 C.2    89  HIS89       0.2264
     23  O        -23.8780   13.3620  -14.2840 O.2    89  HIS89      -0.2867
     24  CB       -23.6260   14.2140  -17.3510 C.3    89  HIS89       0.0745
     25  CG       -22.1360   14.3170  -17.4510 C.ar   89  HIS89       0.0817
     26  ND1      -21.2910   13.3050  -17.0490 N.ar   89  HIS89      -0.2268
     27  CD2      -21.3390   15.3120  -17.9080 C.ar   89  HIS89       0.1154
     28  CE1      -20.0390   13.6720  -17.2540 C.ar   89  HIS89       0.1986
     29  NE2      -20.0400   14.8860  -17.7750 N.ar   89  HIS89      -0.2212
     30  N        -26.7480   19.8400  -15.2960 N.3    97  VAL97      -0.1245
     31  CA       -26.6320   20.6500  -16.4960 C.3    97  VAL97       0.1561
     32  C        -27.8720   21.4850  -16.7090 C.2    97  VAL97       0.2260
     33  O        -28.9960   21.0100  -16.5000 O.2    97  VAL97      -0.2867
     34  CB       -26.4380   19.7780  -17.7630 C.3    97  VAL97       0.0252
     35  CG1      -25.8990   20.6190  -18.9030 C.3    97  VAL97       0.0019
     36  CG2      -25.5270   18.6170  -17.4890 C.3    97  VAL97       0.0019
     37  N        -23.9080   25.4150  -22.2610 N.3   115  PHE115     -0.1241
     38  CA       -24.5490   24.8470  -21.0780 C.3   115  PHE115      0.1605
     39  C        -23.9910   25.4050  -19.7710 C.2   115  PHE115      0.2264
     40  O        -22.8350   25.8440  -19.7120 O.2   115  PHE115     -0.2867
     41  CB       -24.4050   23.3180  -21.0870 C.3   115  PHE115      0.0534
     42  CG       -24.9170   22.6710  -22.3470 C.ar  115  PHE115     -0.0203
     43  CD1      -24.1590   22.6820  -23.5120 C.ar  115  PHE115     -0.0042
     44  CD2      -26.1520   22.0460  -22.3690 C.ar  115  PHE115     -0.0042
     45  CE1      -24.6340   22.1060  -24.6780 C.ar  115  PHE115     -0.0003
     46  CE2      -26.6300   21.4630  -23.5370 C.ar  115  PHE115     -0.0003
     47  CZ       -25.8680   21.4930  -24.6840 C.ar  115  PHE115     -0.0000
     48  N        -23.0090   24.2620  -15.8860 N.3   117  TRP117     -0.1241
     49  CA       -22.6990   23.1500  -15.0040 C.3   117  TRP117      0.1605
     50  C        -22.7830   23.6270  -13.5720 C.2   117  TRP117      0.2264
     51  O        -22.0760   24.5610  -13.1750 O.2   117  TRP117     -0.2867
     52  CB       -21.3060   22.6040  -15.2670 C.3   117  TRP117      0.0550
     53  CG       -21.2270   21.5650  -16.3550 C.ar  117  TRP117      0.0003
     54  CD1      -22.2560   20.8580  -16.9120 C.ar  117  TRP117      0.0946
     55  CD2      -20.0390   21.1270  -17.0030 C.ar  117  TRP117      0.0152
     56  NE1      -21.7720   19.9970  -17.8770 N.ar  117  TRP117     -0.2442
     57  CE2      -20.4090   20.1450  -17.9460 C.ar  117  TRP117      0.0810
     58  CE3      -18.6900   21.4660  -16.8740 C.ar  117  TRP117      0.0012
     59  CZ2      -19.4750   19.4960  -18.7470 C.ar  117  TRP117      0.0191
     60  CZ3      -17.7620   20.8190  -17.6850 C.ar  117  TRP117      0.0001
     61  CH2      -18.1620   19.8550  -18.6060 C.ar  117  TRP117      0.0015
     62  N        -16.2210   14.0120  -21.5470 N.3   144  TYR144     -0.1227
     63  CA       -17.5250   13.3430  -21.6830 C.3   144  TYR144      0.1736
     64  C        -18.4400   14.0490  -22.6740 C.2   144  TYR144      0.2595
     65  O        -18.9460   13.4130  -23.6100 O.2   144  TYR144     -0.2718
     66  CB       -18.2240   13.2310  -20.3070 C.3   144  TYR144      0.0548
     67  CG       -19.5710   12.5150  -20.3170 C.ar  144  TYR144     -0.0200
     68  CD1      -20.7250   13.1660  -20.7480 C.ar  144  TYR144     -0.0009
     69  CD2      -19.6950   11.2000  -19.8610 C.ar  144  TYR144     -0.0009
     70  CE1      -21.9460   12.5350  -20.7430 C.ar  144  TYR144      0.0417
     71  CE2      -20.9250   10.5620  -19.8410 C.ar  144  TYR144      0.0417
     72  CZ       -22.0460   11.2310  -20.2940 C.ar  144  TYR144      0.1957
     73  OH       -23.2790   10.6120  -20.2690 O.3   144  TYR144     -0.2866
     74  N        -18.6740   15.3470  -22.4760 N.am  145  ALA145     -0.1980
     75  CA       -19.4680   16.1410  -23.4390 C.3   145  ALA145      0.1597
     76  C        -18.9470   16.0170  -24.8700 C.2   145  ALA145      0.2287
     77  O        -19.7140   15.8700  -25.8290 O.2   145  ALA145     -0.2864
     78  CB       -19.4870   17.6220  -23.0250 C.3   145  ALA145      0.0319
     79  N        -19.5120   12.1940  -25.9380 N.3   148  TYR148     -0.1227
     80  CA       -20.9280   11.9660  -26.1320 C.3   148  TYR148      0.1736
     81  C        -21.3900   12.6420  -27.4200 C.2   148  TYR148      0.2596
     82  O        -21.9400   12.0040  -28.3210 O.2   148  TYR148     -0.2718
     83  CB       -21.7560   12.4790  -24.9320 C.3   148  TYR148      0.0548
     84  CG       -23.2280   12.1880  -25.1120 C.ar  148  TYR148     -0.0200
     85  CD1      -24.0370   13.0360  -25.8690 C.ar  148  TYR148     -0.0009
     86  CD2      -23.8000   11.0120  -24.5910 C.ar  148  TYR148     -0.0009
     87  CE1      -25.3810   12.7620  -26.0670 C.ar  148  TYR148      0.0417
     88  CE2      -25.1470   10.7290  -24.7770 C.ar  148  TYR148      0.0417
     89  CZ       -25.9280   11.6140  -25.5340 C.ar  148  TYR148      0.1957
     90  OH       -27.2550   11.3640  -25.7410 O.3   148  TYR148     -0.2866
     91  N        -21.1590   13.9400  -27.5160 N.am  149  THR149     -0.1953
     92  CA       -21.6740   14.6880  -28.6550 C.3   149  THR149      0.1897
     93  C        -21.0260   14.2570  -29.9550 C.2   149  THR149      0.2313
     94  O        -21.6990   14.1840  -30.9680 O.2   149  THR149     -0.2863
     95  CB       -21.4850   16.1930  -28.4580 C.3   149  THR149      0.1794
     96  OG1      -21.9390   16.5460  -27.1410 O.3   149  THR149     -0.2208
     97  CG2      -22.3020   16.9870  -29.4970 C.3   149  THR149      0.0378
     98  N        -15.6300   20.5710  -26.8930 N.3   159  TYR159     -0.1241
     99  CA       -16.1400   21.4820  -25.8790 C.3   159  TYR159      0.1605
    100  C        -15.0310   22.2140  -25.1360 C.2   159  TYR159      0.2264
    101  O        -13.9230   21.6940  -24.9680 O.2   159  TYR159     -0.2867
    102  CB       -16.9770   20.7350  -24.8550 C.3   159  TYR159      0.0534
    103  CG       -18.3380   20.3420  -25.3230 C.ar  159  TYR159     -0.0201
    104  CD1      -18.5080   19.2760  -26.2070 C.ar  159  TYR159     -0.0009
    105  CD2      -19.4650   21.0090  -24.8550 C.ar  159  TYR159     -0.0009
    106  CE1      -19.7490   18.9050  -26.6250 C.ar  159  TYR159      0.0417
    107  CE2      -20.7250   20.6430  -25.2730 C.ar  159  TYR159      0.0417
    108  CZ       -20.8600   19.5860  -26.1540 C.ar  159  TYR159      0.1957
    109  OH       -22.1210   19.2190  -26.5710 O.3   159  TYR159     -0.2866
    110  N        -19.9840   25.9530  -20.3950 N.3   174  ILE174     -0.1245
    111  CA       -19.2960   25.2640  -21.4820 C.3   174  ILE174      0.1561
    112  C        -19.8500   25.6180  -22.8550 C.2   174  ILE174      0.2260
    113  O        -21.0110   26.0130  -23.0000 O.2   174  ILE174     -0.2867
    114  CB       -19.3620   23.7330  -21.3050 C.3   174  ILE174      0.0252
    115  CG1      -20.7840   23.2170  -21.5760 C.3   174  ILE174      0.0019
    116  CG2      -18.9160   23.3470  -19.8960 C.3   174  ILE174      0.0019
    117  CD1      -20.9160   21.7000  -21.4300 C.3   174  ILE174      0.0001
@<TRIPOS>BOND
     1    94    93    2
     2    93    92    1
     3    97    95    1
     4    92    95    1
     5    92    91    1
     6    95    96    1
     7    82    81    2
     8     1     2    1
     9     5     6    1
    10     5     2    1
    11    91    81   am
    12     6     8    1
    13     6     7    1
    14    81    80    1
    15     2     3    1
    16    98    99    1
    17   106   104   ar
    18   106   108   ar
    19   109   108    1
    20   104   103   ar
    21   108   107   ar
    22    80    79    1
    23    80    83    1
    24    87    85   ar
    25    87    89   ar
    26    99   100    1
    27    99   102    1
    28    85    84   ar
    29    77    76    2
    30     3     4    2
    31    90    89    1
    32    89    88   ar
    33   103   105   ar
    34   103   102    1
    35   107   105   ar
    36   100   101    2
    37    84    83    1
    38    84    86   ar
    39    76    75    1
    40    88    86   ar
    41    47    45   ar
    42    47    46   ar
    43    45    43   ar
    44    65    64    2
    45    46    44   ar
    46    43    42   ar
    47    75    78    1
    48    75    74    1
    49   113   112    2
    50     9    10    1
    51   112   111    1
    52    64    74   am
    53    64    63    1
    54    10    11    1
    55    44    42   ar
    56    42    41    1
    57    37    38    1
    58    19    18    1
    59    19    13    1
    60    63    62    1
    61    63    66    1
    62   115   117    1
    63   115   114    1
    64    18    17    1
    65   111   114    1
    66   111   110    1
    67   114   116    1
    68    11    13   am
    69    11    12    2
    70    41    38    1
    71    38    39    1
    72    13    14    1
    73    68    70   ar
    74    68    67   ar
    75    70    72   ar
    76    67    66    1
    77    67    69   ar
    78    72    73    1
    79    72    71   ar
    80    17    14    1
    81    69    71   ar
    82    39    40    2
    83    14    15    1
    84    35    34    1
    85    59    61   ar
    86    59    57   ar
    87    15    16    2
    88    61    60   ar
    89    57    56   ar
    90    57    55   ar
    91    27    29   ar
    92    27    25   ar
    93    56    54   ar
    94    29    28   ar
    95    34    36    1
    96    34    31    1
    97    60    58   ar
    98    25    24    1
    99    25    26   ar
   100    20    21    1
   101    24    21    1
   102    28    26   ar
   103    55    58   ar
   104    55    53   ar
   105    54    53   ar
   106    32    33    2
   107    32    31    1
   108    21    22    1
   109    31    30    1
   110    53    52    1
   111    48    49    1
   112    52    49    1
   113    22    23    2
   114    49    50    1
   115    50    51    2
