@<TRIPOS>MOLECULE
tmp/5fs0A00.pdb
 117 115 0 0 0
SMALL
GASTEIGER

@<TRIPOS>ATOM
      1  N        -29.9320   14.6630  -27.9930 N.3    83  LEU83      -0.1245
      2  CA       -28.8000   15.3750  -27.4130 C.3    83  LEU83       0.1561
      3  C        -28.9240   15.4540  -25.9090 C.2    83  LEU83       0.2260
      4  O        -27.9540   15.2780  -25.1740 O.2    83  LEU83      -0.2867
      5  CB       -28.7220   16.7890  -28.0100 C.3    83  LEU83       0.0270
      6  CG       -27.5820   17.7630  -27.6970 C.3    83  LEU83       0.0019
      7  CD1      -27.7400   18.4430  -26.3240 C.3    83  LEU83       0.0001
      8  CD2      -26.2320   17.0650  -27.8270 C.3    83  LEU83       0.0001
      9  N        -27.5310   13.1110  -23.0680 N.3    86  GLY86      -0.1210
     10  CA       -26.2050   13.3700  -22.5250 C.3    86  GLY86       0.1940
     11  C        -26.2010   14.0890  -21.1780 C.2    86  GLY86       0.2453
     12  O        -25.7090   13.5490  -20.1980 O.2    86  GLY86      -0.2732
     13  N        -26.7280   15.3230  -21.1300 N.am   87  PRO87      -0.2728
     14  CA       -26.8330   16.0390  -19.8540 C.3    87  PRO87       0.1401
     15  C        -27.6020   15.2490  -18.7900 C.2    87  PRO87       0.2269
     16  O        -27.2010   15.2460  -17.6200 O.2    87  PRO87      -0.2865
     17  CB       -27.5700   17.3260  -20.2420 C.3    87  PRO87       0.0296
     18  CG       -27.1020   17.6000  -21.6460 C.3    87  PRO87       0.0237
     19  CD       -27.0120   16.2090  -22.2820 C.3    87  PRO87       0.0939
     20  N        -25.3470   12.5530  -17.4600 N.3    90  HIS90      -0.1241
     21  CA       -24.3230   13.1730  -16.6280 C.3    90  HIS90       0.1621
     22  C        -24.8180   13.3600  -15.1980 C.2    90  HIS90       0.2264
     23  O        -24.0970   13.0800  -14.2400 O.2    90  HIS90      -0.2867
     24  CB       -23.8960   14.5190  -17.2170 C.3    90  HIS90       0.0745
     25  CG       -22.4250   14.6270  -17.4720 C.ar   90  HIS90       0.0817
     26  ND1      -21.8470   15.7450  -18.0340 N.ar   90  HIS90      -0.2268
     27  CD2      -21.4130   13.7570  -17.2410 C.ar   90  HIS90       0.1154
     28  CE1      -20.5430   15.5590  -18.1380 C.ar   90  HIS90       0.1986
     29  NE2      -20.2540   14.3610  -17.6640 N.ar   90  HIS90      -0.2212
     30  N        -26.4230   19.3230  -15.0160 N.3    98  VAL98      -0.1245
     31  CA       -26.2740   19.9620  -16.3100 C.3    98  VAL98       0.1561
     32  C        -27.5090   20.7560  -16.6660 C.2    98  VAL98       0.2260
     33  O        -28.6350   20.2820  -16.5080 O.2    98  VAL98      -0.2867
     34  CB       -26.0070   18.9530  -17.4290 C.3    98  VAL98       0.0252
     35  CG1      -25.5760   19.6990  -18.6890 C.3    98  VAL98       0.0019
     36  CG2      -24.9420   17.9460  -17.0090 C.3    98  VAL98       0.0019
     37  N        -24.0010   25.3060  -22.1960 N.3   116  PHE116     -0.1241
     38  CA       -24.5690   24.6480  -21.0240 C.3   116  PHE116      0.1605
     39  C        -24.0750   25.2880  -19.7320 C.2   116  PHE116      0.2264
     40  O        -22.9780   25.8340  -19.6920 O.2   116  PHE116     -0.2867
     41  CB       -24.2170   23.1440  -21.0380 C.3   116  PHE116      0.0534
     42  CG       -24.6920   22.4160  -22.2730 C.ar  116  PHE116     -0.0203
     43  CD1      -23.9430   22.4330  -23.4390 C.ar  116  PHE116     -0.0042
     44  CD2      -25.8850   21.7170  -22.2650 C.ar  116  PHE116     -0.0042
     45  CE1      -24.3760   21.7780  -24.5700 C.ar  116  PHE116     -0.0003
     46  CE2      -26.3250   21.0630  -23.3980 C.ar  116  PHE116     -0.0003
     47  CZ       -25.5730   21.0910  -24.5460 C.ar  116  PHE116     -0.0000
     48  N        -22.9570   24.1880  -15.8970 N.3   118  TRP118     -0.1241
     49  CA       -22.5590   23.0110  -15.1340 C.3   118  TRP118      0.1605
     50  C        -22.6160   23.2810  -13.6340 C.2   118  TRP118      0.2264
     51  O        -21.5890   23.5120  -12.9960 O.2   118  TRP118     -0.2867
     52  CB       -21.1520   22.5630  -15.5350 C.3   118  TRP118      0.0550
     53  CG       -21.1360   21.5620  -16.6490 C.ar  118  TRP118      0.0003
     54  CD1      -22.2150   20.9450  -17.2120 C.ar  118  TRP118      0.0946
     55  CD2      -19.9840   21.0620  -17.3370 C.ar  118  TRP118      0.0152
     56  NE1      -21.8060   20.0920  -18.2080 N.ar  118  TRP118     -0.2442
     57  CE2      -20.4400   20.1450  -18.3050 C.ar  118  TRP118      0.0810
     58  CE3      -18.6100   21.3000  -17.2290 C.ar  118  TRP118      0.0012
     59  CZ2      -19.5730   19.4660  -19.1590 C.ar  118  TRP118      0.0191
     60  CZ3      -17.7510   20.6250  -18.0780 C.ar  118  TRP118      0.0001
     61  CH2      -18.2350   19.7190  -19.0300 C.ar  118  TRP118      0.0015
     62  N        -16.3580   14.1220  -21.5510 N.3   145  TYR145     -0.1227
     63  CA       -17.6320   13.4230  -21.6980 C.3   145  TYR145      0.1736
     64  C        -18.5150   14.1510  -22.7170 C.2   145  TYR145      0.2595
     65  O        -19.0520   13.5280  -23.6400 O.2   145  TYR145     -0.2718
     66  CB       -18.3380   13.2900  -20.3380 C.3   145  TYR145      0.0548
     67  CG       -19.7180   12.6400  -20.3760 C.ar  145  TYR145     -0.0200
     68  CD1      -20.8280   13.3430  -20.8430 C.ar  145  TYR145     -0.0009
     69  CD2      -19.9160   11.3310  -19.9180 C.ar  145  TYR145     -0.0009
     70  CE1      -22.0810   12.7630  -20.8910 C.ar  145  TYR145      0.0417
     71  CE2      -21.1740   10.7450  -19.9490 C.ar  145  TYR145      0.0417
     72  CZ       -22.2510   11.4660  -20.4430 C.ar  145  TYR145      0.1957
     73  OH       -23.5110   10.9090  -20.4750 O.3   145  TYR145     -0.2866
     74  N        -18.6600   15.4630  -22.5500 N.am  146  ALA146     -0.1980
     75  CA       -19.4340   16.2850  -23.4840 C.3   146  ALA146      0.1597
     76  C        -18.9360   16.1480  -24.9430 C.2   146  ALA146      0.2287
     77  O        -19.7270   16.0100  -25.8910 O.2   146  ALA146     -0.2864
     78  CB       -19.3940   17.7670  -23.0290 C.3   146  ALA146      0.0319
     79  N        -19.5680   12.3230  -26.0330 N.3   149  TYR149     -0.1227
     80  CA       -20.9810   12.0450  -26.2200 C.3   149  TYR149      0.1736
     81  C        -21.5130   12.7100  -27.4940 C.2   149  TYR149      0.2596
     82  O        -22.2010   12.0840  -28.3040 O.2   149  TYR149     -0.2718
     83  CB       -21.8000   12.5140  -25.0000 C.3   149  TYR149      0.0548
     84  CG       -23.2860   12.2550  -25.1610 C.ar  149  TYR149     -0.0200
     85  CD1      -24.0940   13.1360  -25.8820 C.ar  149  TYR149     -0.0009
     86  CD2      -23.8740   11.1170  -24.6320 C.ar  149  TYR149     -0.0009
     87  CE1      -25.4330   12.9030  -26.0530 C.ar  149  TYR149      0.0417
     88  CE2      -25.2160   10.8750  -24.8080 C.ar  149  TYR149      0.0417
     89  CZ       -25.9920   11.7740  -25.5180 C.ar  149  TYR149      0.1957
     90  OH       -27.3380   11.5310  -25.6960 O.3   149  TYR149     -0.2866
     91  N        -21.1940   13.9830  -27.6630 N.am  150  THR150     -0.1953
     92  CA       -21.7430   14.7640  -28.7660 C.3   150  THR150      0.1897
     93  C        -21.1250   14.3370  -30.0750 C.2   150  THR150      0.2313
     94  O        -21.8310   14.2070  -31.0760 O.2   150  THR150     -0.2863
     95  CB       -21.5270   16.2730  -28.5380 C.3   150  THR150      0.1794
     96  OG1      -21.9020   16.5960  -27.1910 O.3   150  THR150     -0.2208
     97  CG2      -22.3680   17.1030  -29.4980 C.3   150  THR150      0.0378
     98  N        -15.5570   20.5920  -26.9390 N.3   160  TYR160     -0.1241
     99  CA       -16.1140   21.4910  -25.9370 C.3   160  TYR160      0.1605
    100  C        -15.0020   22.2020  -25.2050 C.2   160  TYR160      0.2264
    101  O        -13.8980   21.6730  -25.0720 O.2   160  TYR160     -0.2867
    102  CB       -16.9640   20.7410  -24.9230 C.3   160  TYR160      0.0534
    103  CG       -18.3640   20.3790  -25.3480 C.ar  160  TYR160     -0.0201
    104  CD1      -18.5940   19.3160  -26.2130 C.ar  160  TYR160     -0.0009
    105  CD2      -19.4590   21.0480  -24.8280 C.ar  160  TYR160     -0.0009
    106  CE1      -19.8720   18.9550  -26.5730 C.ar  160  TYR160      0.0417
    107  CE2      -20.7450   20.6870  -25.1790 C.ar  160  TYR160      0.0417
    108  CZ       -20.9440   19.6350  -26.0580 C.ar  160  TYR160      0.1957
    109  OH       -22.2200   19.2540  -26.4220 O.3   160  TYR160     -0.2866
    110  N        -20.0410   26.1280  -20.4120 N.3   175  ILE175     -0.1245
    111  CA       -19.3020   25.4260  -21.4650 C.3   175  ILE175      0.1561
    112  C        -19.8940   25.6470  -22.8530 C.2   175  ILE175      0.2260
    113  O        -21.0960   25.8570  -23.0080 O.2   175  ILE175     -0.2867
    114  CB       -19.2300   23.8890  -21.2040 C.3   175  ILE175      0.0252
    115  CG1      -20.4330   23.1930  -21.8370 C.3   175  ILE175      0.0019
    116  CG2      -19.0850   23.5750  -19.6820 C.3   175  ILE175      0.0019
    117  CD1      -20.3300   21.6730  -21.8390 C.3   175  ILE175      0.0001
@<TRIPOS>BOND
     1    94    93    2
     2    93    92    1
     3    97    95    1
     4    92    95    1
     5    92    91    1
     6    95    96    1
     7    82    81    2
     8     5     6    1
     9     5     2    1
    10     1     2    1
    11     8     6    1
    12     6     7    1
    13    91    81   am
    14    81    80    1
    15     2     3    1
    16    98    99    1
    17   106   104   ar
    18   106   108   ar
    19   109   108    1
    20    80    79    1
    21    80    83    1
    22   104   103   ar
    23   108   107   ar
    24    87    85   ar
    25    87    89   ar
    26    99   100    1
    27    99   102    1
    28     3     4    2
    29    77    76    2
    30    85    84   ar
    31    90    89    1
    32    89    88   ar
    33   103   102    1
    34   103   105   ar
    35   100   101    2
    36   107   105   ar
    37    84    83    1
    38    84    86   ar
    39    76    75    1
    40    88    86   ar
    41    45    47   ar
    42    45    43   ar
    43    47    46   ar
    44    65    64    2
    45    75    78    1
    46    75    74    1
    47    43    42   ar
    48    46    44   ar
    49     9    10    1
    50   113   112    2
    51   112   111    1
    52    64    74   am
    53    64    63    1
    54    10    11    1
    55    19    18    1
    56    19    13    1
    57    42    44   ar
    58    42    41    1
    59    37    38    1
    60   117   115    1
    61   115   114    1
    62    63    62    1
    63    63    66    1
    64    18    17    1
    65   111   114    1
    66   111   110    1
    67   114   116    1
    68    11    13   am
    69    11    12    2
    70    13    14    1
    71    41    38    1
    72    38    39    1
    73    70    68   ar
    74    70    72   ar
    75    68    67   ar
    76    73    72    1
    77    72    71   ar
    78    67    66    1
    79    67    69   ar
    80    17    14    1
    81    71    69   ar
    82    14    15    1
    83    39    40    2
    84    59    61   ar
    85    59    57   ar
    86    61    60   ar
    87    15    16    2
    88    35    34    1
    89    57    56   ar
    90    57    55   ar
    91    56    54   ar
    92    28    26   ar
    93    28    29   ar
    94    60    58   ar
    95    26    25   ar
    96    29    27   ar
    97    25    27   ar
    98    25    24    1
    99    20    21    1
   100    34    36    1
   101    34    31    1
   102    55    58   ar
   103    55    53   ar
   104    24    21    1
   105    54    53   ar
   106    32    33    2
   107    32    31    1
   108    53    52    1
   109    21    22    1
   110    31    30    1
   111    48    49    1
   112    52    49    1
   113    22    23    2
   114    49    50    1
   115    50    51    2
