@<TRIPOS>MOLECULE
tmp/5fsgA00.pdb
 223 218 0 0 0
SMALL
GASTEIGER

@<TRIPOS>ATOM
      1  N          9.6370   17.9530  -32.1710 N.3    12  ASN12      -0.1240
      2  CA         8.1790   18.0130  -32.1840 C.3    12  ASN12       0.1653
      3  C          7.6570   19.3010  -32.8160 C.2    12  ASN12       0.2266
      4  O          8.2970   20.3500  -32.7410 O.2    12  ASN12      -0.2867
      5  CB         7.6390   17.8820  -30.7580 C.3    12  ASN12       0.1155
      6  CG         6.1560   17.5730  -30.7210 C.2    12  ASN12       0.2627
      7  OD1        5.5680   17.1700  -31.7240 O.2    12  ASN12      -0.2716
      8  ND2        5.5430   17.7570  -29.5560 N.am   12  ASN12      -0.0877
      9  N          5.2450   21.2560  -32.0330 N.3    14  ASP14      -0.1225
     10  CA         4.8720   22.3430  -31.1280 C.3    14  ASP14       0.1805
     11  C          6.0640   23.1780  -30.6620 C.2    14  ASP14       0.2597
     12  O          5.8870   24.1780  -29.9670 O.2    14  ASP14      -0.2718
     13  CB         4.1240   21.7870  -29.9110 C.3    14  ASP14       0.1424
     14  CG         4.8980   20.7030  -29.1880 C.2    14  ASP14       0.3668
     15  OD1        6.1370   20.6550  -29.3260 O.co2  14  ASP14      -0.2456
     16  OD2        4.2630   19.8950  -28.4770 O.co2  14  ASP14      -0.2456
     17  N          7.2710   22.7700  -31.0410 N.am   15  LYS15      -0.1979
     18  CA         8.4740   23.4910  -30.6380 C.3    15  LYS15       0.1596
     19  C          8.9710   24.4000  -31.7590 C.2    15  LYS15       0.2287
     20  O          8.4290   24.3940  -32.8640 O.2    15  LYS15      -0.2864
     21  CB         9.5760   22.5090  -30.2300 C.3    15  LYS15       0.0298
     22  CG         9.1800   21.5360  -29.1240 C.3    15  LYS15       0.0038
     23  CD         8.6920   22.2590  -27.8750 C.3    15  LYS15       0.0206
     24  CE         8.4630   21.2930  -26.7210 C.3    15  LYS15       0.1093
     25  NZ         7.4370   20.2610  -27.0360 N.3    15  LYS15      -0.1314
     26  N          4.7530   13.9220  -37.3190 N.3    41  ASP41      -0.1225
     27  CA         3.8480   13.4410  -36.2810 C.3    41  ASP41       0.1805
     28  C          4.3080   12.1040  -35.7000 C.2    41  ASP41       0.2597
     29  O          4.8720   11.2680  -36.4060 O.2    41  ASP41      -0.2718
     30  CB         2.4270   13.3130  -36.8300 C.3    41  ASP41       0.1424
     31  CG         1.3960   13.1180  -35.7360 C.2    41  ASP41       0.3668
     32  OD1        1.6520   13.5460  -34.5910 O.co2  41  ASP41      -0.2456
     33  OD2        0.3260   12.5400  -36.0220 O.co2  41  ASP41      -0.2456
     34  N          4.0630   11.9180  -34.4080 N.am   42  LYS42      -0.1979
     35  CA         4.2930   10.6420  -33.7320 C.3    42  LYS42       0.1596
     36  C          5.7340   10.1600  -33.8800 C.2    42  LYS42       0.2287
     37  O          5.9880    8.9580  -33.9580 O.2    42  LYS42      -0.2864
     38  CB         3.3400    9.5750  -34.2750 C.3    42  LYS42       0.0298
     39  CG         1.8670    9.8800  -34.0520 C.3    42  LYS42       0.0038
     40  CD         0.9730    8.8030  -34.6500 C.3    42  LYS42       0.0206
     41  CE         0.5290    9.1490  -36.0660 C.3    42  LYS42       0.1093
     42  NZ         1.6640    9.2990  -37.0180 N.3    42  LYS42      -0.1314
     43  N          8.1300   10.0020  -31.8720 N.3    44  GLU44      -0.1231
     44  CA         8.6050    9.2450  -30.7100 C.3    44  GLU44       0.1699
     45  C          8.2060    7.7620  -30.6910 C.2    44  GLU44       0.2592
     46  O          8.9080    6.9490  -30.0910 O.2    44  GLU44      -0.2718
     47  CB         8.1530    9.9160  -29.3950 C.3    44  GLU44       0.0402
     48  CG         6.8840   10.7800  -29.4220 C.3    44  GLU44       0.1161
     49  CD         5.6150    9.9630  -29.5380 C.2    44  GLU44       0.3649
     50  OE1        5.4000    9.0890  -28.6740 O.co2  44  GLU44      -0.2457
     51  OE2        4.8300   10.1990  -30.4810 O.co2  44  GLU44      -0.2457
     52  N          7.1050    7.3980  -31.3440 N.am   45  GLU45      -0.1979
     53  CA         6.7170    5.9840  -31.4410 C.3    45  GLU45       0.1602
     54  C          7.4120    5.2470  -32.5950 C.2    45  GLU45       0.2287
     55  O          7.8020    4.0890  -32.4540 O.2    45  GLU45      -0.2864
     56  CB         5.1980    5.8730  -31.5940 C.3    45  GLU45       0.0415
     57  CG         4.4240    6.3610  -30.3770 C.3    45  GLU45       0.1163
     58  CD         2.9270    6.1670  -30.5160 C.2    45  GLU45       0.3649
     59  OE1        2.4430    6.0500  -31.6600 O.co2  45  GLU45      -0.2457
     60  OE2        2.2350    6.1280  -29.4770 O.co2  45  GLU45      -0.2457
     61  N         13.4630   15.5240  -27.5800 N.3    62  TRP62      -0.1227
     62  CA        12.2300   15.2930  -26.8360 C.3    62  TRP62       0.1737
     63  C         12.4630   15.5860  -25.3590 C.2    62  TRP62       0.2595
     64  O         13.6060   15.7320  -24.9240 O.2    62  TRP62      -0.2718
     65  CB        11.7270   13.8610  -27.0270 C.3    62  TRP62       0.0564
     66  CG        10.3020   13.6790  -26.5920 C.ar   62  TRP62       0.0003
     67  CD1        9.8660   13.1570  -25.4090 C.ar   62  TRP62       0.0946
     68  CD2        9.1270   14.0330  -27.3320 C.ar   62  TRP62       0.0152
     69  NE1        8.4920   13.1610  -25.3680 N.ar   62  TRP62      -0.2442
     70  CE2        8.0150   13.6930  -26.5370 C.ar   62  TRP62       0.0810
     71  CE3        8.9080   14.6020  -28.5900 C.ar   62  TRP62       0.0012
     72  CZ2        6.7030   13.9020  -26.9590 C.ar   62  TRP62       0.0191
     73  CZ3        7.6050   14.8080  -29.0070 C.ar   62  TRP62       0.0001
     74  CH2        6.5200   14.4590  -28.1940 C.ar   62  TRP62       0.0015
     75  N         11.3850   15.6780  -24.5890 N.am   63  ALA63      -0.1980
     76  CA        11.5080   15.6930  -23.1380 C.3    63  ALA63       0.1597
     77  C         12.1880   14.4060  -22.6820 C.2    63  ALA63       0.2287
     78  O         12.1250   13.3800  -23.3580 O.2    63  ALA63      -0.2864
     79  CB        10.1460   15.8470  -22.4820 C.3    63  ALA63       0.0319
     80  N         11.6990   12.0900  -20.5310 N.3    65  ASP65      -0.1225
     81  CA        11.0170   10.8620  -20.1380 C.3    65  ASP65       0.1805
     82  C         11.0720    9.6620  -21.0890 C.2    65  ASP65       0.2597
     83  O         11.0710    8.5230  -20.6260 O.2    65  ASP65      -0.2718
     84  CB         9.5480   11.2080  -19.8920 C.3    65  ASP65       0.1424
     85  CG         8.6120   10.0470  -20.1570 C.2    65  ASP65       0.3668
     86  OD1        8.9070    8.9210  -19.7250 O.co2  65  ASP65      -0.2456
     87  OD2        7.5670   10.2660  -20.8050 O.co2  65  ASP65      -0.2456
     88  N         11.1310    9.8840  -22.3950 N.am   66  ARG66      -0.1979
     89  CA        11.2050    8.7480  -23.3120 C.3    66  ARG66       0.1597
     90  C         12.6060    8.1430  -23.3720 C.2    66  ARG66       0.2287
     91  O         12.7810    7.0120  -23.8220 O.2    66  ARG66      -0.2864
     92  CB        10.7140    9.1220  -24.7110 C.3    66  ARG66       0.0334
     93  CG        10.2250    7.9070  -25.5230 C.3    66  ARG66       0.0492
     94  CD         9.0350    7.1760  -24.8740 C.3    66  ARG66       0.2205
     95  NE         8.7370    5.8950  -25.5200 N.pl3  66  ARG66      -0.0865
     96  CZ         7.5910    5.5830  -26.1260 C.cat  66  ARG66       0.5346
     97  NH1        6.5940    6.4540  -26.1940 N.pl3  66  ARG66       0.1354
     98  NH2        7.4400    4.3840  -26.6690 N.pl3  66  ARG66       0.1354
     99  N         10.6080   22.7910  -19.0850 N.3   111  GLU111     -0.1245
    100  CA         9.2390   23.1620  -19.4210 C.3   111  GLU111      0.1567
    101  C          8.2780   22.7550  -18.3100 C.2   111  GLU111      0.2260
    102  O          8.3020   21.6200  -17.8330 O.2   111  GLU111     -0.2867
    103  CB         8.8150   22.5050  -20.7360 C.3   111  GLU111      0.0388
    104  CG         9.6820   22.8780  -21.9230 C.3   111  GLU111      0.1160
    105  CD         9.3160   22.1100  -23.1780 C.2   111  GLU111      0.3649
    106  OE1        8.3840   21.2810  -23.1190 O.co2 111  GLU111     -0.2457
    107  OE2        9.9620   22.3350  -24.2220 O.co2 111  GLU111     -0.2457
    108  N         -6.4740   20.9870  -23.5160 N.3   149  ASN149     -0.1240
    109  CA        -6.4040   19.6460  -24.0930 C.3   149  ASN149      0.1653
    110  C         -6.5240   18.5260  -23.0560 C.2   149  ASN149      0.2266
    111  O         -5.5740   18.2080  -22.3420 O.2   149  ASN149     -0.2867
    112  CB        -5.0990   19.4850  -24.8750 C.3   149  ASN149      0.1155
    113  CG        -5.0290   18.1710  -25.6270 C.2   149  ASN149      0.2627
    114  OD1       -6.0340   17.4770  -25.7810 O.2   149  ASN149     -0.2716
    115  ND2       -3.8410   17.8270  -26.1080 N.am  149  ASN149     -0.0877
    116  N         -4.5050   14.8160  -23.8390 N.3   152  GLU152     -0.1231
    117  CA        -3.1530   14.4840  -23.4150 C.3   152  GLU152      0.1684
    118  C         -3.1200   14.5860  -21.8900 C.2   152  GLU152      0.2434
    119  O         -3.4340   15.6390  -21.3370 O.2   152  GLU152     -0.2733
    120  CB        -2.1240   15.4200  -24.0490 C.3   152  GLU152      0.0402
    121  CG        -1.9230   15.2030  -25.5400 C.3   152  GLU152      0.1161
    122  CD        -1.2750   13.8690  -25.8560 C.2   152  GLU152      0.3649
    123  OE1       -0.8920   13.1500  -24.9090 O.co2 152  GLU152     -0.2457
    124  OE2       -1.1470   13.5380  -27.0540 O.co2 152  GLU152     -0.2457
    125  N         -2.7460   13.4940  -21.2010 N.am  153  PRO153     -0.2718
    126  CA        -2.8070   13.4890  -19.7330 C.3   153  PRO153      0.1535
    127  C         -1.8750   14.4910  -19.0580 C.2   153  PRO153      0.2599
    128  O         -2.1000   14.8450  -17.9010 O.2   153  PRO153     -0.2715
    129  CB        -2.4050   12.0550  -19.3740 C.3   153  PRO153      0.0310
    130  CG        -1.6150   11.5780  -20.5300 C.3   153  PRO153      0.0237
    131  CD        -2.2320   12.2180  -21.7290 C.3   153  PRO153      0.0939
    132  N         -0.8430   14.9330  -19.7690 N.am  154  TYR154     -0.1960
    133  CA         0.0310   15.9900  -19.2750 C.3   154  TYR154      0.1771
    134  C         -0.7540   17.1810  -18.7280 C.2   154  TYR154      0.2619
    135  O         -0.4030   17.7400  -17.6890 O.2   154  TYR154     -0.2715
    136  CB         0.9640   16.4560  -20.3970 C.3   154  TYR154      0.0574
    137  CG         1.9930   17.4850  -19.9800 C.ar  154  TYR154     -0.0198
    138  CD1        2.4150   17.5870  -18.6600 C.ar  154  TYR154     -0.0009
    139  CD2        2.5390   18.3600  -20.9100 C.ar  154  TYR154     -0.0009
    140  CE1        3.3530   18.5260  -18.2820 C.ar  154  TYR154      0.0417
    141  CE2        3.4780   19.3020  -20.5400 C.ar  154  TYR154      0.0417
    142  CZ         3.8820   19.3810  -19.2250 C.ar  154  TYR154      0.1957
    143  OH         4.8160   20.3200  -18.8540 O.3   154  TYR154     -0.2866
    144  N         -1.8180   17.5610  -19.4270 N.am  155  PHE155     -0.1974
    145  CA        -2.5400   18.7870  -19.1030 C.3   155  PHE155      0.1639
    146  C         -3.5150   18.5880  -17.9440 C.2   155  PHE155      0.2290
    147  O         -3.8620   19.5410  -17.2450 O.2   155  PHE155     -0.2864
    148  CB        -3.2930   19.2950  -20.3330 C.3   155  PHE155      0.0560
    149  CG        -2.3970   19.6540  -21.4850 C.ar  155  PHE155     -0.0200
    150  CD1       -1.9940   18.6890  -22.3930 C.ar  155  PHE155     -0.0042
    151  CD2       -1.9590   20.9560  -21.6590 C.ar  155  PHE155     -0.0042
    152  CE1       -1.1710   19.0170  -23.4540 C.ar  155  PHE155     -0.0003
    153  CE2       -1.1350   21.2890  -22.7180 C.ar  155  PHE155     -0.0003
    154  CZ        -0.7410   20.3180  -23.6160 C.ar  155  PHE155     -0.0000
    155  N          5.7740   27.2990  -24.9990 N.3   227  TRP227     -0.1241
    156  CA         5.7420   27.2040  -26.4560 C.3   227  TRP227      0.1605
    157  C          4.5190   27.8920  -27.0700 C.2   227  TRP227      0.2264
    158  O          4.5610   28.3390  -28.2150 O.2   227  TRP227     -0.2867
    159  CB         5.7770   25.7340  -26.8870 C.3   227  TRP227      0.0550
    160  CG         4.6710   24.9000  -26.3130 C.ar  227  TRP227      0.0003
    161  CD1        3.4040   24.7690  -26.8030 C.ar  227  TRP227      0.0946
    162  CD2        4.7360   24.0740  -25.1440 C.ar  227  TRP227      0.0152
    163  NE1        2.6760   23.9150  -26.0090 N.ar  227  TRP227     -0.2442
    164  CE2        3.4710   23.4750  -24.9840 C.ar  227  TRP227      0.0810
    165  CE3        5.7410   23.7840  -24.2160 C.ar  227  TRP227      0.0012
    166  CZ2        3.1840   22.6040  -23.9350 C.ar  227  TRP227      0.0191
    167  CZ3        5.4540   22.9190  -23.1740 C.ar  227  TRP227      0.0001
    168  CH2        4.1860   22.3400  -23.0430 C.ar  227  TRP227      0.0015
    169  N          8.9790   18.9220  -17.4580 N.3   257  GLY257     -0.1225
    170  CA         9.7970   18.2800  -18.4680 C.3   257  GLY257      0.1811
    171  C         11.0560   19.0730  -18.7570 C.2   257  GLY257      0.2280
    172  O         11.0520   20.3030  -18.7320 O.2   257  GLY257     -0.2866
    173  N         13.3760   19.5410  -21.8420 N.3   259  LEU259     -0.1245
    174  CA        13.6550   19.3270  -23.2550 C.3   259  LEU259      0.1561
    175  C         15.1070   18.9020  -23.4380 C.2   259  LEU259      0.2260
    176  O         16.0330   19.5750  -22.9830 O.2   259  LEU259     -0.2867
    177  CB        13.3620   20.5930  -24.0620 C.3   259  LEU259      0.0270
    178  CG        13.5840   20.4990  -25.5740 C.3   259  LEU259      0.0019
    179  CD1       12.6750   19.4500  -26.1990 C.3   259  LEU259      0.0001
    180  CD2       13.3650   21.8540  -26.2280 C.3   259  LEU259      0.0001
    181  N          6.2260    5.5500  -20.2280 N.3   331  SER331     -0.1217
    182  CA         5.3930    5.5590  -21.4210 C.3   331  SER331      0.1889
    183  C          4.1550    4.7130  -21.1500 C.2   331  SER331      0.2288
    184  O          3.0460    5.0790  -21.5370 O.2   331  SER331     -0.2866
    185  CB         6.1610    5.0250  -22.6290 C.3   331  SER331      0.2089
    186  OG         6.5900    3.6940  -22.4050 O.3   331  SER331     -0.2183
    187  N          1.7760    6.8270  -19.1810 N.3   334  TRP334     -0.1227
    188  CA         1.0490    7.8460  -19.9350 C.3   334  TRP334      0.1737
    189  C         -0.0750    7.2190  -20.7560 C.2   334  TRP334      0.2595
    190  O         -1.1840    7.7520  -20.8010 O.2   334  TRP334     -0.2718
    191  CB         1.9990    8.6210  -20.8500 C.3   334  TRP334      0.0564
    192  CG         2.9730    9.4820  -20.1090 C.ar  334  TRP334      0.0003
    193  CD1        4.3340    9.3820  -20.1220 C.ar  334  TRP334      0.0946
    194  CD2        2.6590   10.5730  -19.2370 C.ar  334  TRP334      0.0152
    195  NE1        4.8860   10.3480  -19.3150 N.ar  334  TRP334     -0.2442
    196  CE2        3.8790   11.0910  -18.7600 C.ar  334  TRP334      0.0810
    197  CE3        1.4640   11.1630  -18.8150 C.ar  334  TRP334      0.0012
    198  CZ2        3.9380   12.1710  -17.8820 C.ar  334  TRP334      0.0191
    199  CZ3        1.5240   12.2350  -17.9440 C.ar  334  TRP334      0.0001
    200  CH2        2.7530   12.7280  -17.4860 C.ar  334  TRP334      0.0015
    201  N          0.2110    6.0970  -21.4090 N.am  335  TYR335     -0.1976
    202  CA        -0.7940    5.4160  -22.2180 C.3   335  TYR335      0.1639
    203  C         -1.9960    5.0680  -21.3440 C.2   335  TYR335      0.2290
    204  O         -3.1450    5.2230  -21.7580 O.2   335  TYR335     -0.2864
    205  CB        -0.2220    4.1500  -22.8630 C.3   335  TYR335      0.0560
    206  CG         0.7320    4.4150  -24.0070 C.ar  335  TYR335     -0.0198
    207  CD1        0.3140    5.1030  -25.1380 C.ar  335  TYR335     -0.0009
    208  CD2        2.0450    3.9650  -23.9630 C.ar  335  TYR335     -0.0009
    209  CE1        1.1790    5.3460  -26.1870 C.ar  335  TYR335      0.0417
    210  CE2        2.9180    4.2040  -25.0070 C.ar  335  TYR335      0.0417
    211  CZ         2.4800    4.8930  -26.1170 C.ar  335  TYR335      0.1957
    212  OH         3.3440    5.1320  -27.1610 O.3   335  TYR335     -0.2866
    213  N         -3.9700    8.2710  -20.2640 N.3   338  ARG338     -0.1245
    214  CA        -4.6630    8.8180  -21.4310 C.3   338  ARG338      0.1563
    215  C         -6.0180    8.1510  -21.6720 C.2   338  ARG338      0.2260
    216  O         -7.0330    8.8300  -21.8270 O.2   338  ARG338     -0.2867
    217  CB        -3.7860    8.6700  -22.6760 C.3   338  ARG338      0.0307
    218  CG        -4.3920    9.2530  -23.9430 C.3   338  ARG338      0.0489
    219  CD        -3.4820    9.0360  -25.1390 C.3   338  ARG338      0.2205
    220  NE        -4.1080    9.4520  -26.3910 N.pl3 338  ARG338     -0.0865
    221  CZ        -4.9540    8.7030  -27.0940 C.cat 338  ARG338      0.5346
    222  NH1       -5.2910    7.4920  -26.6710 N.pl3 338  ARG338      0.1354
    223  NH2       -5.4700    9.1690  -28.2230 N.pl3 338  ARG338      0.1354
@<TRIPOS>BOND
     1    26    27    1
     2    42    41    1
     3    30    27    1
     4    30    31    1
     5    29    28    2
     6    27    28    1
     7    41    40    1
     8    33    31   ar
     9    31    32   ar
    10    28    34   am
    11    40    39    1
    12    34    35    1
    13    38    39    1
    14    38    35    1
    15    37    36    2
    16    36    35    1
    17    20    19    2
    18     3     4    2
    19     3     2    1
    20    54    55    2
    21    54    53    1
    22     2     1    1
    23     2     5    1
    24     9    10    1
    25    43    44    1
    26    19    18    1
    27     7     6    2
    28    59    58   ar
    29    56    53    1
    30    56    57    1
    31    53    52    1
    32    52    45   am
    33    10    11    1
    34    10    13    1
    35    17    11   am
    36    17    18    1
    37     5     6    1
    38     6     8   am
    39    44    45    1
    40    44    47    1
    41    45    46    2
    42    11    12    2
    43    18    21    1
    44    58    57    1
    45    58    60   ar
    46    51    49   ar
    47    21    22    1
    48    13    14    1
    49    49    48    1
    50    49    50   ar
    51    48    47    1
    52    15    14   ar
    53    14    16   ar
    54    22    23    1
    55    73    71   ar
    56    73    74   ar
    57    71    68   ar
    58   223   221    1
    59   158   157    2
    60    74    72   ar
    61    23    24    1
    62    61    62    1
    63    68    66   ar
    64    68    70   ar
    65   212   211    1
    66   221   222    1
    67   221   220    2
    68   157   156    1
    69   124   122   ar
    70    25    24    1
    71    65    62    1
    72    65    66    1
    73    72    70   ar
    74   159   156    1
    75   159   160    1
    76    62    63    1
    77   161   160   ar
    78   161   163   ar
    79    98    96    1
    80    66    67   ar
    81    70    69   ar
    82   156   155    1
    83   220   219    1
    84   160   162   ar
    85   180   178    1
    86   179   178    1
    87    97    96    1
    88   209   211   ar
    89   209   207   ar
    90    96    95    2
    91   211   210   ar
    92   115   113   am
    93   163   164   ar
    94   122   121    1
    95   122   123   ar
    96   114   113    2
    97   113   112    1
    98   178   177    1
    99   121   120    1
   100    93    94    1
   101    93    92    1
   102    95    94    1
   103    67    69   ar
   104    63    64    2
   105    63    75   am
   106   162   164   ar
   107   162   165   ar
   108   219   218    1
   109   207   206   ar
   110   210   208   ar
   111   164   166   ar
   112   112   109    1
   113    92    89    1
   114    75    76    1
   115   107   105   ar
   116   165   167   ar
   117   109   108    1
   118   109   110    1
   119   177   174    1
   120   120   117    1
   121   206   208   ar
   122   206   205    1
   123   218   217    1
   124   166   168   ar
   125   116   117    1
   126    91    90    2
   127   154   152   ar
   128   154   153   ar
   129   152   150   ar
   130   175   174    1
   131   175   176    2
   132   117   118    1
   133    90    89    1
   134    78    77    2
   135    89    88    1
   136   174   173    1
   137   105   106   ar
   138   105   104    1
   139   167   168   ar
   140    76    77    1
   141    76    79    1
   142   110   111    2
   143   205   202    1
   144   153   151   ar
   145   217   214    1
   146   185   186    1
   147   185   182    1
   148    88    82   am
   149   150   149   ar
   150   202   201    1
   151   202   203    1
   152   104   103    1
   153   118   119    2
   154   118   125   am
   155   216   215    2
   156   204   203    2
   157   131   125    1
   158   131   130    1
   159   215   214    1
   160   151   149   ar
   161   184   183    2
   162   149   148    1
   163   214   213    1
   164   182   183    1
   165   182   181    1
   166   201   189   am
   167   125   126    1
   168    82    83    2
   169    82    81    1
   170   139   141   ar
   171   139   137   ar
   172   191   192    1
   173   191   188    1
   174    87    85   ar
   175   190   189    2
   176   189   188    1
   177   103   100    1
   178   141   142   ar
   179    80    81    1
   180   130   129    1
   181   136   137    1
   182   136   133    1
   183   148   145    1
   184    85    84    1
   185    85    86   ar
   186    81    84    1
   187   193   192   ar
   188   193   195   ar
   189   192   194   ar
   190   137   138   ar
   191   188   187    1
   192   132   133    1
   193   132   127   am
   194   126   129    1
   195   126   127    1
   196   144   145    1
   197   144   134   am
   198   100    99    1
   199   100   101    1
   200   195   196   ar
   201   133   134    1
   202   194   197   ar
   203   194   196   ar
   204   142   143    1
   205   142   140   ar
   206   145   146    1
   207   127   128    2
   208   197   199   ar
   209   196   198   ar
   210   171   172    2
   211   171   170    1
   212   134   135    2
   213   138   140   ar
   214   170   169    1
   215   101   102    2
   216   146   147    2
   217   199   200   ar
   218   198   200   ar
