@<TRIPOS>MOLECULE
tmp/5fslA00.pdb
 136 132 0 0 0
SMALL
GASTEIGER

@<TRIPOS>ATOM
      1  N         10.6180   22.6040   10.4170 N.3     7  LEU7       -0.1245
      2  CA        11.3210   21.3470   10.2960 C.3     7  LEU7        0.1561
      3  C         11.3450   20.7280   11.6620 C.2     7  LEU7        0.2260
      4  O         11.8080   21.3720   12.6180 O.2     7  LEU7       -0.2867
      5  CB        12.7520   21.5730    9.7760 C.3     7  LEU7        0.0270
      6  CG        13.5140   20.3310    9.3340 C.3     7  LEU7        0.0019
      7  CD1       12.8000   19.6190    8.2080 C.3     7  LEU7        0.0001
      8  CD2       14.8910   20.7230    8.8400 C.3     7  LEU7        0.0001
      9  N         11.3290   11.6590    1.2360 N.3    21  LYS21      -0.1245
     10  CA        10.3210   12.4180    0.5200 C.3    21  LYS21       0.1561
     11  C         10.1560   11.8590   -0.8800 C.2    21  LYS21       0.2260
     12  O         11.1400   11.6320   -1.5870 O.2    21  LYS21      -0.2867
     13  CB        10.7530   13.8820    0.5010 C.3    21  LYS21       0.0271
     14  CG         9.5820   14.8410    0.2860 C.3    21  LYS21       0.0035
     15  CD        10.0530   16.2850    0.5910 C.3    21  LYS21       0.0206
     16  CE         8.9850   17.3080    0.2230 C.3    21  LYS21       0.1093
     17  NZ         7.6880   17.0250    0.9060 N.3    21  LYS21      -0.1314
     18  N          9.8850   19.3260   -3.5660 N.3    25  PHE25      -0.1227
     19  CA        11.1550   19.8670   -3.0830 C.3    25  PHE25       0.1736
     20  C         11.8450   18.9080   -2.1400 C.2    25  PHE25       0.2596
     21  O         11.3560   18.6500   -1.0450 O.2    25  PHE25      -0.2718
     22  CB        10.9660   21.2350   -2.4070 C.3    25  PHE25       0.0547
     23  CG        12.2420   21.9840   -2.1760 C.ar   25  PHE25      -0.0202
     24  CD1       13.0730   22.3310   -3.2060 C.ar   25  PHE25      -0.0042
     25  CD2       12.6250   22.2380   -0.9160 C.ar   25  PHE25      -0.0042
     26  CE1       14.3140   22.9810   -2.9080 C.ar   25  PHE25      -0.0003
     27  CE2       13.8360   22.9250   -0.6350 C.ar   25  PHE25      -0.0003
     28  CZ        14.6520   23.2850   -1.6560 C.ar   25  PHE25      -0.0000
     29  N         12.9750   18.3830   -2.5860 N.am   26  GLY26      -0.1957
     30  CA        13.7640   17.4620   -1.7880 C.3    26  GLY26       0.1869
     31  C         13.4050   16.0020   -1.9820 C.2    26  GLY26       0.2309
     32  O         13.8740   15.1520   -1.2250 O.2    26  GLY26      -0.2863
     33  N         14.6790   13.4700    5.2580 N.3    31  ASN31      -0.1225
     34  CA        14.5660   14.7540    5.9130 C.3    31  ASN31       0.1785
     35  C         13.7380   14.6600    7.1420 C.2    31  ASN31       0.2597
     36  O         13.0040   13.7130    7.3310 O.2    31  ASN31      -0.2718
     37  CB        13.9290   15.7990    4.9600 C.3    31  ASN31       0.1169
     38  CG        12.6300   15.4430    4.2130 C.2    31  ASN31       0.2627
     39  OD1       12.3740   15.9870    3.1250 O.2    31  ASN31      -0.2716
     40  ND2       11.7060   14.6150    4.7550 N.am   31  ASN31      -0.0877
     41  N         13.8210   15.7000    7.9660 N.am   32  GLY32      -0.1957
     42  CA        12.8570   15.9120    9.0160 C.3    32  GLY32       0.1869
     43  C         11.5210   16.3110    8.3810 C.2    32  GLY32       0.2309
     44  O         11.3980   16.3980    7.1510 O.2    32  GLY32      -0.2863
     45  N         17.9230   29.4030    4.1190 N.3    70  PHE70      -0.1241
     46  CA        18.4780   28.8690    2.8770 C.3    70  PHE70       0.1605
     47  C         18.2900   29.8320    1.7340 C.2    70  PHE70       0.2264
     48  O         17.1770   30.3140    1.4950 O.2    70  PHE70      -0.2867
     49  CB        17.8190   27.5400    2.5150 C.3    70  PHE70       0.0534
     50  CG        18.0810   26.4850    3.5370 C.ar   70  PHE70      -0.0203
     51  CD1       19.3280   25.8750    3.6200 C.ar   70  PHE70      -0.0042
     52  CD2       17.0920   26.0920    4.4170 C.ar   70  PHE70      -0.0042
     53  CE1       19.5770   24.8820    4.5630 C.ar   70  PHE70      -0.0003
     54  CE2       17.3370   25.0890    5.3600 C.ar   70  PHE70      -0.0003
     55  CZ        18.5860   24.5140    5.4370 C.ar   70  PHE70      -0.0000
     56  N         19.0040   29.8910   -2.4370 N.3    72  PHE72      -0.1241
     57  CA        19.3510   29.1850   -3.6650 C.3    72  PHE72       0.1605
     58  C         19.6890   30.2860   -4.6440 C.2    72  PHE72       0.2264
     59  O         18.8130   31.0980   -4.9750 O.2    72  PHE72      -0.2867
     60  CB        18.2050   28.2980   -4.1790 C.3    72  PHE72       0.0534
     61  CG        17.9850   27.1200   -3.2640 C.ar   72  PHE72      -0.0203
     62  CD1       17.1430   27.2160   -2.1720 C.ar   72  PHE72      -0.0042
     63  CD2       18.6910   25.9330   -3.4490 C.ar   72  PHE72      -0.0042
     64  CE1       16.9840   26.1290   -1.2950 C.ar   72  PHE72      -0.0003
     65  CE2       18.5260   24.8530   -2.5760 C.ar   72  PHE72      -0.0003
     66  CZ        17.6950   24.9670   -1.5010 C.ar   72  PHE72      -0.0000
     67  N         14.4130   30.7630    2.2690 N.3    79  MET79      -0.1245
     68  CA        13.5920   29.8920    3.1200 C.3    79  MET79       0.1570
     69  C         14.0430   30.1580    4.5350 C.2    79  MET79       0.2261
     70  O         15.2270   29.9560    4.8520 O.2    79  MET79      -0.2867
     71  CB        13.8440   28.4160    2.8040 C.3    79  MET79       0.0387
     72  CG        13.4850   28.0320    1.3960 C.3    79  MET79       0.0595
     73  SD        13.8770   26.3080    1.0070 S.3    79  MET79      -0.1393
     74  CE        12.8660   25.3960    2.2210 C.3    79  MET79       0.0692
     75  N         13.7960   28.7220    7.8960 N.3    81  VAL81      -0.1245
     76  CA        13.3830   27.4370    8.4710 C.3    81  VAL81       0.1561
     77  C         13.5240   27.4050    9.9680 C.2    81  VAL81       0.2260
     78  O         14.6250   27.5920   10.4970 O.2    81  VAL81      -0.2867
     79  CB        14.1530   26.2750    7.8010 C.3    81  VAL81       0.0252
     80  CG1       13.6810   24.9390    8.3400 C.3    81  VAL81       0.0019
     81  CG2       14.0290   26.3140    6.2630 C.3    81  VAL81       0.0019
     82  N         19.9970   16.3840    2.7020 N.3   115  TRP115     -0.1241
     83  CA        20.4600   17.6730    2.2160 C.3   115  TRP115      0.1605
     84  C         21.8690   17.9090    2.7970 C.2   115  TRP115      0.2264
     85  O         22.1020   17.5910    3.9640 O.2   115  TRP115     -0.2867
     86  CB        19.4940   18.7550    2.6810 C.3   115  TRP115      0.0550
     87  CG        18.2550   18.8290    1.8350 C.ar  115  TRP115      0.0003
     88  CD1       17.0610   18.2180    2.0620 C.ar  115  TRP115      0.0946
     89  CD2       18.0900   19.6030    0.6380 C.ar  115  TRP115      0.0152
     90  NE1       16.1680   18.5430    1.0620 N.ar  115  TRP115     -0.2442
     91  CE2       16.7810   19.3710    0.1640 C.ar  115  TRP115      0.0810
     92  CE3       18.9340   20.4450   -0.1010 C.ar  115  TRP115      0.0012
     93  CZ2       16.2720   20.0130   -0.9700 C.ar  115  TRP115      0.0191
     94  CZ3       18.4430   21.0500   -1.2430 C.ar  115  TRP115      0.0001
     95  CH2       17.1370   20.8120   -1.6860 C.ar  115  TRP115      0.0015
     96  N         23.4540   20.4190    3.9970 N.3   117  ASP117     -0.1225
     97  CA        23.5650   21.2380    5.1940 C.3   117  ASP117      0.1805
     98  C         23.4190   20.4130    6.4690 C.2   117  ASP117      0.2597
     99  O         23.9430   20.7990    7.5140 O.2   117  ASP117     -0.2718
    100  CB        22.5290   22.3550    5.1770 C.3   117  ASP117      0.1424
    101  CG        21.1290   21.8630    4.8950 C.2   117  ASP117      0.3668
    102  OD1       20.8590   21.5180    3.7260 O.co2 117  ASP117     -0.2456
    103  OD2       20.3030   21.8630    5.8220 O.co2 117  ASP117     -0.2456
    104  N         22.6700   19.2980    6.4060 N.am  118  ASP118     -0.1974
    105  CA        22.4260   18.5080    7.5980 C.3   118  ASP118      0.1709
    106  C         23.7120   17.9910    8.2030 C.2   118  ASP118      0.2293
    107  O         23.7650   17.8230    9.4130 O.2   118  ASP118     -0.2864
    108  CB        21.4990   17.3430    7.2760 C.3   118  ASP118      0.1436
    109  CG        20.0810   17.7670    6.9840 C.2   118  ASP118      0.3671
    110  OD1       19.8670   18.9370    6.6230 O.co2 118  ASP118     -0.2456
    111  OD2       19.2030   16.8890    6.9270 O.co2 118  ASP118     -0.2456
    112  N         24.6480   20.8750   10.7800 N.3   121  TRP121     -0.1241
    113  CA        23.8500   21.2000   11.9550 C.3   121  TRP121      0.1605
    114  C         23.2980   19.9930   12.6960 C.2   121  TRP121      0.2264
    115  O         23.0340   20.1260   13.9070 O.2   121  TRP121     -0.2867
    116  CB        22.7590   22.2110   11.6350 C.3   121  TRP121      0.0550
    117  CG        21.7770   21.7690   10.6000 C.ar  121  TRP121      0.0003
    118  CD1       21.7960   22.0920    9.2790 C.ar  121  TRP121      0.0946
    119  CD2       20.5670   21.0320   10.8110 C.ar  121  TRP121      0.0152
    120  NE1       20.6960   21.5860    8.6430 N.ar  121  TRP121     -0.2442
    121  CE2       19.9130   20.9380    9.5660 C.ar  121  TRP121      0.0810
    122  CE3       19.9620   20.4470   11.9390 C.ar  121  TRP121      0.0012
    123  CZ2       18.6860   20.2810    9.4150 C.ar  121  TRP121      0.0191
    124  CZ3       18.7410   19.8200   11.7900 C.ar  121  TRP121      0.0001
    125  CH2       18.1370   19.7100   10.5350 C.ar  121  TRP121      0.0015
    126  N         23.1940   27.8390   -1.4610 N.3   137  PHE137     -0.1241
    127  CA        23.2810   26.7370   -2.3740 C.3   137  PHE137      0.1605
    128  C         23.3370   27.2000   -3.8140 C.2   137  PHE137      0.2264
    129  O         22.7280   28.2130   -4.1980 O.2   137  PHE137     -0.2867
    130  CB        21.9930   25.8920   -2.2520 C.3   137  PHE137      0.0534
    131  CG        21.9910   24.8370   -1.1670 C.ar  137  PHE137     -0.0203
    132  CD1       21.7870   25.1790    0.1620 C.ar  137  PHE137     -0.0042
    133  CD2       22.2200   23.5010   -1.4810 C.ar  137  PHE137     -0.0042
    134  CE1       21.8020   24.1950    1.1620 C.ar  137  PHE137     -0.0003
    135  CE2       22.2240   22.5200   -0.4780 C.ar  137  PHE137     -0.0003
    136  CZ        22.0150   22.8760    0.8260 C.ar  137  PHE137     -0.0000
@<TRIPOS>BOND
     1    59    58    2
     2    58    57    1
     3   129   128    2
     4    60    57    1
     5    60    61    1
     6   128   127    1
     7    57    56    1
     8    18    19    1
     9    63    61   ar
    10    63    65   ar
    11    61    62   ar
    12    24    26   ar
    13    24    23   ar
    14    19    22    1
    15    19    20    1
    16    26    28   ar
    17    29    20   am
    18    29    30    1
    19    65    66   ar
    20    22    23    1
    21   127   130    1
    22   127   126    1
    23   130   131    1
    24    23    25   ar
    25    62    64   ar
    26    20    21    2
    27    31    30    1
    28    31    32    2
    29    95    94   ar
    30    95    93   ar
    31    28    27   ar
    32    12    11    2
    33    66    64   ar
    34   133   131   ar
    35   133   135   ar
    36    94    92   ar
    37   131   132   ar
    38    93    91   ar
    39    25    27   ar
    40    11    10    1
    41   135   136   ar
    42    92    89   ar
    43   132   134   ar
    44    91    89   ar
    45    91    90   ar
    46    16    15    1
    47    16    17    1
    48    14    13    1
    49    14    15    1
    50    13    10    1
    51    10     9    1
    52    89    87   ar
    53   136   134   ar
    54    73    72    1
    55    73    74    1
    56    90    88   ar
    57    72    71    1
    58    48    47    2
    59    47    46    1
    60    87    88   ar
    61    87    86    1
    62    83    86    1
    63    83    82    1
    64    83    84    1
    65    67    68    1
    66    49    46    1
    67    49    50    1
    68    84    85    2
    69    71    68    1
    70    46    45    1
    71    68    69    1
    72    39    38    2
    73    50    51   ar
    74    50    52   ar
    75    51    53   ar
    76   102   101   ar
    77    96    97    1
    78    38    40   am
    79    38    37    1
    80    52    54   ar
    81    69    70    2
    82    53    55   ar
    83   101   100    1
    84   101   103   ar
    85    37    34    1
    86   100    97    1
    87    97    98    1
    88    33    34    1
    89    54    55   ar
    90    34    35    1
    91    81    79    1
    92   104    98   am
    93   104   105    1
    94    98    99    2
    95   110   109   ar
    96   111   109   ar
    97   109   108    1
    98    35    36    2
    99    35    41   am
   100    44    43    2
   101   108   105    1
   102   105   106    1
   103    79    80    1
   104    79    76    1
   105    75    76    1
   106    41    42    1
   107   106   107    2
   108     7     6    1
   109    43    42    1
   110    76    77    1
   111   120   118   ar
   112   120   121   ar
   113     8     6    1
   114   118   117   ar
   115     6     5    1
   116   123   121   ar
   117   123   125   ar
   118   121   119   ar
   119     5     2    1
   120    77    78    2
   121     2     1    1
   122     2     3    1
   123   125   124   ar
   124   117   119   ar
   125   117   116    1
   126   112   113    1
   127   119   122   ar
   128   116   113    1
   129     3     4    2
   130   124   122   ar
   131   113   114    1
   132   114   115    2
