@<TRIPOS>MOLECULE
tmp/5fsmA00.pdb
 172 170 0 0 0
SMALL
GASTEIGER

@<TRIPOS>ATOM
      1  N         10.5700   22.6100   10.4350 N.3     7  LEU7       -0.1245
      2  CA        11.2700   21.3320   10.2780 C.3     7  LEU7        0.1561
      3  C         11.3130   20.7070   11.6450 C.2     7  LEU7        0.2260
      4  O         11.7890   21.3190   12.5980 O.2     7  LEU7       -0.2867
      5  CB        12.6890   21.5470    9.6760 C.3     7  LEU7        0.0270
      6  CG        13.4960   20.2790    9.3500 C.3     7  LEU7        0.0019
      7  CD1       12.8540   19.5240    8.2240 C.3     7  LEU7        0.0001
      8  CD2       14.9390   20.6480    8.9960 C.3     7  LEU7        0.0001
      9  N         12.3230   17.3670   14.0100 N.3     9  LEU9       -0.1245
     10  CA        13.1230   16.1570   14.1700 C.3     9  LEU9        0.1561
     11  C         12.5860   15.3960   15.3910 C.2     9  LEU9        0.2260
     12  O         12.5970   15.9160   16.5050 O.2     9  LEU9       -0.2867
     13  CB        14.6140   16.4950   14.3660 C.3     9  LEU9        0.0270
     14  CG        15.4370   16.9250   13.1240 C.3     9  LEU9        0.0019
     15  CD1       15.4650   15.8240   12.0440 C.3     9  LEU9        0.0001
     16  CD2       14.9610   18.2620   12.5590 C.3     9  LEU9        0.0001
     17  N         13.3150    9.9020   10.2930 N.3    18  LEU18      -0.1245
     18  CA        13.4770   10.6770    9.0810 C.3    18  LEU18       0.1561
     19  C         12.5240   10.1000    8.0600 C.2    18  LEU18       0.2260
     20  O         12.1280    8.9360    8.1710 O.2    18  LEU18      -0.2867
     21  CB        14.9220   10.6260    8.5330 C.3    18  LEU18       0.0270
     22  CG        15.9840   11.2040    9.4570 C.3    18  LEU18       0.0019
     23  CD1       17.3800   10.8560    8.9380 C.3    18  LEU18       0.0001
     24  CD2       15.7930   12.7220    9.6100 C.3    18  LEU18       0.0001
     25  N         10.2170   19.2890   -3.7610 N.3    25  PHE25      -0.1241
     26  CA        11.5040   19.8180   -3.3120 C.3    25  PHE25       0.1605
     27  C         12.1740   18.9480   -2.2760 C.2    25  PHE25       0.2264
     28  O         11.6540   18.8010   -1.1850 O.2    25  PHE25      -0.2867
     29  CB        11.3840   21.2670   -2.8280 C.3    25  PHE25       0.0534
     30  CG        12.6750   22.0520   -2.9390 C.ar   25  PHE25      -0.0203
     31  CD1       13.3070   22.2180   -4.1690 C.ar   25  PHE25      -0.0042
     32  CD2       13.2320   22.6630   -1.8240 C.ar   25  PHE25      -0.0042
     33  CE1       14.4920   22.9550   -4.2710 C.ar   25  PHE25      -0.0003
     34  CE2       14.4060   23.4050   -1.9280 C.ar   25  PHE25      -0.0003
     35  CZ        15.0240   23.5560   -3.1510 C.ar   25  PHE25      -0.0000
     36  N         16.3900   11.8520    2.6860 N.3    30  TRP30      -0.1227
     37  CA        15.7880   11.6840    4.0090 C.3    30  TRP30       0.1737
     38  C         15.7610   13.0760    4.6320 C.2    30  TRP30       0.2595
     39  O         16.7910   13.7540    4.6620 O.2    30  TRP30      -0.2718
     40  CB        16.6530   10.7880    4.9000 C.3    30  TRP30       0.0564
     41  CG        16.7590    9.3740    4.3940 C.ar   30  TRP30       0.0003
     42  CD1       17.7730    8.8480    3.6500 C.ar   30  TRP30       0.0946
     43  CD2       15.7730    8.3340    4.5240 C.ar   30  TRP30       0.0152
     44  NE1       17.5140    7.5250    3.3540 N.ar   30  TRP30      -0.2442
     45  CE2       16.2880    7.1850    3.8710 C.ar   30  TRP30       0.0810
     46  CE3       14.5460    8.2380    5.1930 C.ar   30  TRP30       0.0012
     47  CZ2       15.5920    5.9650    3.8350 C.ar   30  TRP30       0.0191
     48  CZ3       13.8490    7.0290    5.1440 C.ar   30  TRP30       0.0001
     49  CH2       14.3750    5.9140    4.4820 C.ar   30  TRP30       0.0015
     50  N         14.5990   13.4850    5.1090 N.am   31  ASN31      -0.1960
     51  CA        14.4140   14.7950    5.7270 C.3    31  ASN31       0.1819
     52  C         13.6220   14.6470    7.0400 C.2    31  ASN31       0.2621
     53  O         12.9650   13.6300    7.2910 O.2    31  ASN31      -0.2715
     54  CB        13.5300   15.6700    4.7890 C.3    31  ASN31       0.1195
     55  CG        14.0220   15.9720    3.3890 C.2    31  ASN31       0.2630
     56  OD1       14.7360   16.9490    3.1730 O.2    31  ASN31      -0.2716
     57  ND2       13.5100   15.2670    2.3750 N.am   31  ASN31      -0.0877
     58  N         13.6520   15.7050    7.8500 N.am   32  GLY32      -0.1954
     59  CA        12.7360   15.8370    8.9700 C.3    32  GLY32       0.1869
     60  C         11.3860   16.2120    8.3620 C.2    32  GLY32       0.2309
     61  O         11.2440   16.2410    7.1380 O.2    32  GLY32      -0.2863
     62  N         17.9060   29.4050    4.1790 N.3    70  PHE70      -0.1241
     63  CA        18.4630   28.8650    2.9360 C.3    70  PHE70       0.1605
     64  C         18.2960   29.8280    1.7920 C.2    70  PHE70       0.2264
     65  O         17.2130   30.3700    1.5600 O.2    70  PHE70      -0.2867
     66  CB        17.8200   27.5440    2.5330 C.3    70  PHE70       0.0534
     67  CG        18.0620   26.4690    3.5430 C.ar   70  PHE70      -0.0203
     68  CD1       19.3130   25.8730    3.6580 C.ar   70  PHE70      -0.0042
     69  CD2       17.0250   25.9870    4.3280 C.ar   70  PHE70      -0.0042
     70  CE1       19.5470   24.8960    4.6300 C.ar   70  PHE70      -0.0003
     71  CE2       17.2450   24.9730    5.2470 C.ar   70  PHE70      -0.0003
     72  CZ        18.5080   24.4420    5.4040 C.ar   70  PHE70      -0.0000
     73  N         18.9410   29.9440   -2.3780 N.3    72  PHE72      -0.1241
     74  CA        19.2410   29.2370   -3.6170 C.3    72  PHE72       0.1605
     75  C         19.5610   30.3190   -4.6260 C.2    72  PHE72       0.2264
     76  O         18.7180   31.1760   -4.8900 O.2    72  PHE72      -0.2867
     77  CB        18.0740   28.3140   -4.0580 C.3    72  PHE72       0.0534
     78  CG        17.9240   27.1520   -3.1140 C.ar   72  PHE72      -0.0203
     79  CD1       17.1210   27.2530   -1.9850 C.ar   72  PHE72      -0.0042
     80  CD2       18.6310   25.9670   -3.3230 C.ar   72  PHE72      -0.0042
     81  CE1       17.0220   26.1810   -1.0750 C.ar   72  PHE72      -0.0003
     82  CE2       18.5440   24.9100   -2.4070 C.ar   72  PHE72      -0.0003
     83  CZ        17.7440   25.0260   -1.2900 C.ar   72  PHE72      -0.0000
     84  N         14.4580   30.7640    2.3010 N.3    79  MET79      -0.1245
     85  CA        13.6550   29.8710    3.1580 C.3    79  MET79       0.1570
     86  C         14.0710   30.1190    4.5920 C.2    79  MET79       0.2261
     87  O         15.2190   29.8750    4.9490 O.2    79  MET79      -0.2867
     88  CB        13.8280   28.3940    2.7930 C.3    79  MET79       0.0387
     89  CG        13.3880   28.0640    1.3860 C.3    79  MET79       0.0595
     90  SD        13.8230   26.3440    1.0020 S.3    79  MET79      -0.1393
     91  CE        12.5920   25.4000    1.9710 C.3    79  MET79       0.0692
     92  N         13.7900   28.7450    7.8940 N.3    81  VAL81      -0.1245
     93  CA        13.3810   27.4660    8.4970 C.3    81  VAL81       0.1561
     94  C         13.5310   27.4600    9.9890 C.2    81  VAL81       0.2260
     95  O         14.6350   27.5510   10.5190 O.2    81  VAL81      -0.2867
     96  CB        14.0980   26.2730    7.8180 C.3    81  VAL81       0.0252
     97  CG1       13.6010   24.9450    8.3710 C.3    81  VAL81       0.0019
     98  CG2       13.9570   26.3410    6.2740 C.3    81  VAL81       0.0019
     99  N         21.0050   12.8100    2.3720 N.3   114  MET114     -0.1230
    100  CA        20.3220   13.9110    3.0480 C.3   114  MET114      0.1702
    101  C         20.8040   15.2130    2.4310 C.2   114  MET114      0.2592
    102  O         21.8320   15.2230    1.7390 O.2   114  MET114     -0.2718
    103  CB        20.6470   13.9020    4.5630 C.3   114  MET114      0.0401
    104  CG        19.9460   12.7450    5.2910 C.3   114  MET114      0.0596
    105  SD        20.5700   12.3920    6.9310 S.3   114  MET114     -0.1393
    106  CE        19.7450   13.7380    7.9350 C.3   114  MET114      0.0692
    107  N         20.1080   16.3280    2.7140 N.am  115  TRP115     -0.1976
    108  CA        20.5780   17.5990    2.2130 C.3   115  TRP115      0.1640
    109  C         21.9830   17.8120    2.7870 C.2   115  TRP115      0.2290
    110  O         22.2250   17.4760    3.9390 O.2   115  TRP115     -0.2864
    111  CB        19.6760   18.7290    2.6870 C.3   115  TRP115      0.0576
    112  CG        18.4360   18.8750    1.8710 C.ar  115  TRP115      0.0006
    113  CD1       17.2250   18.2930    2.1100 C.ar  115  TRP115      0.0946
    114  CD2       18.2590   19.7270    0.7420 C.ar  115  TRP115      0.0152
    115  NE1       16.3120   18.7070    1.1710 N.ar  115  TRP115     -0.2442
    116  CE2       16.9260   19.5720    0.3050 C.ar  115  TRP115      0.0810
    117  CE3       19.1100   20.6090    0.0400 C.ar  115  TRP115      0.0012
    118  CZ2       16.4130   20.2690   -0.8000 C.ar  115  TRP115      0.0191
    119  CZ3       18.6010   21.2920   -1.0610 C.ar  115  TRP115      0.0001
    120  CH2       17.2780   21.1050   -1.4810 C.ar  115  TRP115      0.0015
    121  N         23.6070   20.3310    4.0100 N.3   117  ASP117     -0.1225
    122  CA        23.7570   21.1510    5.2170 C.3   117  ASP117      0.1805
    123  C         23.5170   20.3470    6.4990 C.2   117  ASP117      0.2597
    124  O         23.9990   20.7360    7.5480 O.2   117  ASP117     -0.2718
    125  CB        22.8010   22.3310    5.1880 C.3   117  ASP117      0.1424
    126  CG        21.3670   21.9280    4.9870 C.2   117  ASP117      0.3668
    127  OD1       21.0270   21.5350    3.8680 O.co2 117  ASP117     -0.2456
    128  OD2       20.5900   21.9840    5.9580 O.co2 117  ASP117     -0.2456
    129  N         22.7740   19.2280    6.4190 N.am  118  ASP118     -0.1974
    130  CA        22.5130   18.4270    7.6260 C.3   118  ASP118      0.1709
    131  C         23.8120   17.9480    8.3120 C.2   118  ASP118      0.2293
    132  O         23.8770   17.9010    9.5270 O.2   118  ASP118     -0.2864
    133  CB        21.6570   17.2100    7.2930 C.3   118  ASP118      0.1436
    134  CG        20.2270   17.5680    6.9400 C.2   118  ASP118      0.3671
    135  OD1       19.8480   18.7390    7.1140 O.co2 118  ASP118     -0.2456
    136  OD2       19.5200   16.6980    6.4110 O.co2 118  ASP118     -0.2456
    137  N         24.8190   20.8610   10.8620 N.3   121  TRP121     -0.1227
    138  CA        24.0680   21.1790   12.0730 C.3   121  TRP121      0.1737
    139  C         23.5390   19.9670   12.8530 C.2   121  TRP121      0.2595
    140  O         23.1960   20.1360   14.0220 O.2   121  TRP121     -0.2718
    141  CB        22.9320   22.1860   11.7810 C.3   121  TRP121      0.0564
    142  CG        21.9290   21.7510   10.7460 C.ar  121  TRP121      0.0003
    143  CD1       21.9210   22.0810    9.4230 C.ar  121  TRP121      0.0946
    144  CD2       20.7150   21.0180   10.9850 C.ar  121  TRP121      0.0152
    145  NE1       20.8170   21.5340    8.8100 N.ar  121  TRP121     -0.2442
    146  CE2       20.0070   20.9790    9.7610 C.ar  121  TRP121      0.0810
    147  CE3       20.0990   20.5140   12.1410 C.ar  121  TRP121      0.0012
    148  CZ2       18.7590   20.3480    9.6360 C.ar  121  TRP121      0.0191
    149  CZ3       18.8520   19.9140   12.0250 C.ar  121  TRP121      0.0001
    150  CH2       18.2190   19.7970   10.7810 C.ar  121  TRP121      0.0015
    151  N         23.4340   18.7590   12.2310 N.am  122  PHE122     -0.1976
    152  CA        23.0220   17.5690   13.0310 C.3   122  PHE122      0.1639
    153  C         23.9300   17.3390   14.2060 C.2   122  PHE122      0.2290
    154  O         23.3810   17.0540   15.2670 O.2   122  PHE122     -0.2864
    155  CB        23.0090   16.2910   12.1970 C.3   122  PHE122      0.0560
    156  CG        21.6090   15.9480   11.7900 C.ar  122  PHE122     -0.0200
    157  CD1       20.8740   16.8090   10.9910 C.ar  122  PHE122     -0.0042
    158  CD2       21.0010   14.7880   12.2550 C.ar  122  PHE122     -0.0042
    159  CE1       19.5650   16.5020   10.6350 C.ar  122  PHE122     -0.0003
    160  CE2       19.6840   14.4840   11.9040 C.ar  122  PHE122     -0.0003
    161  CZ        18.9790   15.3420   11.0920 C.ar  122  PHE122     -0.0000
    162  N         23.1520   27.9190   -1.4270 N.3   137  PHE137     -0.1241
    163  CA        23.2730   26.7820   -2.3510 C.3   137  PHE137      0.1605
    164  C         23.2860   27.2010   -3.8060 C.2   137  PHE137      0.2264
    165  O         22.6150   28.1560   -4.1810 O.2   137  PHE137     -0.2867
    166  CB        22.0330   25.8830   -2.2040 C.3   137  PHE137      0.0534
    167  CG        22.0590   24.8710   -1.0960 C.ar  137  PHE137     -0.0203
    168  CD1       21.7310   25.2320    0.2070 C.ar  137  PHE137     -0.0042
    169  CD2       22.3830   23.5400   -1.3570 C.ar  137  PHE137     -0.0042
    170  CE1       21.7520   24.2810    1.2410 C.ar  137  PHE137     -0.0003
    171  CE2       22.4030   22.5940   -0.3230 C.ar  137  PHE137     -0.0003
    172  CZ        22.0570   22.9720    0.9580 C.ar  137  PHE137     -0.0000
@<TRIPOS>BOND
     1    76    75    2
     2    75    74    1
     3    33    31   ar
     4    33    35   ar
     5   165   164    2
     6    31    30   ar
     7    77    74    1
     8    77    78    1
     9   164   163    1
    10    25    26    1
    11    74    73    1
    12    80    78   ar
    13    80    82   ar
    14    26    29    1
    15    26    27    1
    16    35    34   ar
    17    78    79   ar
    18    30    29    1
    19    30    32   ar
    20    82    83   ar
    21   163   166    1
    22   163   162    1
    23    27    28    2
    24   166   167    1
    25    79    81   ar
    26    34    32   ar
    27   120   119   ar
    28   120   118   ar
    29   169   167   ar
    30   169   171   ar
    31    83    81   ar
    32   167   168   ar
    33   119   117   ar
    34   118   116   ar
    35   171   172   ar
    36   117   114   ar
    37   168   170   ar
    38   116   114   ar
    39   116   115   ar
    40   114   112   ar
    41   172   170   ar
    42    90    89    1
    43    90    91    1
    44   115   113   ar
    45    89    88    1
    46    65    64    2
    47   102   101    2
    48    64    63    1
    49   112   113   ar
    50   112   111    1
    51   108   111    1
    52   108   107    1
    53   108   109    1
    54    84    85    1
    55    99   100    1
    56    57    55   am
    57   101   107   am
    58   101   100    1
    59    66    63    1
    60    66    67    1
    61    36    37    1
    62   109   110    2
    63    88    85    1
    64    63    62    1
    65   100   103    1
    66    85    86    1
    67    56    55    2
    68    44    42   ar
    69    44    45   ar
    70    55    54    1
    71    67    68   ar
    72    67    69   ar
    73    42    41   ar
    74    68    70   ar
    75    47    45   ar
    76    47    49   ar
    77   127   126   ar
    78    45    43   ar
    79    37    38    1
    80    37    40    1
    81   121   122    1
    82    69    71   ar
    83    41    43   ar
    84    41    40    1
    85    49    48   ar
    86    43    46   ar
    87   103   104    1
    88    86    87    2
    89    70    72   ar
    90    38    39    2
    91    38    50   am
    92    54    51    1
    93   126   125    1
    94   126   128   ar
    95    50    51    1
    96    48    46   ar
    97   125   122    1
    98   122   123    1
    99    71    72   ar
   100   104   105    1
   101    51    52    1
   102    98    96    1
   103   136   134   ar
   104   129   123   am
   105   129   130    1
   106   123   124    2
   107   105   106    1
   108   134   135   ar
   109   134   133    1
   110    52    53    2
   111    52    58   am
   112    61    60    2
   113   133   130    1
   114   130   131    1
   115    96    97    1
   116    96    93    1
   117    58    59    1
   118    92    93    1
   119    19    20    2
   120    19    18    1
   121     7     6    1
   122   131   132    2
   123    60    59    1
   124    93    94    1
   125    21    18    1
   126    21    22    1
   127   145   143   ar
   128   145   146   ar
   129    23    22    1
   130     8     6    1
   131    18    17    1
   132     6     5    1
   133   143   142   ar
   134    22    24    1
   135   148   146   ar
   136   148   150   ar
   137     5     2    1
   138   146   144   ar
   139    94    95    2
   140     2     1    1
   141     2     3    1
   142   159   157   ar
   143   159   161   ar
   144   142   144   ar
   145   142   141    1
   146   150   149   ar
   147   137   138    1
   148   144   147   ar
   149   157   156   ar
   150   161   160   ar
   151     3     4    2
   152   141   138    1
   153   156   155    1
   154   156   158   ar
   155   160   158   ar
   156   149   147   ar
   157    15    14    1
   158   138   139    1
   159   155   152    1
   160   151   139   am
   161   151   152    1
   162    16    14    1
   163   139   140    2
   164   152   153    1
   165    14    13    1
   166     9    10    1
   167    10    13    1
   168    10    11    1
   169   153   154    2
   170    11    12    2
