@<TRIPOS>MOLECULE
tmp/5fsnA00.pdb
 155 151 0 0 0
SMALL
GASTEIGER

@<TRIPOS>ATOM
      1  N          9.1350   28.5840    7.1540 N.3     5  TYR5       -0.1227
      2  CA         9.0220   27.1340    7.0630 C.3     5  TYR5        0.1736
      3  C          9.2960   26.5710    8.4440 C.2     5  TYR5        0.2596
      4  O          9.9290   27.2320    9.2770 O.2     5  TYR5       -0.2718
      5  CB        10.0540   26.5150    6.0830 C.3     5  TYR5        0.0548
      6  CG         9.7970   26.8230    4.6280 C.ar    5  TYR5       -0.0200
      7  CD1       10.2650   27.9990    4.0530 C.ar    5  TYR5       -0.0009
      8  CD2        9.1150   25.9250    3.8150 C.ar    5  TYR5       -0.0009
      9  CE1       10.0140   28.3010    2.7110 C.ar    5  TYR5        0.0417
     10  CE2        8.8880   26.2010    2.4590 C.ar    5  TYR5        0.0417
     11  CZ         9.3540   27.3830    1.9120 C.ar    5  TYR5        0.1957
     12  OH         9.1680   27.6650    0.5810 O.3     5  TYR5       -0.2866
     13  N          8.7960   25.3610    8.6870 N.am    6  THR6       -0.1939
     14  CA         9.0930   24.6280    9.9160 C.3     6  THR6        0.2028
     15  C          9.8160   23.3440    9.5330 C.2     6  THR6        0.2642
     16  O          9.6880   22.8680    8.4000 O.2     6  THR6       -0.2714
     17  CB         7.8160   24.2560   10.6950 C.3     6  THR6        0.1808
     18  OG1        6.9940   23.4160    9.8840 O.3     6  THR6       -0.2208
     19  CG2        7.0750   25.4650   11.2220 C.3     6  THR6        0.0379
     20  N         10.5640   22.7850   10.4680 N.am    7  LEU7       -0.1977
     21  CA        11.2330   21.4870   10.3100 C.3     7  LEU7        0.1596
     22  C         11.2720   20.8600   11.6800 C.2     7  LEU7        0.2287
     23  O         11.7950   21.4660   12.6050 O.2     7  LEU7       -0.2864
     24  CB        12.6580   21.6610    9.7060 C.3     7  LEU7        0.0297
     25  CG        13.4400   20.3760    9.3600 C.3     7  LEU7        0.0022
     26  CD1       12.7730   19.6100    8.2400 C.3     7  LEU7        0.0001
     27  CD2       14.8660   20.7320    8.9300 C.3     7  LEU7        0.0001
     28  N         11.2530   11.6360    1.0530 N.3    21  LYS21      -0.1245
     29  CA        10.3000   12.3580    0.2340 C.3    21  LYS21       0.1561
     30  C         10.2240   11.7100   -1.1450 C.2    21  LYS21       0.2260
     31  O         11.2490   11.3950   -1.7510 O.2    21  LYS21      -0.2867
     32  CB        10.7610   13.8210    0.1250 C.3    21  LYS21       0.0271
     33  CG         9.7010   14.7280   -0.4550 C.3    21  LYS21       0.0035
     34  CD         9.4570   15.8330    0.5140 C.3    21  LYS21       0.0206
     35  CE         8.2910   16.6750    0.1070 C.3    21  LYS21       0.1093
     36  NZ         8.5540   18.0970    0.4200 N.3    21  LYS21      -0.1314
     37  N          9.8570   19.4040   -3.3460 N.3    25  PHE25      -0.1241
     38  CA        11.0670   19.9330   -2.7010 C.3    25  PHE25       0.1605
     39  C         11.6840   18.9030   -1.7590 C.2    25  PHE25       0.2264
     40  O         11.0260   18.4560   -0.8320 O.2    25  PHE25      -0.2867
     41  CB        10.7630   21.2430   -1.9410 C.3    25  PHE25       0.0534
     42  CG        12.0040   21.9090   -1.3720 C.ar   25  PHE25      -0.0203
     43  CD1       12.8430   22.6600   -2.1860 C.ar   25  PHE25      -0.0042
     44  CD2       12.3560   21.7360   -0.0370 C.ar   25  PHE25      -0.0042
     45  CE1       14.0030   23.2440   -1.6750 C.ar   25  PHE25      -0.0003
     46  CE2       13.5220   22.3150    0.4760 C.ar   25  PHE25      -0.0003
     47  CZ        14.3260   23.0850   -0.3440 C.ar   25  PHE25      -0.0000
     48  N         14.5970   13.5620    5.1520 N.3    31  ASN31      -0.1240
     49  CA        14.3810   14.8900    5.7300 C.3    31  ASN31       0.1653
     50  C         13.6040   14.7440    7.0540 C.2    31  ASN31       0.2266
     51  O         12.9250   13.7280    7.2610 O.2    31  ASN31      -0.2867
     52  CB        13.4170   15.6910    4.7810 C.3    31  ASN31       0.1155
     53  CG        13.7480   15.9730    3.3020 C.2    31  ASN31       0.2627
     54  OD1       14.1280   17.0870    2.9440 O.2    31  ASN31      -0.2716
     55  ND2       13.2980   15.1240    2.3860 N.am   31  ASN31      -0.0877
     56  N          8.1420   18.8800    7.7880 N.3    34  GLY34      -0.1210
     57  CA         7.8470   20.3020    7.8310 C.3    34  GLY34       0.1956
     58  C          7.3220   20.8750    6.5440 C.2    34  GLY34       0.2612
     59  O          6.9960   20.1370    5.6070 O.2    34  GLY34      -0.2717
     60  N          7.2070   22.1940    6.5320 N.am   35  GLY35      -0.1956
     61  CA         6.6720   22.9110    5.3900 C.3    35  GLY35       0.1869
     62  C          6.3150   24.3380    5.7170 C.2    35  GLY35       0.2309
     63  O          6.7310   24.8790    6.7490 O.2    35  GLY35      -0.2863
     64  N         17.9060   29.6330    4.2750 N.3    70  PHE70      -0.1241
     65  CA        18.4900   29.0750    3.0620 C.3    70  PHE70       0.1605
     66  C         18.3030   30.0100    1.9040 C.2    70  PHE70       0.2264
     67  O         17.2080   30.5050    1.6570 O.2    70  PHE70      -0.2867
     68  CB        17.8600   27.7130    2.7220 C.3    70  PHE70       0.0534
     69  CG        18.1350   26.6700    3.7720 C.ar   70  PHE70      -0.0203
     70  CD1       19.3850   26.0550    3.8560 C.ar   70  PHE70      -0.0042
     71  CD2       17.1460   26.2820    4.6640 C.ar   70  PHE70      -0.0042
     72  CE1       19.6410   25.0820    4.8220 C.ar   70  PHE70      -0.0003
     73  CE2       17.4020   25.3100    5.6340 C.ar   70  PHE70      -0.0003
     74  CZ        18.6440   24.7020    5.6950 C.ar   70  PHE70      -0.0000
     75  N         18.9510   30.0970   -2.3340 N.3    72  PHE72      -0.1241
     76  CA        19.2880   29.3760   -3.5630 C.3    72  PHE72       0.1605
     77  C         19.6100   30.4850   -4.5430 C.2    72  PHE72       0.2264
     78  O         18.7460   31.3050   -4.8320 O.2    72  PHE72      -0.2867
     79  CB        18.1360   28.4820   -4.0610 C.3    72  PHE72       0.0534
     80  CG        17.9520   27.2610   -3.1920 C.ar   72  PHE72      -0.0203
     81  CD1       18.7190   26.1130   -3.3990 C.ar   72  PHE72      -0.0042
     82  CD2       17.0190   27.2560   -2.1640 C.ar   72  PHE72      -0.0042
     83  CE1       18.5450   24.9740   -2.5940 C.ar   72  PHE72      -0.0003
     84  CE2       16.8710   26.1240   -1.3320 C.ar   72  PHE72      -0.0003
     85  CZ        17.6280   24.9900   -1.5640 C.ar   72  PHE72      -0.0000
     86  N         14.4200   30.9390    2.3980 N.3    79  MET79      -0.1245
     87  CA        13.6300   30.0450    3.2520 C.3    79  MET79       0.1570
     88  C         14.0400   30.3140    4.6810 C.2    79  MET79       0.2261
     89  O         15.1910   30.1130    5.0300 O.2    79  MET79      -0.2867
     90  CB        13.8750   28.5690    2.9120 C.3    79  MET79       0.0387
     91  CG        13.4490   28.2100    1.4950 C.3    79  MET79       0.0595
     92  SD        13.9060   26.5010    1.1320 S.3    79  MET79      -0.1393
     93  CE        12.7080   25.5680    2.0470 C.3    79  MET79       0.0692
     94  N         13.7850   28.8440    7.9650 N.3    81  VAL81      -0.1245
     95  CA        13.3830   27.5730    8.5640 C.3    81  VAL81       0.1561
     96  C         13.5460   27.5620   10.0740 C.2    81  VAL81       0.2260
     97  O         14.6550   27.6880   10.6020 O.2    81  VAL81      -0.2867
     98  CB        14.1030   26.3790    7.8770 C.3    81  VAL81       0.0252
     99  CG1       13.6000   25.0460    8.4320 C.3    81  VAL81       0.0019
    100  CG2       13.9160   26.4310    6.3460 C.3    81  VAL81       0.0019
    101  N         19.9290   16.5110    2.7230 N.3   115  TRP115     -0.1241
    102  CA        20.3890   17.8110    2.2480 C.3   115  TRP115      0.1605
    103  C         21.8330   18.0100    2.7760 C.2   115  TRP115      0.2264
    104  O         22.1070   17.6450    3.9190 O.2   115  TRP115     -0.2867
    105  CB        19.4980   18.9410    2.7740 C.3   115  TRP115      0.0550
    106  CG        18.2050   19.0980    2.0200 C.ar  115  TRP115      0.0003
    107  CD1       16.9870   18.6060    2.3800 C.ar  115  TRP115      0.0946
    108  CD2       18.0170   19.7530    0.7510 C.ar  115  TRP115      0.0152
    109  NE1       16.0370   18.9560    1.4430 N.ar  115  TRP115     -0.2442
    110  CE2       16.6480   19.6370    0.4180 C.ar  115  TRP115      0.0810
    111  CE3       18.8680   20.4680   -0.1200 C.ar  115  TRP115      0.0012
    112  CZ2       16.1050   20.2190   -0.7390 C.ar  115  TRP115      0.0191
    113  CZ3       18.3340   21.0280   -1.2750 C.ar  115  TRP115      0.0001
    114  CH2       16.9690   20.9030   -1.5780 C.ar  115  TRP115      0.0015
    115  N         23.4630   20.5300    3.9460 N.3   117  ASP117     -0.1225
    116  CA        23.5720   21.3770    5.1430 C.3   117  ASP117      0.1805
    117  C         23.4030   20.5800    6.4420 C.2   117  ASP117      0.2597
    118  O         23.9570   20.9440    7.4770 O.2   117  ASP117     -0.2718
    119  CB        22.5550   22.5250    5.0900 C.3   117  ASP117      0.1424
    120  CG        21.1170   22.0390    4.9580 C.2   117  ASP117      0.3668
    121  OD1       20.6980   21.7450    3.8340 O.co2 117  ASP117     -0.2456
    122  OD2       20.4030   22.0450    5.9580 O.co2 117  ASP117     -0.2456
    123  N         22.6480   19.4870    6.3930 N.am  118  ASP118     -0.1974
    124  CA        22.3940   18.6640    7.5840 C.3   118  ASP118      0.1709
    125  C         23.6810   18.1780    8.2760 C.2   118  ASP118      0.2293
    126  O         23.7170   18.1010    9.4890 O.2   118  ASP118     -0.2864
    127  CB        21.5340   17.4360    7.2100 C.3   118  ASP118      0.1436
    128  CG        20.1420   17.8100    6.7080 C.2   118  ASP118      0.3671
    129  OD1       19.9730   18.9460    6.1910 O.co2 118  ASP118     -0.2456
    130  OD2       19.3000   16.9190    6.6220 O.co2 118  ASP118     -0.2456
    131  N         24.7210   21.0210   10.8980 N.3   121  TRP121     -0.1241
    132  CA        23.9620   21.3560   12.1200 C.3   121  TRP121      0.1605
    133  C         23.3960   20.1440   12.8800 C.2   121  TRP121      0.2264
    134  O         23.1030   20.2580   14.0690 O.2   121  TRP121     -0.2867
    135  CB        22.8490   22.3980   11.8260 C.3   121  TRP121      0.0550
    136  CG        21.8770   21.9800   10.7530 C.ar  121  TRP121      0.0003
    137  CD1       21.9270   22.3010    9.4250 C.ar  121  TRP121      0.0946
    138  CD2       20.6700   21.2360   10.9400 C.ar  121  TRP121      0.0152
    139  NE1       20.8360   21.7820    8.7740 N.ar  121  TRP121     -0.2442
    140  CE2       20.0160   21.1800    9.6870 C.ar  121  TRP121      0.0810
    141  CE3       20.0530   20.6480   12.0580 C.ar  121  TRP121      0.0012
    142  CZ2       18.8190   20.4810    9.5000 C.ar  121  TRP121      0.0191
    143  CZ3       18.8540   19.9830   11.8800 C.ar  121  TRP121      0.0001
    144  CH2       18.2790   19.8520   10.6060 C.ar  121  TRP121      0.0015
    145  N         23.1940   28.1290   -1.3060 N.3   137  PHE137     -0.1241
    146  CA        23.2670   27.0200   -2.2530 C.3   137  PHE137      0.1605
    147  C         23.3060   27.4840   -3.7040 C.2   137  PHE137      0.2264
    148  O         22.7090   28.4990   -4.0640 O.2   137  PHE137     -0.2867
    149  CB        22.0240   26.1250   -2.1030 C.3   137  PHE137      0.0534
    150  CG        22.0830   25.0910   -1.0170 C.ar  137  PHE137     -0.0203
    151  CD1       21.8870   25.4470    0.3130 C.ar  137  PHE137     -0.0042
    152  CD2       22.2630   23.7450   -1.3260 C.ar  137  PHE137     -0.0042
    153  CE1       21.9130   24.4800    1.3180 C.ar  137  PHE137     -0.0003
    154  CE2       22.3060   22.7850   -0.3120 C.ar  137  PHE137     -0.0003
    155  CZ        22.0840   23.1580    0.9850 C.ar  137  PHE137     -0.0000
@<TRIPOS>BOND
     1    78    77    2
     2    77    76    1
     3   148   147    2
     4    79    76    1
     5    79    80    1
     6   147   146    1
     7    76    75    1
     8    81    80   ar
     9    81    83   ar
    10    37    38    1
    11    80    82   ar
    12    38    41    1
    13    38    39    1
    14    83    85   ar
    15   146   149    1
    16   146   145    1
    17    43    45   ar
    18    43    42   ar
    19    82    84   ar
    20   149   150    1
    21    41    42    1
    22    39    40    2
    23    31    30    2
    24    45    47   ar
    25   114   113   ar
    26   114   112   ar
    27    85    84   ar
    28    42    44   ar
    29   152   150   ar
    30   152   154   ar
    31   113   111   ar
    32    30    29    1
    33   150   151   ar
    34   112   110   ar
    35    33    32    1
    36    33    34    1
    37    47    46   ar
    38   154   155   ar
    39   111   108   ar
    40    44    46   ar
    41    35    36    1
    42    35    34    1
    43    32    29    1
    44    29    28    1
    45   151   153   ar
    46   110   108   ar
    47   110   109   ar
    48    12    11    1
    49   108   106   ar
    50   155   153   ar
    51    92    91    1
    52    92    93    1
    53   109   107   ar
    54    91    90    1
    55    67    66    2
    56    66    65    1
    57    11    10   ar
    58    11     9   ar
    59   106   107   ar
    60   106   105    1
    61   102   101    1
    62   102   105    1
    63   102   103    1
    64    55    53   am
    65    86    87    1
    66    10     8   ar
    67     9     7   ar
    68    68    65    1
    69    68    69    1
    70   103   104    2
    71    90    87    1
    72    54    53    2
    73    65    64    1
    74    87    88    1
    75    53    52    1
    76    69    70   ar
    77    69    71   ar
    78     8     6   ar
    79   121   120   ar
    80    70    72   ar
    81   115   116    1
    82     7     6   ar
    83     6     5    1
    84    71    73   ar
    85    88    89    2
    86    52    49    1
    87    72    74   ar
    88   120   119    1
    89   120   122   ar
    90   119   116    1
    91   116   117    1
    92    48    49    1
    93    61    62    1
    94    61    60    1
    95    59    58    2
    96    73    74   ar
    97    62    63    2
    98    49    50    1
    99     5     2    1
   100   129   128   ar
   101   100    98    1
   102   123   117   am
   103   123   124    1
   104   117   118    2
   105    60    58   am
   106    58    57    1
   107   130   128   ar
   108   128   127    1
   109    50    51    2
   110     2     1    1
   111     2     3    1
   112   127   124    1
   113   124   125    1
   114    56    57    1
   115    98    99    1
   116    98    95    1
   117    94    95    1
   118    26    25    1
   119   125   126    2
   120    16    15    2
   121     3    13   am
   122     3     4    2
   123    95    96    1
   124    13    14    1
   125   139   137   ar
   126   139   140   ar
   127    27    25    1
   128    25    24    1
   129   137   136   ar
   130   142   140   ar
   131   142   144   ar
   132    15    14    1
   133    15    20   am
   134   140   138   ar
   135    24    21    1
   136    18    17    1
   137    14    17    1
   138    96    97    2
   139    21    20    1
   140    21    22    1
   141   144   143   ar
   142    17    19    1
   143   136   138   ar
   144   136   135    1
   145   131   132    1
   146   138   141   ar
   147    22    23    2
   148   135   132    1
   149   143   141   ar
   150   132   133    1
   151   133   134    2
