@<TRIPOS>MOLECULE
tmp/5fsoA00.pdb
 119 116 0 0 0
SMALL
GASTEIGER

@<TRIPOS>ATOM
      1  N         10.6000   22.5920   10.3830 N.3     7  LEU7       -0.1245
      2  CA        11.3450   21.3430   10.2510 C.3     7  LEU7        0.1561
      3  C         11.3710   20.7350   11.6240 C.2     7  LEU7        0.2260
      4  O         11.8860   21.3550   12.5640 O.2     7  LEU7       -0.2867
      5  CB        12.7610   21.6270    9.7370 C.3     7  LEU7        0.0270
      6  CG        13.6160   20.3970    9.3360 C.3     7  LEU7        0.0019
      7  CD1       12.9290   19.5780    8.2840 C.3     7  LEU7        0.0001
      8  CD2       14.9830   20.8720    8.7980 C.3     7  LEU7        0.0001
      9  N          9.9980   19.3440   -3.7530 N.3    25  PHE25      -0.1241
     10  CA        11.2410   19.9170   -3.2580 C.3    25  PHE25       0.1605
     11  C         11.9260   19.0070   -2.2380 C.2    25  PHE25       0.2264
     12  O         11.3310   18.6580   -1.2330 O.2    25  PHE25      -0.2867
     13  CB        10.9870   21.3200   -2.7150 C.3    25  PHE25       0.0534
     14  CG        12.2640   22.0900   -2.4980 C.ar   25  PHE25      -0.0203
     15  CD1       12.9480   22.6480   -3.5710 C.ar   25  PHE25      -0.0042
     16  CD2       12.7980   22.2280   -1.2290 C.ar   25  PHE25      -0.0042
     17  CE1       14.1430   23.3310   -3.3700 C.ar   25  PHE25      -0.0003
     18  CE2       13.9850   22.9280   -1.0320 C.ar   25  PHE25      -0.0003
     19  CZ        14.6500   23.4630   -2.1020 C.ar   25  PHE25      -0.0000
     20  N         14.8340   13.4140    5.4330 N.3    31  ASN31      -0.1240
     21  CA        14.6710   14.7560    5.9890 C.3    31  ASN31       0.1653
     22  C         13.7500   14.7140    7.2180 C.2    31  ASN31       0.2266
     23  O         13.0310   13.7320    7.4430 O.2    31  ASN31      -0.2867
     24  CB        14.0520   15.6300    4.8700 C.3    31  ASN31       0.1155
     25  CG        14.0180   17.1180    5.1040 C.2    31  ASN31       0.2627
     26  OD1       14.5830   17.6420    6.0570 O.2    31  ASN31      -0.2716
     27  ND2       13.4240   17.8320    4.1690 N.am   31  ASN31      -0.0877
     28  N         17.9120   29.6040    4.2450 N.3    70  PHE70      -0.1241
     29  CA        18.5060   29.0560    3.0280 C.3    70  PHE70       0.1605
     30  C         18.2870   30.0050    1.8700 C.2    70  PHE70       0.2264
     31  O         17.1730   30.4600    1.6120 O.2    70  PHE70      -0.2867
     32  CB        17.8970   27.7060    2.6460 C.3    70  PHE70       0.0534
     33  CG        18.1540   26.6320    3.6620 C.ar   70  PHE70      -0.0203
     34  CD1       19.3890   25.9870    3.7200 C.ar   70  PHE70      -0.0042
     35  CD2       17.1790   26.2780    4.5810 C.ar   70  PHE70      -0.0042
     36  CE1       19.6530   25.0220    4.7090 C.ar   70  PHE70      -0.0003
     37  CE2       17.4240   25.2810    5.5330 C.ar   70  PHE70      -0.0003
     38  CZ        18.6690   24.6650    5.5960 C.ar   70  PHE70      -0.0000
     39  N         18.9710   30.0740   -2.3310 N.3    72  PHE72      -0.1241
     40  CA        19.2950   29.3400   -3.5590 C.3    72  PHE72       0.1605
     41  C         19.5960   30.4450   -4.5400 C.2    72  PHE72       0.2264
     42  O         18.7200   31.2690   -4.8070 O.2    72  PHE72      -0.2867
     43  CB        18.1280   28.4420   -4.0320 C.3    72  PHE72       0.0534
     44  CG        17.9310   27.2710   -3.1070 C.ar   72  PHE72      -0.0203
     45  CD1       18.6280   26.0790   -3.3070 C.ar   72  PHE72      -0.0042
     46  CD2       17.0810   27.3660   -2.0090 C.ar   72  PHE72      -0.0042
     47  CE1       18.4620   25.0000   -2.4320 C.ar   72  PHE72      -0.0003
     48  CE2       16.9440   26.2950   -1.1160 C.ar   72  PHE72      -0.0003
     49  CZ        17.6230   25.1150   -1.3470 C.ar   72  PHE72      -0.0000
     50  N         14.3970   30.8630    2.3370 N.3    79  MET79      -0.1245
     51  CA        13.6170   29.9750    3.2110 C.3    79  MET79       0.1570
     52  C         14.0450   30.2600    4.6460 C.2    79  MET79       0.2261
     53  O         15.2060   30.0780    4.9860 O.2    79  MET79      -0.2867
     54  CB        13.8600   28.5040    2.8920 C.3    79  MET79       0.0387
     55  CG        13.4000   28.0890    1.5070 C.3    79  MET79       0.0595
     56  SD        13.9180   26.3880    1.1410 S.3    79  MET79      -0.1393
     57  CE        12.8590   25.4100    2.3060 C.3    79  MET79       0.0692
     58  N         13.7720   28.7620    7.9270 N.3    81  VAL81      -0.1245
     59  CA        13.3500   27.4820    8.5090 C.3    81  VAL81       0.1561
     60  C         13.4870   27.4510    9.9950 C.2    81  VAL81       0.2260
     61  O         14.5800   27.5730   10.5310 O.2    81  VAL81      -0.2867
     62  CB        14.0890   26.3020    7.8260 C.3    81  VAL81       0.0252
     63  CG1       13.6190   24.9660    8.3780 C.3    81  VAL81       0.0019
     64  CG2       13.9320   26.3530    6.2890 C.3    81  VAL81       0.0019
     65  N         19.9300   16.4710    2.8380 N.3   115  TRP115     -0.1241
     66  CA        20.3530   17.7890    2.3960 C.3   115  TRP115      0.1605
     67  C         21.7780   18.0060    2.9280 C.2   115  TRP115      0.2264
     68  O         22.0490   17.6830    4.0850 O.2   115  TRP115     -0.2867
     69  CB        19.4010   18.8520    2.9430 C.3   115  TRP115      0.0550
     70  CG        18.1730   19.0280    2.1020 C.ar  115  TRP115      0.0003
     71  CD1       16.9440   18.4700    2.3050 C.ar  115  TRP115      0.0946
     72  CD2       18.0690   19.8110    0.9080 C.ar  115  TRP115      0.0152
     73  NE1       16.0750   18.8680    1.3090 N.ar  115  TRP115     -0.2442
     74  CE2       16.7470   19.6700    0.4260 C.ar  115  TRP115      0.0810
     75  CE3       18.9790   20.6060    0.1810 C.ar  115  TRP115      0.0012
     76  CZ2       16.2930   20.3410   -0.7160 C.ar  115  TRP115      0.0191
     77  CZ3       18.5210   21.2890   -0.9370 C.ar  115  TRP115      0.0001
     78  CH2       17.2050   21.1220   -1.3980 C.ar  115  TRP115      0.0015
     79  N         23.4620   20.5230    4.0560 N.3   117  ASP117     -0.1225
     80  CA        23.5850   21.3290    5.2700 C.3   117  ASP117      0.1805
     81  C         23.4220   20.4640    6.5440 C.2   117  ASP117      0.2597
     82  O         23.9400   20.8320    7.5950 O.2   117  ASP117     -0.2718
     83  CB        22.5230   22.4560    5.2820 C.3   117  ASP117      0.1424
     84  CG        21.1340   21.9420    4.9210 C.2   117  ASP117      0.3668
     85  OD1       20.8740   21.7390    3.7180 O.co2 117  ASP117     -0.2456
     86  OD2       20.2960   21.8150    5.8280 O.co2 117  ASP117     -0.2456
     87  N         22.7180   19.3160    6.4670 N.am  118  ASP118     -0.1974
     88  CA        22.5020   18.4980    7.6770 C.3   118  ASP118      0.1709
     89  C         23.7980   18.0110    8.3150 C.2   118  ASP118      0.2293
     90  O         23.8850   17.9450    9.5390 O.2   118  ASP118     -0.2864
     91  CB        21.5740   17.2960    7.3960 C.3   118  ASP118      0.1436
     92  CG        20.1690   17.7260    7.0660 C.2   118  ASP118      0.3671
     93  OD1       19.9600   18.9350    6.8080 O.co2 118  ASP118     -0.2456
     94  OD2       19.2840   16.8580    7.0260 O.co2 118  ASP118     -0.2456
     95  N         24.7300   20.9770   10.8440 N.3   121  TRP121     -0.1241
     96  CA        23.9700   21.2910   12.0470 C.3   121  TRP121      0.1605
     97  C         23.4230   20.0890   12.8090 C.2   121  TRP121      0.2264
     98  O         23.1110   20.2340   13.9900 O.2   121  TRP121     -0.2867
     99  CB        22.8430   22.3030   11.7380 C.3   121  TRP121      0.0550
    100  CG        21.8560   21.8650   10.6860 C.ar  121  TRP121      0.0003
    101  CD1       21.8710   22.1820    9.3590 C.ar  121  TRP121      0.0946
    102  CD2       20.6440   21.1320   10.9140 C.ar  121  TRP121      0.0152
    103  NE1       20.7650   21.6490    8.7330 N.ar  121  TRP121     -0.2442
    104  CE2       19.9620   21.0570    9.6750 C.ar  121  TRP121      0.0810
    105  CE3       20.0400   20.5900   12.0620 C.ar  121  TRP121      0.0012
    106  CZ2       18.7320   20.4020    9.5380 C.ar  121  TRP121      0.0191
    107  CZ3       18.8050   19.9730   11.9350 C.ar  121  TRP121      0.0001
    108  CH2       18.1890   19.8370   10.6830 C.ar  121  TRP121      0.0015
    109  N         23.1390   28.0680   -1.3350 N.3   137  PHE137     -0.1241
    110  CA        23.2590   26.9510   -2.2690 C.3   137  PHE137      0.1605
    111  C         23.2960   27.4000   -3.6990 C.2   137  PHE137      0.2264
    112  O         22.6720   28.3860   -4.0620 O.2   137  PHE137     -0.2867
    113  CB        21.9990   26.0420   -2.1570 C.3   137  PHE137      0.0534
    114  CG        22.0270   24.9810   -1.0970 C.ar  137  PHE137     -0.0203
    115  CD1       21.7510   25.2960    0.2310 C.ar  137  PHE137     -0.0042
    116  CD2       22.2810   23.6540   -1.4270 C.ar  137  PHE137     -0.0042
    117  CE1       21.7790   24.3070    1.2260 C.ar  137  PHE137     -0.0003
    118  CE2       22.3080   22.6610   -0.4270 C.ar  137  PHE137     -0.0003
    119  CZ        22.0140   22.9910    0.8760 C.ar  137  PHE137     -0.0000
@<TRIPOS>BOND
     1    42    41    2
     2    41    40    1
     3   112   111    2
     4    43    40    1
     5    43    44    1
     6     9    10    1
     7   111   110    1
     8    15    17   ar
     9    15    14   ar
    10    40    39    1
    11    17    19   ar
    12    45    44   ar
    13    45    47   ar
    14    10    13    1
    15    10    11    1
    16    44    46   ar
    17    13    14    1
    18    14    16   ar
    19    47    49   ar
    20   110   113    1
    21   110   109    1
    22    11    12    2
    23   113   114    1
    24    19    18   ar
    25    46    48   ar
    26   116   114   ar
    27   116   118   ar
    28    78    77   ar
    29    78    76   ar
    30    49    48   ar
    31    16    18   ar
    32   114   115   ar
    33    77    75   ar
    34    76    74   ar
    35   118   119   ar
    36    75    72   ar
    37   115   117   ar
    38    74    72   ar
    39    74    73   ar
    40   119   117   ar
    41    72    70   ar
    42    56    55    1
    43    56    57    1
    44    73    71   ar
    45    55    54    1
    46    31    30    2
    47    30    29    1
    48    70    71   ar
    49    70    69    1
    50    50    51    1
    51    66    65    1
    52    66    67    1
    53    66    69    1
    54    32    29    1
    55    32    33    1
    56    54    51    1
    57    67    68    2
    58    29    28    1
    59    51    52    1
    60    33    34   ar
    61    33    35   ar
    62    85    84   ar
    63    34    36   ar
    64    79    80    1
    65    27    25   am
    66    35    37   ar
    67    52    53    2
    68    36    38   ar
    69    24    25    1
    70    24    21    1
    71    84    83    1
    72    84    86   ar
    73    25    26    2
    74    80    83    1
    75    80    81    1
    76    20    21    1
    77    37    38   ar
    78    21    22    1
    79    64    62    1
    80    87    81   am
    81    87    88    1
    82    81    82    2
    83    93    92   ar
    84    94    92   ar
    85    92    91    1
    86    22    23    2
    87    91    88    1
    88    88    89    1
    89    62    63    1
    90    62    59    1
    91    58    59    1
    92     7     6    1
    93    89    90    2
    94    59    60    1
    95   103   101   ar
    96   103   104   ar
    97     8     6    1
    98     6     5    1
    99   101   100   ar
   100   106   104   ar
   101   106   108   ar
   102   104   102   ar
   103     5     2    1
   104    60    61    2
   105     2     1    1
   106     2     3    1
   107   108   107   ar
   108   100   102   ar
   109   100    99    1
   110    95    96    1
   111   102   105   ar
   112     3     4    2
   113    99    96    1
   114   107   105   ar
   115    96    97    1
   116    97    98    2
