@<TRIPOS>MOLECULE
tmp/5fsxA00.pdb
 150 144 0 0 0
SMALL
GASTEIGER

@<TRIPOS>ATOM
      1  N         65.7660   12.1820   73.1280 N.3    80  PRO80      -0.2102
      2  CA        66.5020   11.2960   74.0180 C.3    80  PRO80       0.1504
      3  C         67.9080   11.8470   74.3270 C.2    80  PRO80       0.2576
      4  O         68.5570   12.4650   73.4850 O.2    80  PRO80      -0.2718
      5  CB        66.5520    9.9840   73.2290 C.3    80  PRO80       0.0282
      6  CG        66.5720   10.4160   71.8190 C.3    80  PRO80       0.0208
      7  CD        65.7250   11.6640   71.7510 C.3    80  PRO80       0.0893
      8  N         68.3480   11.6340   75.5540 N.am   81  VAL81      -0.1966
      9  CA        69.6020   12.1880   76.0170 C.3    81  VAL81       0.1727
     10  C         70.7790   11.6760   75.1730 C.2    81  VAL81       0.2616
     11  O         71.7620   12.3980   74.9620 O.2    81  VAL81      -0.2715
     12  CB        69.8040   11.8590   77.5070 C.3    81  VAL81       0.0290
     13  CG1       70.2760   10.4120   77.6920 C.3    81  VAL81       0.0023
     14  CG2       70.7550   12.8490   78.1290 C.3    81  VAL81       0.0023
     15  N         70.6550   10.4530   74.6630 N.am   82  THR82      -0.1951
     16  CA        71.7130    9.8030   73.8860 C.3    82  THR82       0.1897
     17  C         72.0450   10.5320   72.5930 C.2    82  THR82       0.2313
     18  O         73.0460   10.2230   71.9630 O.2    82  THR82      -0.2863
     19  CB        71.3340    8.3670   73.5130 C.3    82  THR82       0.1794
     20  OG1       70.0450    8.3840   72.8900 O.3    82  THR82      -0.2208
     21  CG2       71.3070    7.4780   74.7390 C.3    82  THR82       0.0378
     22  N         70.1800    7.3060   84.2770 N.3    92  ALA92      -0.1231
     23  CA        69.3570    7.0060   85.4400 C.3    92  ALA92       0.1694
     24  C         69.3550    5.5010   85.6430 C.2    92  ALA92       0.2591
     25  O         68.5620    4.7710   85.0400 O.2    92  ALA92      -0.2718
     26  CB        67.9310    7.5440   85.2570 C.3    92  ALA92       0.0304
     27  N         70.2690    5.0450   86.4840 N.am   93  ALA93      -0.1980
     28  CA        70.5400    3.6330   86.6280 C.3    93  ALA93       0.1597
     29  C         70.0060    3.1530   87.9470 C.2    93  ALA93       0.2287
     30  O         69.3280    3.8910   88.6530 O.2    93  ALA93      -0.2864
     31  CB        72.0300    3.3710   86.5350 C.3    93  ALA93       0.0319
     32  N         66.2210   -1.2560   81.8120 N.3   101  GLY101     -0.1210
     33  CA        65.2530   -0.6790   80.8900 C.3   101  GLY101      0.1956
     34  C         65.3380    0.8260   80.7990 C.2   101  GLY101      0.2612
     35  O         66.3040    1.4280   81.2530 O.2   101  GLY101     -0.2717
     36  N         64.3250    1.4390   80.2000 N.am  102  GLY102     -0.1942
     37  CA        64.2690    2.8880   80.1060 C.3   102  GLY102      0.2014
     38  C         65.5320    3.4880   79.5080 C.2   102  GLY102      0.2638
     39  O         66.2010    2.8550   78.6930 O.2   102  GLY102     -0.2714
     40  N         65.8600    4.7060   79.9220 N.am  103  VAL103     -0.1977
     41  CA        67.0590    5.3870   79.4320 C.3   103  VAL103      0.1596
     42  C         68.3410    4.5560   79.6330 C.2   103  VAL103      0.2287
     43  O         69.2100    4.5440   78.7660 O.2   103  VAL103     -0.2864
     44  CB        67.2210    6.7590   80.1160 C.3   103  VAL103      0.0276
     45  CG1       67.5810    6.6030   81.5860 C.3   103  VAL103      0.0022
     46  CG2       68.2450    7.6000   79.3960 C.3   103  VAL103      0.0022
     47  N         68.6410    2.1050   76.9720 N.3   106  ALA106     -0.1245
     48  CA        68.9100    2.8460   75.7470 C.3   106  ALA106      0.1562
     49  C         70.3780    3.3070   75.6440 C.2   106  ALA106      0.2260
     50  O         70.9310    3.3870   74.5550 O.2   106  ALA106     -0.2867
     51  CB        67.9960    4.0320   75.6630 C.3   106  ALA106      0.0290
     52  N         72.4250    0.2770   74.9050 N.3   109  ARG109     -0.1245
     53  CA        72.2350   -0.0920   73.4990 C.3   109  ARG109      0.1563
     54  C         73.0520    0.7710   72.5430 C.2   109  ARG109      0.2260
     55  O         73.6920    0.2600   71.6270 O.2   109  ARG109     -0.2867
     56  CB        70.7740    0.0080   73.0930 C.3   109  ARG109      0.0307
     57  CG        69.9600   -1.2380   73.3570 C.3   109  ARG109      0.0489
     58  CD        68.6490   -1.2350   72.5560 C.3   109  ARG109      0.2205
     59  NE        67.8610   -0.0160   72.7520 N.pl3 109  ARG109     -0.0865
     60  CZ        67.1220    0.2350   73.8340 C.cat 109  ARG109      0.5346
     61  NH1       67.0740   -0.6510   74.8290 N.pl3 109  ARG109      0.1354
     62  NH2       66.4340    1.3750   73.9250 N.pl3 109  ARG109      0.1354
     63  N         68.8300    7.1240   91.1760 N.3   148  GLY148     -0.1225
     64  CA        67.8200    7.9640   91.7870 C.3   148  GLY148      0.1811
     65  C         67.0290    7.2460   92.8630 C.2   148  GLY148      0.2280
     66  O         66.9750    6.0160   92.8880 O.2   148  GLY148     -0.2866
     67  N         69.0860   13.7060   81.8810 N.3   179  CYS179     -0.1221
     68  CA        67.7740   13.1020   81.6530 C.3   179  CYS179      0.1808
     69  C         66.9700   13.3450   82.9220 C.2   179  CYS179      0.2601
     70  O         67.5390   13.7520   83.9260 O.2   179  CYS179     -0.2717
     71  CB        67.8910   11.6020   81.3250 C.3   179  CYS179      0.0970
     72  SG        68.5350   10.5300   82.6420 S.3   179  CYS179     -0.0800
     73  N         65.6570   13.1130   82.8940 N.am  180  CYS180     -0.1956
     74  CA        64.8210   13.3990   84.0610 C.3   180  CYS180      0.1843
     75  C         64.8140   12.2380   85.0550 C.2   180  CYS180      0.2625
     76  O         63.8680   11.4550   85.1080 O.2   180  CYS180     -0.2714
     77  CB        63.3910   13.7330   83.6180 C.3   180  CYS180      0.0997
     78  SG        63.3660   14.9670   82.3190 S.3   180  CYS180     -0.0797
     79  N         65.8670   12.1710   85.8620 N.am  181  VAL181     -0.1963
     80  CA        66.1000   11.0770   86.8050 C.3   181  VAL181      0.1727
     81  C         64.9350   10.8180   87.7450 C.2   181  VAL181      0.2617
     82  O         64.3550   11.7540   88.2750 O.2   181  VAL181     -0.2715
     83  CB        67.3530   11.3530   87.6840 C.3   181  VAL181      0.0290
     84  CG1       67.4500   10.3540   88.8560 C.3   181  VAL181      0.0023
     85  CG2       68.6320   11.3010   86.8420 C.3   181  VAL181      0.0023
     86  N         64.6440    9.5310   87.9560 N.am  182  SER182     -0.1936
     87  CA        63.6560    9.0250   88.9250 C.3   182  SER182      0.2055
     88  C         62.1790    9.2520   88.5520 C.2   182  SER182      0.2644
     89  O         61.2960    8.7600   89.2490 O.2   182  SER182     -0.2714
     90  CB        63.9060    9.6200   90.3210 C.3   182  SER182      0.2130
     91  OG        64.9610    8.9430   90.9730 O.3   182  SER182     -0.2179
     92  N         61.9130    9.9720   87.4640 N.am  183  THR183     -0.1936
     93  CA        60.5440   10.3580   87.1360 C.3   183  THR183      0.2028
     94  C         59.8750    9.3940   86.1720 C.2   183  THR183      0.2643
     95  O         58.7320    9.6070   85.7820 O.2   183  THR183     -0.2714
     96  CB        60.4730   11.7480   86.5070 C.3   183  THR183      0.1808
     97  OG1       61.1320   11.7380   85.2350 O.3   183  THR183     -0.2208
     98  CG2       61.0930   12.7940   87.4190 C.3   183  THR183      0.0379
     99  N         60.5930    8.3500   85.7740 N.am  184  GLY184     -0.1939
    100  CA        60.0250    7.3260   84.9190 C.3   184  GLY184      0.2014
    101  C         59.3440    6.2650   85.7570 C.2   184  GLY184      0.2639
    102  O         58.3220    6.5210   86.3950 O.2   184  GLY184     -0.2714
    103  N         59.9210    5.0710   85.7710 N.am  185  VAL185     -0.1963
    104  CA        59.3730    3.9800   86.5630 C.3   185  VAL185      0.1727
    105  C         59.5960    4.1330   88.0730 C.2   185  VAL185      0.2616
    106  O         58.8750    3.5160   88.8550 O.2   185  VAL185     -0.2715
    107  CB        59.9580    2.6140   86.1190 C.3   185  VAL185      0.0290
    108  CG1       59.4920    2.2740   84.7150 C.3   185  VAL185      0.0023
    109  CG2       61.4910    2.6110   86.2050 C.3   185  VAL185      0.0023
    110  N         60.5820    4.9260   88.4990 N.am  186  TYR186     -0.1974
    111  CA        60.8080    5.1130   89.9350 C.3   186  TYR186      0.1639
    112  C         59.7420    6.0290   90.5670 C.2   186  TYR186      0.2290
    113  O         59.6630    6.1560   91.7940 O.2   186  TYR186     -0.2864
    114  CB        62.2180    5.6550   90.1960 C.3   186  TYR186      0.0560
    115  CG        63.2960    4.5800   90.2100 C.ar  186  TYR186     -0.0198
    116  CD1       63.0330    3.2830   89.7610 C.ar  186  TYR186     -0.0009
    117  CD2       64.5650    4.8560   90.6850 C.ar  186  TYR186     -0.0009
    118  CE1       64.0060    2.3070   89.7750 C.ar  186  TYR186      0.0417
    119  CE2       65.5470    3.8830   90.7050 C.ar  186  TYR186      0.0417
    120  CZ        65.2630    2.6080   90.2500 C.ar  186  TYR186      0.1957
    121  OH        66.2360    1.6320   90.2670 O.3   186  TYR186     -0.2866
    122  N         62.5320   13.5470   76.9580 N.3   220  PHE220     -0.1227
    123  CA        62.1780   12.4320   76.0990 C.3   220  PHE220      0.1736
    124  C         60.6720   12.4430   75.8040 C.2   220  PHE220      0.2595
    125  O         60.2250   11.9360   74.7840 O.2   220  PHE220     -0.2718
    126  CB        62.5860   11.1270   76.7870 C.3   220  PHE220      0.0547
    127  CG        62.4060    9.8950   75.9500 C.ar  220  PHE220     -0.0202
    128  CD1       62.9450    9.8110   74.6830 C.ar  220  PHE220     -0.0042
    129  CD2       61.7400    8.7980   76.4580 C.ar  220  PHE220     -0.0042
    130  CE1       62.8000    8.6670   73.9290 C.ar  220  PHE220     -0.0003
    131  CE2       61.5860    7.6620   75.7100 C.ar  220  PHE220     -0.0003
    132  CZ        62.1190    7.5960   74.4420 C.ar  220  PHE220     -0.0000
    133  N         59.9170   13.0340   76.7200 N.am  221  GLN221     -0.1979
    134  CA        58.4670   13.1650   76.5980 C.3   221  GLN221      0.1601
    135  C         58.0640   14.6270   76.4850 C.2   221  GLN221      0.2287
    136  O         58.7620   15.5180   76.9750 O.2   221  GLN221     -0.2864
    137  CB        57.7870   12.5210   77.7970 C.3   221  GLN221      0.0394
    138  CG        58.0510   11.0440   77.9110 C.3   221  GLN221      0.0908
    139  CD        57.6230   10.4950   79.2470 C.2   221  GLN221      0.2608
    140  OE1       56.7360   11.0490   79.9000 O.2   221  GLN221     -0.2717
    141  NE2       58.2540    9.3990   79.6700 N.am  221  GLN221     -0.0878
    142  N         57.5600   16.5130   79.8570 N.3   224  GLU224     -0.1245
    143  CA        58.8580   16.7990   80.4380 C.3   224  GLU224      0.1567
    144  C         59.3350   18.1130   79.8710 C.2   224  GLU224      0.2260
    145  O         59.7660   18.9810   80.6180 O.2   224  GLU224     -0.2867
    146  CB        59.8710   15.6730   80.1540 C.3   224  GLU224      0.0388
    147  CG        59.6460   14.4030   80.9710 C.3   224  GLU224      0.1160
    148  CD        60.6030   13.2760   80.5910 C.2   224  GLU224      0.3649
    149  OE1       61.3540   13.4460   79.6120 O.co2 224  GLU224     -0.2457
    150  OE2       60.5990   12.2160   81.2580 O.co2 224  GLU224     -0.2457
@<TRIPOS>BOND
     1    55    54    2
     2     7     6    1
     3     7     1    1
     4     6     5    1
     5    18    17    2
     6    54    53    1
     7    58    59    1
     8    58    57    1
     9    17    16    1
    10    59    60    2
    11    20    19    1
    12    56    57    1
    13    56    53    1
    14     1     2    1
    15     5     2    1
    16     4     3    2
    17    53    52    1
    18    19    16    1
    19    19    21    1
    20    60    62    1
    21    60    61    1
    22    16    15    1
    23   130   132   ar
    24   130   128   ar
    25     2     3    1
    26     3     8   am
    27   132   131   ar
    28    50    49    2
    29    15    10   am
    30   128   127   ar
    31   125   124    2
    32    11    10    2
    33    10     9    1
    34     8     9    1
    35    49    48    1
    36    51    48    1
    37   131   129   ar
    38    48    47    1
    39   124   123    1
    40   124   133   am
    41   127   129   ar
    42   127   126    1
    43     9    12    1
    44   123   126    1
    45   123   122    1
    46   135   134    1
    47   135   136    2
    48   134   133    1
    49   134   137    1
    50    12    13    1
    51    12    14    1
    52   137   138    1
    53   138   139    1
    54    39    38    2
    55    43    42    2
    56   139   141   am
    57   139   140    2
    58    46    44    1
    59    41    42    1
    60    41    40    1
    61    41    44    1
    62    38    40   am
    63    38    37    1
    64   149   148   ar
    65   142   143    1
    66   144   143    1
    67   144   145    2
    68    37    36    1
    69    44    45    1
    70   146   143    1
    71   146   147    1
    72    36    34   am
    73   148   147    1
    74   148   150   ar
    75    34    33    1
    76    34    35    2
    77    33    32    1
    78    71    68    1
    79    71    72    1
    80    68    67    1
    81    68    69    1
    82    78    77    1
    83    73    69   am
    84    73    74    1
    85    69    70    2
    86    77    74    1
    87    74    75    1
    88    22    23    1
    89   108   107    1
    90   100   101    1
    91   100    99    1
    92    25    24    2
    93    75    76    2
    94    75    79   am
    95    97    96    1
    96    26    23    1
    97    23    24    1
    98    24    27   am
    99   101   103   am
   100   101   102    2
   101   103   104    1
   102    99    94   am
   103    95    94    2
   104    79    80    1
   105   107   109    1
   106   107   104    1
   107    94    93    1
   108    27    28    1
   109    96    93    1
   110    96    98    1
   111    31    28    1
   112   104   105    1
   113    28    29    1
   114    80    83    1
   115    80    81    1
   116    85    83    1
   117    93    92    1
   118    92    88   am
   119    83    84    1
   120    81    86   am
   121    81    82    2
   122    29    30    2
   123    86    87    1
   124   105   110   am
   125   105   106    2
   126   110   111    1
   127    88    87    1
   128    88    89    2
   129    87    90    1
   130   116   118   ar
   131   116   115   ar
   132   118   120   ar
   133   111   114    1
   134   111   112    1
   135   114   115    1
   136   115   117   ar
   137   120   121    1
   138   120   119   ar
   139    90    91    1
   140   112   113    2
   141   117   119   ar
   142    63    64    1
   143    64    65    1
   144    65    66    2
