@<TRIPOS>MOLECULE
tmp/5fsyA00.pdb
 175 168 0 0 0
SMALL
GASTEIGER

@<TRIPOS>ATOM
      1  N         33.7430   -0.2070   18.3870 N.3    79  PRO79      -0.2102
      2  CA        32.9610   -0.4920   17.1850 C.3    79  PRO79       0.1504
      3  C         32.1910   -1.7800   17.3840 C.2    79  PRO79       0.2576
      4  O         32.6910   -2.6820   18.0110 O.2    79  PRO79      -0.2718
      5  CB        34.0480   -0.6580   16.1190 C.3    79  PRO79       0.0282
      6  CG        35.1870   -1.2970   16.8760 C.3    79  PRO79       0.0208
      7  CD        35.1790   -0.4740   18.1520 C.3    79  PRO79       0.0893
      8  N         30.9250   -1.7980   16.9370 N.am   80  VAL80      -0.1966
      9  CA        30.0420   -2.9530   17.0280 C.3    80  VAL80       0.1727
     10  C         30.6540   -4.2320   16.3860 C.2    80  VAL80       0.2616
     11  O         30.3430   -5.3580   16.7560 O.2    80  VAL80      -0.2715
     12  CB        28.6320   -2.5350   16.4470 C.3    80  VAL80       0.0290
     13  CG1       28.6500   -2.2770   14.9430 C.3    80  VAL80       0.0023
     14  CG2       27.5390   -3.4890   16.8370 C.3    80  VAL80       0.0023
     15  N         31.5380   -4.0450   15.4210 N.am   81  THR81      -0.1951
     16  CA        32.2390   -5.1450   14.8060 C.3    81  THR81       0.1897
     17  C         33.0770   -6.0210   15.7400 C.2    81  THR81       0.2313
     18  O         33.2840   -7.1840   15.4310 O.2    81  THR81      -0.2863
     19  CB        33.1010   -4.6220   13.6550 C.3    81  THR81       0.1794
     20  OG1       33.8840   -3.5080   14.1310 O.3    81  THR81      -0.2208
     21  CG2       32.1560   -4.1310   12.5100 C.3    81  THR81       0.0378
     22  N         23.7820    0.0990   10.4990 N.3    91  ALA91      -0.1231
     23  CA        23.0160    1.3170   10.1780 C.3    91  ALA91       0.1694
     24  C         23.1740    1.5980    8.7010 C.2    91  ALA91       0.2592
     25  O         24.0540    2.3720    8.3060 O.2    91  ALA91      -0.2718
     26  CB        23.4900    2.5190   10.9860 C.3    91  ALA91       0.0304
     27  N         22.3050    0.9620    7.9200 N.am   92  ALA92      -0.1966
     28  CA        22.3470    0.9710    6.4430 C.3    92  ALA92       0.1728
     29  C         21.5690    2.1350    5.8120 C.2    92  ALA92       0.2616
     30  O         20.9340    2.9060    6.5230 O.2    92  ALA92      -0.2715
     31  CB        21.7590   -0.3540    5.9580 C.3    92  ALA92       0.0334
     32  N         21.5820    2.2280    4.4720 N.am   93  ASN93      -0.1972
     33  CA        20.5750    3.0470    3.7230 C.3    93  ASN93       0.1688
     34  C         19.6260    2.1850    2.9160 C.2    93  ASN93       0.2292
     35  O         19.8100    0.9530    2.8210 O.2    93  ASN93      -0.2864
     36  CB        21.2260    4.1390    2.8620 C.3    93  ASN93       0.1181
     37  CG        22.1640    3.5760    1.8010 C.2    93  ASN93       0.2629
     38  OD1       21.7360    2.8790    0.9060 O.2    93  ASN93      -0.2716
     39  ND2       23.4510    3.8860    1.9120 N.am   93  ASN93      -0.0877
     40  N         28.1380    1.7140    2.3500 N.3    99  GLY99      -0.1210
     41  CA        28.2580    3.1780    2.4910 C.3    99  GLY99       0.1956
     42  C         29.4530    3.5020    3.3720 C.2    99  GLY99       0.2612
     43  O         30.3740    2.6910    3.4910 O.2    99  GLY99      -0.2717
     44  N         29.4270    4.6710    4.0020 N.am  100  GLY100     -0.1942
     45  CA        30.4540    5.0550    4.9560 C.3   100  GLY100      0.2014
     46  C         29.9920    4.6780    6.3510 C.2   100  GLY100      0.2639
     47  O         29.1360    3.8120    6.5150 O.2   100  GLY100     -0.2714
     48  N         30.5270    5.3490    7.3580 N.am  101  GLY101     -0.1939
     49  CA        30.1680    5.0620    8.7470 C.3   101  GLY101      0.2014
     50  C         30.2740    3.6000    9.1670 C.2   101  GLY101      0.2639
     51  O         31.1560    2.8770    8.7000 O.2   101  GLY101     -0.2714
     52  N         29.3590    3.1480   10.0370 N.am  102  VAL102     -0.1963
     53  CA        29.4080    1.7760   10.5190 C.3   102  VAL102      0.1727
     54  C         29.1560    0.7310    9.3830 C.2   102  VAL102      0.2616
     55  O         29.7700   -0.3210    9.3560 O.2   102  VAL102     -0.2715
     56  CB        28.5130    1.5600   11.7600 C.3   102  VAL102      0.0290
     57  CG1       27.0330    1.4520   11.4030 C.3   102  VAL102      0.0023
     58  CG2       28.9380    0.2950   12.4880 C.3   102  VAL102      0.0023
     59  N         28.2860    1.0770    8.4440 N.am  103  ASP103     -0.1971
     60  CA        27.9810    0.2660    7.2550 C.3   103  ASP103      0.1709
     61  C         29.2910   -0.0650    6.4740 C.2   103  ASP103      0.2293
     62  O         29.5910   -1.2470    6.1460 O.2   103  ASP103     -0.2864
     63  CB        26.9700    1.1190    6.4630 C.3   103  ASP103      0.1436
     64  CG        26.3270    0.4450    5.3010 C.2   103  ASP103      0.3671
     65  OD1       26.3540   -0.7930    5.1400 O.co2 103  ASP103     -0.2456
     66  OD2       25.6720    1.2230    4.5620 O.co2 103  ASP103     -0.2456
     67  N         32.4240    0.0360    7.7910 N.3   105  ALA105     -0.1245
     68  CA        33.2810   -0.8310    8.6450 C.3   105  ALA105      0.1562
     69  C         32.8630   -2.3330    8.6690 C.2   105  ALA105      0.2260
     70  O         33.7040   -3.2790    8.6370 O.2   105  ALA105     -0.2867
     71  CB        33.3630   -0.2660   10.0480 C.3   105  ALA105      0.0290
     72  N         33.8150   -3.9320    5.4100 N.3   108  ARG108     -0.1245
     73  CA        35.2750   -4.1350    5.4390 C.3   108  ARG108      0.1563
     74  C         35.6330   -5.3910    6.2170 C.2   108  ARG108      0.2260
     75  O         36.3250   -6.2660    5.7220 O.2   108  ARG108     -0.2867
     76  CB        35.9880   -2.9120    6.0520 C.3   108  ARG108      0.0307
     77  CG        36.2860   -1.8030    5.0490 C.3   108  ARG108      0.0489
     78  CD        37.3150   -0.8090    5.5990 C.3   108  ARG108      0.2205
     79  NE        36.7590    0.0150    6.6850 N.pl3 108  ARG108     -0.0865
     80  CZ        35.8890    1.0210    6.5280 C.cat 108  ARG108      0.5346
     81  NH1       35.4250    1.3710    5.3230 N.pl3 108  ARG108      0.1354
     82  NH2       35.4520    1.6840    7.5970 N.pl3 108  ARG108      0.1354
     83  N         17.4810    3.5020    9.4590 N.3   147  GLY147     -0.1225
     84  CA        16.9000    4.4500   10.3690 C.3   147  GLY147      0.1811
     85  C         16.4110    5.6580    9.5680 C.2   147  GLY147      0.2280
     86  O         16.7770    5.8220    8.4090 O.2   147  GLY147     -0.2866
     87  N         24.4690   -0.5860   17.2520 N.3   178  CYS178     -0.1221
     88  CA        25.2160    0.6720   17.0460 C.3   178  CYS178      0.1808
     89  C         24.1760    1.7870   17.2200 C.2   178  CYS178      0.2601
     90  O         22.9820    1.5080   17.3300 O.2   178  CYS178     -0.2717
     91  CB        25.8610    0.6890   15.6380 C.3   178  CYS178      0.0970
     92  SG        24.6640    0.5790   14.2860 S.3   178  CYS178     -0.0800
     93  N         24.6090    3.0430   17.2620 N.am  179  CYS179     -0.1956
     94  CA        23.6660    4.1710   17.4500 C.3   179  CYS179      0.1843
     95  C         22.9770    4.6260   16.1320 C.2   179  CYS179      0.2625
     96  O         23.2010    5.6940   15.6320 O.2   179  CYS179     -0.2714
     97  CB        24.3810    5.3120   18.1690 C.3   179  CYS179      0.0997
     98  SG        25.1340    4.7390   19.7190 S.3   179  CYS179     -0.0797
     99  N         22.1330    3.7610   15.5940 N.am  180  VAL180     -0.1963
    100  CA        21.3960    4.0250   14.3430 C.3   180  VAL180      0.1727
    101  C         20.8490    5.4630   14.1850 C.2   180  VAL180      0.2617
    102  O         20.3220    6.0540   15.1370 O.2   180  VAL180     -0.2715
    103  CB        20.1940    3.1080   14.2100 C.3   180  VAL180      0.0290
    104  CG1       19.5020    3.3440   12.8560 C.3   180  VAL180      0.0023
    105  CG2       20.5820    1.6390   14.3610 C.3   180  VAL180      0.0023
    106  N         20.9970    6.0040   12.9720 N.am  181  SER181     -0.1936
    107  CA        20.5400    7.3770   12.5890 C.3   181  SER181      0.2055
    108  C         21.3210    8.5400   13.2170 C.2   181  SER181      0.2644
    109  O         21.1470    9.7050   12.8140 O.2   181  SER181     -0.2714
    110  CB        19.0590    7.5660   12.8270 C.3   181  SER181      0.2130
    111  OG        18.3420    6.7430   11.9560 O.3   181  SER181     -0.2179
    112  N         22.2020    8.2510   14.1640 N.am  182  THR182     -0.1936
    113  CA        22.8170    9.3120   14.9600 C.3   182  THR182      0.2028
    114  C         24.0890    9.8610   14.4070 C.2   182  THR182      0.2643
    115  O         24.6040   10.8400   14.9550 O.2   182  THR182     -0.2714
    116  CB        23.1170    8.8800   16.4140 C.3   182  THR182      0.1808
    117  OG1       24.1680    7.9120   16.4330 O.3   182  THR182     -0.2208
    118  CG2       21.8560    8.3300   17.1010 C.3   182  THR182      0.0379
    119  N         24.6430    9.2550   13.3540 N.am  183  GLY183     -0.1939
    120  CA        25.8690    9.7850   12.7460 C.3   183  GLY183      0.2014
    121  C         25.4730   10.6390   11.5490 C.2   183  GLY183      0.2639
    122  O         24.8230   11.7020   11.7270 O.2   183  GLY183     -0.2714
    123  N         25.7730   10.1680   10.3240 N.am  184  VAL184     -0.1963
    124  CA        25.4800   10.9970    9.1470 C.3   184  VAL184      0.1727
    125  C         23.9840   11.3030    8.9670 C.2   184  VAL184      0.2616
    126  O         23.6580   12.3210    8.4190 O.2   184  VAL184     -0.2715
    127  CB        26.0610   10.5090    7.8010 C.3   184  VAL184      0.0290
    128  CG1       27.5710   10.2640    7.8790 C.3   184  VAL184      0.0023
    129  CG2       25.2910    9.3290    7.2720 C.3   184  VAL184      0.0023
    130  N         23.0810   10.4620    9.4550 N.am  185  TYR185     -0.1974
    131  CA        21.6530   10.7770    9.3850 C.3   185  TYR185      0.1639
    132  C         21.1420   11.8230   10.3920 C.2   185  TYR185      0.2290
    133  O         19.9660   12.2270   10.2930 O.2   185  TYR185     -0.2864
    134  CB        20.8080    9.4980    9.4330 C.3   185  TYR185      0.0560
    135  CG        20.7120    8.7370    8.1110 C.ar  185  TYR185     -0.0198
    136  CD1       21.5180    9.0760    6.9890 C.ar  185  TYR185     -0.0009
    137  CD2       19.8180    7.6640    7.9770 C.ar  185  TYR185     -0.0009
    138  CE1       21.4100    8.3800    5.7930 C.ar  185  TYR185      0.0417
    139  CE2       19.7030    6.9460    6.7820 C.ar  185  TYR185      0.0417
    140  CZ        20.5140    7.2970    5.6940 C.ar  185  TYR185      0.1957
    141  OH        20.4420    6.6200    4.5040 O.3   185  TYR185     -0.2866
    142  N         27.0440   -0.7330   21.4500 N.3   217  ALA217     -0.1245
    143  CA        28.4190   -0.4290   21.0910 C.3   217  ALA217      0.1562
    144  C         28.5210    1.0670   20.8210 C.2   217  ALA217      0.2260
    145  O         27.7630    1.6000   20.0230 O.2   217  ALA217     -0.2867
    146  CB        28.7950   -1.2170   19.8500 C.3   217  ALA217      0.0290
    147  N         31.0050    3.7800   19.6230 N.3   219  PHE219     -0.1227
    148  CA        32.2150    4.0080   18.8910 C.3   219  PHE219      0.1736
    149  C         32.8810    5.3270   19.3100 C.2   219  PHE219      0.2595
    150  O         34.1120    5.4360   19.2120 O.2   219  PHE219     -0.2718
    151  CB        31.8680    4.0200   17.4110 C.3   219  PHE219      0.0547
    152  CG        33.0310    4.2280   16.5100 C.ar  219  PHE219     -0.0202
    153  CD1       34.1080    3.3440   16.5250 C.ar  219  PHE219     -0.0042
    154  CD2       33.0520    5.2990   15.6420 C.ar  219  PHE219     -0.0042
    155  CE1       35.1830    3.5530   15.6950 C.ar  219  PHE219     -0.0003
    156  CE2       34.1360    5.5020   14.8110 C.ar  219  PHE219     -0.0003
    157  CZ        35.1840    4.6280   14.8280 C.ar  219  PHE219     -0.0000
    158  N         32.0600    6.2650   19.7980 N.am  220  GLN220     -0.1979
    159  CA        32.4500    7.6010   20.2790 C.3   220  GLN220      0.1601
    160  C         32.1740    7.7470   21.7870 C.2   220  GLN220      0.2287
    161  O         31.1940    7.2000   22.3210 O.2   220  GLN220     -0.2864
    162  CB        31.6730    8.6750   19.4820 C.3   220  GLN220      0.0394
    163  CG        32.1130    8.7880   18.0160 C.3   220  GLN220      0.0908
    164  CD        31.0500    9.3250   17.0490 C.2   220  GLN220      0.2608
    165  OE1       30.0080    9.8740   17.4510 O.2   220  GLN220     -0.2717
    166  NE2       31.3160    9.1650   15.7460 N.am  220  GLN220     -0.0878
    167  N         28.6630    9.0380   22.9010 N.3   223  GLU223     -0.1245
    168  CA        27.5980    8.0300   22.8240 C.3   223  GLU223      0.1567
    169  C         27.6500    7.2600   24.1250 C.2   223  GLU223      0.2260
    170  O         26.6410    7.0770   24.7470 O.2   223  GLU223     -0.2867
    171  CB        27.8190    7.0640   21.6470 C.3   223  GLU223      0.0388
    172  CG        27.7410    7.7550   20.2990 C.3   223  GLU223      0.1160
    173  CD        28.1910    6.8980   19.1340 C.2   223  GLU223      0.3649
    174  OE1       28.7250    5.7880   19.3590 O.co2 223  GLU223     -0.2457
    175  OE2       28.0060    7.3710   17.9800 O.co2 223  GLU223     -0.2457
@<TRIPOS>BOND
     1    38    37    2
     2    37    39   am
     3    37    36    1
     4    40    41    1
     5    41    42    1
     6    35    34    2
     7    36    33    1
     8    34    33    1
     9    42    43    2
    10    42    44   am
    11    33    32    1
    12    44    45    1
    13    32    29   am
    14   141   140    1
    15    66    64   ar
    16    45    46    1
    17    77    78    1
    18    77    76    1
    19    65    64   ar
    20    64    63    1
    21    81    80    1
    22    72    73    1
    23    73    76    1
    24    73    74    1
    25    78    79    1
    26   140   138   ar
    27   140   139   ar
    28    75    74    2
    29   138   136   ar
    30    29    28    1
    31    29    30    2
    32    31    28    1
    33    62    61    2
    34    46    47    2
    35    46    48   am
    36    28    27    1
    37    63    60    1
    38    61    60    1
    39    80    79    2
    40    80    82    1
    41   139   137   ar
    42   136   135   ar
    43    60    59    1
    44   129   127    1
    45    48    49    1
    46    67    68    1
    47   127   128    1
    48   127   124    1
    49    27    24   am
    50   137   135   ar
    51   135   134    1
    52    25    24    2
    53    86    85    2
    54   126   125    2
    55    59    54   am
    56    70    69    2
    57    68    69    1
    58    68    71    1
    59    51    50    2
    60    24    23    1
    61    49    50    1
    62   125   124    1
    63   125   130   am
    64   124   123    1
    65    50    52   am
    66    55    54    2
    67    54    53    1
    68   131   134    1
    69   131   130    1
    70   131   132    1
    71    83    84    1
    72    85    84    1
    73    52    53    1
    74    23    22    1
    75    23    26    1
    76   133   132    2
    77   123   121   am
    78    53    56    1
    79    57    56    1
    80   121   122    2
    81   121   120    1
    82    56    58    1
    83   111   110    1
    84    21    19    1
    85   107   110    1
    86   107   106    1
    87   107   108    1
    88   120   119    1
    89   109   108    2
    90   104   103    1
    91   106   101   am
    92   108   112   am
    93   119   114   am
    94    19    20    1
    95    19    16    1
    96   112   113    1
    97   101   100    1
    98   101   102    2
    99   103   100    1
   100   103   105    1
   101    92    91    1
   102   100    99    1
   103   114   115    2
   104   114   113    1
   105    16    15    1
   106    16    17    1
   107   156   157   ar
   108   156   154   ar
   109   157   155   ar
   110    13    12    1
   111   113   116    1
   112    15    10   am
   113    18    17    2
   114    99    95   am
   115    96    95    2
   116    91    88    1
   117   154   152   ar
   118   155   153   ar
   119   166   164   am
   120     5     6    1
   121     5     2    1
   122    95    94    1
   123    10    11    2
   124    10     9    1
   125   116   117    1
   126   116   118    1
   127    12    14    1
   128    12     9    1
   129   152   153   ar
   130   152   151    1
   131     6     7    1
   132     8     9    1
   133     8     3   am
   134    88    89    1
   135    88    87    1
   136   164   165    2
   137   164   163    1
   138     2     3    1
   139     2     1    1
   140    89    93   am
   141    89    90    2
   142    93    94    1
   143     3     4    2
   144   151   148    1
   145    94    97    1
   146   175   173   ar
   147   163   162    1
   148     7     1    1
   149    97    98    1
   150   148   149    1
   151   148   147    1
   152   173   174   ar
   153   173   172    1
   154   150   149    2
   155   149   158   am
   156   162   159    1
   157   158   159    1
   158   146   143    1
   159   145   144    2
   160   159   160    1
   161   172   171    1
   162   144   143    1
   163   143   142    1
   164   171   168    1
   165   160   161    2
   166   168   167    1
   167   168   169    1
   168   169   170    2
