@<TRIPOS>MOLECULE
tmp/5ft2A03.pdb
 89 85 0 0 0
SMALL
GASTEIGER

@<TRIPOS>ATOM
      1  N        149.6210  146.9360  204.5570 N.3    31  SER31      -0.1217
      2  CA       150.4100  146.5390  203.4000 C.3    31  SER31       0.1889
      3  C        149.6720  146.9380  202.1370 C.2    31  SER31       0.2288
      4  O        148.4590  146.7700  202.0460 O.2    31  SER31      -0.2866
      5  CB       150.6830  145.0350  203.4010 C.3    31  SER31       0.2089
      6  OG       151.4760  144.6670  202.2840 O.3    31  SER31      -0.2183
      7  N        151.4750  146.6640  198.7700 N.3    33  ILE33      -0.1231
      8  CA       151.9980  145.7140  197.7870 C.3    33  ILE33       0.1692
      9  C        152.0890  144.3040  198.3690 C.2    33  ILE33       0.2592
     10  O        152.7200  144.0840  199.4000 O.2    33  ILE33      -0.2718
     11  CB       153.3900  146.1100  197.2720 C.3    33  ILE33       0.0266
     12  CG1      153.3450  147.4910  196.6270 C.3    33  ILE33       0.0019
     13  CG2      153.8890  145.0810  196.2660 C.3    33  ILE33       0.0020
     14  CD1      154.6710  147.9260  196.0520 C.3    33  ILE33       0.0001
     15  N        151.4480  143.3520  197.7000 N.am   34  ASN34      -0.1960
     16  CA       151.3110  141.9990  198.2310 C.3    34  ASN34       0.1819
     17  C        152.3040  140.9640  197.6830 C.2    34  ASN34       0.2621
     18  O        152.1640  139.7770  197.9600 O.2    34  ASN34      -0.2715
     19  CB       149.8820  141.5060  197.9920 C.3    34  ASN34       0.1195
     20  CG       149.4960  141.5220  196.5230 C.2    34  ASN34       0.2630
     21  OD1      150.0750  142.2610  195.7210 O.2    34  ASN34      -0.2716
     22  ND2      148.5030  140.7130  196.1650 N.am   34  ASN34      -0.0877
     23  N        153.2800  141.3890  196.8890 N.am   35  HIS35      -0.1959
     24  CA       154.2970  140.4670  196.3820 C.3    35  HIS35       0.1787
     25  C        155.7040  140.8390  196.8650 C.2    35  HIS35       0.2620
     26  O        155.8980  141.8730  197.5090 O.2    35  HIS35      -0.2715
     27  CB       154.2600  140.4110  194.8500 C.3    35  HIS35       0.0785
     28  CG       154.4410  141.7430  194.1930 C.ar   35  HIS35       0.0821
     29  ND1      155.6720  142.3470  194.0550 N.ar   35  HIS35      -0.2267
     30  CD2      153.5430  142.5920  193.6390 C.ar   35  HIS35       0.1154
     31  CE1      155.5240  143.5070  193.4440 C.ar   35  HIS35       0.1986
     32  NE2      154.2430  143.6820  193.1830 N.ar   35  HIS35      -0.2212
     33  N        156.6810  139.9960  196.5350 N.am   36  LYS36      -0.1977
     34  CA       158.0600  140.1630  196.9920 C.3    36  LYS36       0.1596
     35  C        158.9780  140.7250  195.9140 C.2    36  LYS36       0.2287
     36  O        160.1930  140.5770  196.0000 O.2    36  LYS36      -0.2864
     37  CB       158.6390  138.8180  197.4480 C.3    36  LYS36       0.0298
     38  CG       158.0030  138.1680  198.6680 C.3    36  LYS36       0.0038
     39  CD       158.3600  138.9130  199.9440 C.3    36  LYS36       0.0206
     40  CE       157.9220  138.1520  201.1940 C.3    36  LYS36       0.1093
     41  NZ       156.4450  138.0390  201.3300 N.3    36  LYS36      -0.1314
     42  N        163.7210  145.3020  203.3610 N.3    72  ALA72      -0.1231
     43  CA       162.8880  144.5040  202.4860 C.3    72  ALA72       0.1694
     44  C        162.0290  145.4740  201.6920 C.2    72  ALA72       0.2592
     45  O        161.3470  146.3230  202.2660 O.2    72  ALA72      -0.2718
     46  CB       162.0410  143.5340  203.2770 C.3    72  ALA72       0.0304
     47  N        162.0750  145.3720  200.3710 N.am   73  MET73      -0.1965
     48  CA       161.4000  146.3550  199.5460 C.3    73  MET73       0.1736
     49  C        160.6940  145.7320  198.3540 C.2    73  MET73       0.2617
     50  O        161.2950  144.9790  197.5910 O.2    73  MET73      -0.2715
     51  CB       162.4060  147.4060  199.0660 C.3    73  MET73       0.0427
     52  CG       161.8130  148.5150  198.1990 C.3    73  MET73       0.0599
     53  SD       161.7290  148.0940  196.4460 S.3    73  MET73      -0.1393
     54  CE       163.4250  147.5990  196.1500 C.3    73  MET73       0.0692
     55  N        159.4210  146.0780  198.1890 N.am   74  SER74      -0.1950
     56  CA       158.6750  145.7550  196.9820 C.3    74  SER74       0.1924
     57  C        158.3690  147.0280  196.2190 C.2    74  SER74       0.2314
     58  O        158.2980  148.1090  196.8040 O.2    74  SER74      -0.2863
     59  CB       157.3820  145.0210  197.3110 C.3    74  SER74       0.2116
     60  OG       157.6410  143.6770  197.6710 O.3    74  SER74      -0.2180
     61  N        157.0720  149.8800  198.6090 N.3    85  GLN85      -0.1245
     62  CA       156.7520  149.4670  199.9680 C.3    85  GLN85       0.1566
     63  C        157.9790  148.9080  200.6730 C.2    85  GLN85       0.2260
     64  O        158.6240  147.9800  200.1830 O.2    85  GLN85      -0.2867
     65  CB       155.6320  148.4290  199.9690 C.3    85  GLN85       0.0367
     66  CG       155.2370  147.9440  201.3560 C.3    85  GLN85       0.0905
     67  CD       154.0660  146.9780  201.3220 C.2    85  GLN85       0.2608
     68  OE1      153.0070  147.2830  200.7710 O.2    85  GLN85      -0.2717
     69  NE2      154.2550  145.8030  201.9030 N.am   85  GLN85      -0.0878
     70  N        159.1440  146.8940  203.8900 N.3    87  ASN87      -0.1240
     71  CA       158.7880  146.0960  205.0450 C.3    87  ASN87       0.1653
     72  C        159.8260  146.3310  206.1250 C.2    87  ASN87       0.2266
     73  O        160.8590  145.6590  206.1760 O.2    87  ASN87      -0.2867
     74  CB       158.6860  144.6240  204.6650 C.3    87  ASN87       0.1155
     75  CG       157.4700  144.3370  203.8120 C.2    87  ASN87       0.2627
     76  OD1      156.8520  145.2520  203.2720 O.2    87  ASN87      -0.2716
     77  ND2      157.1200  143.0670  203.6840 N.am   87  ASN87      -0.0877
     78  N        155.2780  149.1460  207.9260 N.3   139  TYR139     -0.1241
     79  CA       155.5060  149.4940  206.5260 C.3   139  TYR139      0.1605
     80  C        155.8070  150.9800  206.3220 C.2   139  TYR139      0.2264
     81  O        155.2300  151.8400  206.9940 O.2   139  TYR139     -0.2867
     82  CB       154.2960  149.1010  205.6710 C.3   139  TYR139      0.0534
     83  CG       153.8660  147.6600  205.8190 C.ar  139  TYR139     -0.0201
     84  CD1      154.6330  146.6260  205.3010 C.ar  139  TYR139     -0.0009
     85  CD2      152.6780  147.3340  206.4650 C.ar  139  TYR139     -0.0009
     86  CE1      154.2340  145.3040  205.4360 C.ar  139  TYR139      0.0417
     87  CE2      152.2730  146.0210  206.6030 C.ar  139  TYR139      0.0417
     88  CZ       153.0540  145.0090  206.0880 C.ar  139  TYR139      0.1957
     89  OH       152.6520  143.7000  206.2270 O.3   139  TYR139     -0.2866
@<TRIPOS>BOND
     1    32    31   ar
     2    32    30   ar
     3    31    29   ar
     4    30    28   ar
     5    29    28   ar
     6    28    27    1
     7    27    24    1
     8    21    20    2
     9    35    36    2
    10    35    34    1
    11    14    12    1
    12    54    53    1
    13    22    20   am
    14    57    58    2
    15    57    56    1
    16    13    11    1
    17    24    25    1
    18    24    23    1
    19    53    52    1
    20    20    19    1
    21    33    25   am
    22    33    34    1
    23    12    11    1
    24    25    26    2
    25    23    17   am
    26    56    59    1
    27    56    55    1
    28    34    37    1
    29    11     8    1
    30    59    60    1
    31    37    38    1
    32    50    49    2
    33    17    18    2
    34    17    16    1
    35    15    16    1
    36    15     9   am
    37     8     9    1
    38     8     7    1
    39    19    16    1
    40    55    49   am
    41    52    51    1
    42    49    48    1
    43     9    10    2
    44    61    62    1
    45    38    39    1
    46    51    48    1
    47    48    47    1
    48    39    40    1
    49    62    65    1
    50    62    63    1
    51    65    66    1
    52    64    63    2
    53    47    44   am
    54    68    67    2
    55    40    41    1
    56    67    66    1
    57    67    69   am
    58    44    45    2
    59    44    43    1
    60     4     3    2
    61     3     2    1
    62     6     5    1
    63    43    46    1
    64    43    42    1
    65    76    75    2
    66     2     5    1
    67     2     1    1
    68    77    75   am
    69    75    74    1
    70    70    71    1
    71    74    71    1
    72    71    72    1
    73    84    86   ar
    74    84    83   ar
    75    86    88   ar
    76    82    83    1
    77    82    79    1
    78    83    85   ar
    79    88    89    1
    80    88    87   ar
    81    72    73    2
    82    80    79    1
    83    80    81    2
    84    85    87   ar
    85    79    78    1
