@<TRIPOS>MOLECULE
tmp/5ft4A01.pdb
 90 86 0 0 0
SMALL
GASTEIGER

@<TRIPOS>ATOM
      1  N         39.6270  -11.5170   12.4220 N.3    25  ALA25      -0.1231
      2  CA        38.3770  -12.2950   12.4620 C.3    25  ALA25       0.1694
      3  C         37.4760  -11.9180   13.6500 C.2    25  ALA25       0.2591
      4  O         36.2500  -12.0510   13.5620 O.2    25  ALA25      -0.2718
      5  CB        38.6870  -13.8190   12.4790 C.3    25  ALA25       0.0304
      6  N         38.0700  -11.4050   14.7340 N.am   26  ALA26      -0.1980
      7  CA        37.2930  -10.8200   15.8380 C.3    26  ALA26       0.1597
      8  C         36.8460   -9.3830   15.4950 C.2    26  ALA26       0.2287
      9  O         35.6660   -9.0180   15.6590 O.2    26  ALA26      -0.2864
     10  CB        38.0980  -10.8560   17.1160 C.3    26  ALA26       0.0319
     11  N         28.1480  -20.2060   14.9310 N.3   118  HIS118     -0.1241
     12  CA        28.3600  -19.1860   15.9480 C.3   118  HIS118      0.1621
     13  C         27.0770  -19.0840   16.7930 C.2   118  HIS118      0.2264
     14  O         25.9650  -19.2570   16.2780 O.2   118  HIS118     -0.2867
     15  CB        28.7000  -17.8580   15.2390 C.3   118  HIS118      0.0745
     16  CG        29.1000  -16.7220   16.1400 C.ar  118  HIS118      0.0817
     17  ND1       28.1980  -16.0270   16.9120 N.ar  118  HIS118     -0.2268
     18  CD2       30.2970  -16.1040   16.3110 C.ar  118  HIS118      0.1154
     19  CE1       28.8280  -15.0640   17.5620 C.ar  118  HIS118      0.1986
     20  NE2       30.1020  -15.0880   17.2130 N.ar  118  HIS118     -0.2212
     21  N         33.8250  -19.1430   11.9130 N.3   170  ASN170     -0.1240
     22  CA        34.8310  -18.2770   12.5560 C.3   170  ASN170      0.1653
     23  C         35.8930  -19.0540   13.3470 C.2   170  ASN170      0.2266
     24  O         36.8140  -18.4540   13.8780 O.2   170  ASN170     -0.2867
     25  CB        34.1550  -17.2860   13.4850 C.3   170  ASN170      0.1155
     26  CG        33.3940  -17.9810   14.5930 C.2   170  ASN170      0.2627
     27  OD1       32.6610  -18.9220   14.3370 O.2   170  ASN170     -0.2716
     28  ND2       33.5960  -17.5480   15.8190 N.am  170  ASN170     -0.0877
     29  N         31.8580   -4.1740   11.4720 N.3   220  HIS220     -0.1226
     30  CA        33.1290   -3.9440   12.1800 C.3   220  HIS220      0.1752
     31  C         34.1610   -5.0040   11.7700 C.2   220  HIS220      0.2595
     32  O         35.3690   -4.8140   11.9440 O.2   220  HIS220     -0.2718
     33  CB        32.9110   -3.9230   13.7100 C.3   220  HIS220      0.0759
     34  CG        32.5910   -5.2660   14.3010 C.ar  220  HIS220      0.0818
     35  ND1       33.5650   -6.1180   14.7880 N.ar  220  HIS220     -0.2268
     36  CD2       31.4050   -5.8870   14.5250 C.ar  220  HIS220      0.1154
     37  CE1       32.9940   -7.2180   15.2550 C.ar  220  HIS220      0.1986
     38  NE2       31.6850   -7.1080   15.0990 N.ar  220  HIS220     -0.2212
     39  N         33.6810   -6.1220   11.2210 N.am  221  LYS221     -0.1980
     40  CA        34.5630   -7.1760   10.6870 C.3   221  LYS221      0.1596
     41  C         34.9350   -6.8230    9.2850 C.2   221  LYS221      0.2287
     42  O         35.9730   -7.2630    8.8210 O.2   221  LYS221     -0.2864
     43  CB        33.9180   -8.5600   10.7380 C.3   221  LYS221      0.0298
     44  CG        34.0360   -9.1500   12.1490 C.3   221  LYS221      0.0038
     45  CD        33.0560  -10.3200   12.3520 C.3   221  LYS221      0.0206
     46  CE        33.2380  -10.7970   13.8140 C.3   221  LYS221      0.1093
     47  NZ        32.6700  -12.1370   13.9910 N.3   221  LYS221     -0.1314
     48  N         44.0360  -14.1920   19.9200 N.3   352  ARG352     -0.1231
     49  CA        43.2440  -14.5330   21.1050 C.3   352  ARG352      0.1694
     50  C         42.9800  -16.0220   21.1910 C.2   352  ARG352      0.2591
     51  O         43.2780  -16.7580   20.2670 O.2   352  ARG352     -0.2718
     52  CB        41.9210  -13.7700   21.1030 C.3   352  ARG352      0.0321
     53  CG        40.9870  -14.2610   20.0450 C.3   352  ARG352      0.0489
     54  CD        39.6410  -13.5570   20.1070 C.3   352  ARG352      0.2205
     55  NE        39.7900  -12.1130   20.0030 N.pl3 352  ARG352     -0.0865
     56  CZ        38.9270  -11.2440   20.5040 C.cat 352  ARG352      0.5346
     57  NH1       37.8330  -11.6770   21.1240 N.pl3 352  ARG352      0.1354
     58  NH2       39.1540   -9.9440   20.3800 N.pl3 352  ARG352      0.1354
     59  N         42.4420  -16.4560   22.3270 N.am  353  ALA353     -0.1980
     60  CA        42.0980  -17.8610   22.5250 C.3   353  ALA353      0.1597
     61  C         40.6090  -17.9020   22.8810 C.2   353  ALA353      0.2287
     62  O         39.8370  -17.1200   22.3240 O.2   353  ALA353     -0.2864
     63  CB        42.9630  -18.5110   23.5780 C.3   353  ALA353      0.0319
     64  N         35.3370  -18.6870   21.2480 N.3   356  HIS356     -0.1226
     65  CA        34.9220  -18.0220   20.0080 C.3   356  HIS356      0.1752
     66  C         33.4220  -18.1020   19.7500 C.2   356  HIS356      0.2596
     67  O         33.0120  -18.1310   18.6110 O.2   356  HIS356     -0.2718
     68  CB        35.6610  -18.6320   18.8090 C.3   356  HIS356      0.0759
     69  CG        37.1380  -18.6660   19.0000 C.ar  356  HIS356      0.0818
     70  ND1       37.8350  -19.8300   19.2330 N.ar  356  HIS356     -0.2268
     71  CD2       38.0420  -17.6650   19.0760 C.ar  356  HIS356      0.1154
     72  CE1       39.1110  -19.5420   19.4210 C.ar  356  HIS356      0.1986
     73  NE2       39.2630  -18.2380   19.3340 N.ar  356  HIS356     -0.2212
     74  N         32.6140  -18.1080   20.8040 N.am  357  CYS357     -0.1970
     75  CA        31.1560  -18.1630   20.6370 C.3   357  CYS357      0.1712
     76  C         30.7340  -19.3950   19.8370 C.2   357  CYS357      0.2296
     77  O         29.7840  -19.3430   19.0670 O.2   357  CYS357     -0.2864
     78  CB        30.6370  -16.8790   19.9480 C.3   357  CYS357      0.0983
     79  SG        30.8520  -15.3870   20.9900 S.3   357  CYS357     -0.0798
     80  N         43.5660  -18.6260   17.8730 N.3   372  ARG372     -0.1245
     81  CA        43.2370  -18.3320   16.4930 C.3   372  ARG372      0.1563
     82  C         44.0240  -17.1350   16.0290 C.2   372  ARG372      0.2260
     83  O         43.8980  -16.0380   16.5710 O.2   372  ARG372     -0.2867
     84  CB        41.7420  -18.0730   16.3150 C.3   372  ARG372      0.0307
     85  CG        41.3370  -18.0340   14.8710 C.3   372  ARG372      0.0489
     86  CD        39.9370  -17.5190   14.7260 C.3   372  ARG372      0.2205
     87  NE        39.8460  -16.1880   15.3130 N.pl3 372  ARG372     -0.0865
     88  CZ        38.7300  -15.6280   15.7530 C.cat 372  ARG372      0.5346
     89  NH1       37.5560  -16.2500   15.6500 N.pl3 372  ARG372      0.1354
     90  NH2       38.7990  -14.4110   16.2530 N.pl3 372  ARG372      0.1354
@<TRIPOS>BOND
     1    42    41    2
     2    41    40    1
     3    40    43    1
     4    40    39    1
     5    43    44    1
     6    39    31   am
     7    29    30    1
     8    31    32    2
     9    31    30    1
    10    21    22    1
    11    44    45    1
    12    30    33    1
    13    45    46    1
    14     1     2    1
    15     2     5    1
    16     2     3    1
    17    22    23    1
    18    22    25    1
    19    23    24    2
    20    25    26    1
    21     4     3    2
    22     3     6   am
    23    33    34    1
    24    46    47    1
    25    34    36   ar
    26    34    35   ar
    27    27    26    2
    28    36    38   ar
    29    26    28   am
    30    86    85    1
    31    86    87    1
    32     6     7    1
    33    35    37   ar
    34    85    84    1
    35    11    12    1
    36    38    37   ar
    37    15    12    1
    38    15    16    1
    39    87    88    2
    40     8     9    2
    41     8     7    1
    42    89    88    1
    43    88    90    1
    44     7    10    1
    45    12    13    1
    46    82    81    1
    47    82    83    2
    48    16    18   ar
    49    16    17   ar
    50    14    13    2
    51    18    20   ar
    52    84    81    1
    53    81    80    1
    54    17    19   ar
    55    20    19   ar
    56    67    66    2
    57    68    69    1
    58    68    65    1
    59    69    71   ar
    60    69    70   ar
    61    77    76    2
    62    71    73   ar
    63    70    72   ar
    64    73    72   ar
    65    66    65    1
    66    66    74   am
    67    76    75    1
    68    48    49    1
    69    78    75    1
    70    78    79    1
    71    55    54    1
    72    55    56    2
    73    65    64    1
    74    53    54    1
    75    53    52    1
    76    51    50    2
    77    58    56    1
    78    56    57    1
    79    75    74    1
    80    52    49    1
    81    49    50    1
    82    50    59   am
    83    62    61    2
    84    59    60    1
    85    60    61    1
    86    60    63    1
