@<TRIPOS>MOLECULE
tmp/5ft4B03.pdb
 69 68 0 0 0
SMALL
GASTEIGER

@<TRIPOS>ATOM
      1  N          0.1690   29.7630    5.9680 N.3   335  VAL335     -0.1231
      2  CA         1.5000   29.6180    5.3820 C.3   335  VAL335      0.1692
      3  C          1.9330   28.1770    5.5160 C.2   335  VAL335      0.2592
      4  O          1.8310   27.6130    6.6120 O.2   335  VAL335     -0.2718
      5  CB         2.5410   30.5200    6.0850 C.3   335  VAL335      0.0266
      6  CG1        3.8900   30.4060    5.4070 C.3   335  VAL335      0.0020
      7  CG2        2.0900   31.9500    6.0840 C.3   335  VAL335      0.0020
      8  N          2.4330   27.5790    4.4340 N.am  336  HIS336     -0.1962
      9  CA         2.9120   26.1990    4.5040 C.3   336  HIS336      0.1787
     10  C          4.2070   26.1400    5.3240 C.2   336  HIS336      0.2620
     11  O          5.1140   26.9550    5.1410 O.2   336  HIS336     -0.2715
     12  CB         3.1220   25.6450    3.0860 C.3   336  HIS336      0.0785
     13  CG         1.8540   25.4820    2.3120 C.ar  336  HIS336      0.0821
     14  ND1        0.9670   24.4540    2.5470 N.ar  336  HIS336     -0.2267
     15  CD2        1.3090   26.2320    1.3250 C.ar  336  HIS336      0.1154
     16  CE1       -0.0650   24.5690    1.7270 C.ar  336  HIS336      0.1986
     17  NE2        0.1150   25.6430    0.9820 N.ar  336  HIS336     -0.2212
     18  N          4.2610   25.1950    6.2540 N.am  337  HIS337     -0.1959
     19  CA         5.4010   25.0530    7.1610 C.3   337  HIS337      0.1787
     20  C          6.6720   24.7820    6.3730 C.2   337  HIS337      0.2620
     21  O          7.7270   25.3390    6.6590 O.2   337  HIS337     -0.2715
     22  CB         5.1720   23.9120    8.1710 C.3   337  HIS337      0.0785
     23  CG         4.0150   24.1420    9.0860 C.ar  337  HIS337      0.0821
     24  ND1        3.3630   23.1180    9.7300 N.ar  337  HIS337     -0.2267
     25  CD2        3.3990   25.2850    9.4720 C.ar  337  HIS337      0.1154
     26  CE1        2.3800   23.6170   10.4600 C.ar  337  HIS337      0.1986
     27  NE2        2.3830   24.9300   10.3230 N.ar  337  HIS337     -0.2212
     28  N          6.5640   23.9170    5.3790 N.am  338  SER338     -0.1950
     29  CA         7.7200   23.5160    4.5840 C.3   338  SER338      0.1924
     30  C          8.2890   24.6760    3.7690 C.2   338  SER338      0.2314
     31  O          9.5010   24.7590    3.5880 O.2   338  SER338     -0.2863
     32  CB         7.3420   22.3740    3.6480 C.3   338  SER338      0.2116
     33  OG         6.3000   22.7930    2.8030 O.3   338  SER338     -0.2180
     34  N          9.8310   21.1350   10.3410 N.3   353  ALA353     -0.1231
     35  CA         8.3630   21.1400   10.4370 C.3   353  ALA353      0.1694
     36  C          7.9410   19.6770   10.5760 C.2   353  ALA353      0.2593
     37  O          8.6940   18.8750   11.1310 O.2   353  ALA353     -0.2718
     38  CB         7.7460   21.7970    9.2160 C.3   353  ALA353      0.0304
     39  N          6.7720   19.3060   10.0840 N.am  354  GLY354     -0.1942
     40  CA         6.3700   17.9200   10.1520 C.3   354  GLY354      0.2014
     41  C          5.6000   17.5190   11.3870 C.2   354  GLY354      0.2638
     42  O          5.1540   18.3500   12.1750 O.2   354  GLY354     -0.2714
     43  N          5.4740   16.2020   11.5550 N.am  355  GLN355     -0.1977
     44  CA         4.6340   15.6150   12.5930 C.3   355  GLN355      0.1601
     45  C          5.3930   15.1910   13.8610 C.2   355  GLN355      0.2287
     46  O          4.7620   14.9230   14.8690 O.2   355  GLN355     -0.2864
     47  CB         3.8980   14.4120   12.0020 C.3   355  GLN355      0.0394
     48  CG         2.9820   14.7670   10.8170 C.3   355  GLN355      0.0908
     49  CD         2.1590   13.5910   10.3020 C.2   355  GLN355      0.2608
     50  OE1        2.7040   12.5710    9.8860 O.2   355  GLN355     -0.2717
     51  NE2        0.8390   13.7330   10.3320 N.am  355  GLN355     -0.0878
     52  N         -2.0310   19.4120   11.7020 N.3   368  THR368     -0.1203
     53  CA        -1.4460   18.2980   10.9450 C.3   368  THR368      0.1994
     54  C          0.0760   18.2700   11.0800 C.2   368  THR368      0.2618
     55  O          0.7330   17.3190   10.6760 O.2   368  THR368     -0.2717
     56  CB        -1.8140   18.3640    9.4640 C.3   368  THR368      0.1784
     57  OG1       -1.3000   19.5720    8.8910 O.3   368  THR368     -0.2211
     58  CG2       -3.3160   18.3400    9.2980 C.3   368  THR368      0.0376
     59  N          0.6400   19.3410   11.6170 N.am  369  GLY369     -0.1942
     60  CA         2.0820   19.4180   11.8090 C.3   369  GLY369      0.2014
     61  C          2.4550   20.7190   12.4720 C.2   369  GLY369      0.2639
     62  O          1.5910   21.5670   12.7080 O.2   369  GLY369     -0.2714
     63  N          3.7290   20.8860   12.8050 N.am  370  THR370     -0.1950
     64  CA         4.1680   22.1690   13.3510 C.3   370  THR370      0.1897
     65  C          5.5850   22.4770   12.9620 C.2   370  THR370      0.2313
     66  O          6.3970   21.5770   12.7770 O.2   370  THR370     -0.2863
     67  CB         4.1090   22.2440   14.9200 C.3   370  THR370      0.1794
     68  OG1        5.3500   21.8010   15.4870 O.3   370  THR370     -0.2208
     69  CG2        2.9650   21.4350   15.5100 C.3   370  THR370      0.0378
@<TRIPOS>BOND
     1    17    15   ar
     2    17    16   ar
     3    15    13   ar
     4    16    14   ar
     5    13    14   ar
     6    13    12    1
     7    33    32    1
     8    12     9    1
     9    31    30    2
    10    32    29    1
    11    30    29    1
    12     8     9    1
    13     8     3   am
    14     9    10    1
    15    29    28    1
    16    11    10    2
    17    10    18   am
    18    28    20   am
    19     2     3    1
    20     2     1    1
    21     2     5    1
    22     6     5    1
    23     3     4    2
    24     7     5    1
    25    18    19    1
    26    20    21    2
    27    20    19    1
    28    19    22    1
    29    22    23    1
    30    57    56    1
    31    23    25   ar
    32    23    24   ar
    33    38    35    1
    34    58    56    1
    35    56    53    1
    36    25    27   ar
    37    24    26   ar
    38    50    49    2
    39    39    40    1
    40    39    36   am
    41    40    41    1
    42    49    51   am
    43    49    48    1
    44    27    26   ar
    45    34    35    1
    46    35    36    1
    47    36    37    2
    48    55    54    2
    49    48    47    1
    50    53    54    1
    51    53    52    1
    52    54    59   am
    53    41    43   am
    54    41    42    2
    55    43    44    1
    56    59    60    1
    57    60    61    1
    58    47    44    1
    59    61    62    2
    60    61    63   am
    61    44    45    1
    62    66    65    2
    63    63    64    1
    64    65    64    1
    65    64    67    1
    66    45    46    2
    67    67    68    1
    68    67    69    1
