@<TRIPOS>MOLECULE
tmp/5ft6A00.pdb
 117 110 0 0 0
SMALL
GASTEIGER

@<TRIPOS>ATOM
      1  N        -20.1350    6.8490  -11.8600 N.3    88  ARG88      -0.1231
      2  CA       -19.3960    7.5520  -12.8990 C.3    88  ARG88       0.1694
      3  C        -19.9140    8.9820  -13.0270 C.2    88  ARG88       0.2593
      4  O        -19.2500    9.8340  -13.6150 O.2    88  ARG88      -0.2718
      5  CB       -19.5780    6.9170  -14.2730 C.3    88  ARG88       0.0321
      6  CG       -19.5580    5.4060  -14.4090 C.3    88  ARG88       0.0489
      7  CD       -20.0500    5.0780  -15.8190 C.3    88  ARG88       0.2205
      8  NE       -20.2970    6.3150  -16.5640 N.pl3  88  ARG88      -0.0865
      9  CZ       -21.1850    6.4640  -17.5450 C.cat  88  ARG88       0.5346
     10  NH1      -21.9340    5.4510  -17.9670 N.pl3  88  ARG88       0.1354
     11  NH2      -21.3070    7.6530  -18.1180 N.pl3  88  ARG88       0.1354
     12  N        -21.1270    9.2240  -12.5320 N.am   89  GLY89      -0.1942
     13  CA       -21.7720   10.5080  -12.6940 C.3    89  GLY89       0.2014
     14  C        -23.2730   10.3650  -12.5520 C.2    89  GLY89       0.2640
     15  O        -23.7780    9.2780  -12.2840 O.2    89  GLY89      -0.2714
     16  N        -23.9850   11.4670  -12.7530 N.am   90  THR90      -0.1936
     17  CA       -25.4350   11.4960  -12.5990 C.3    90  THR90       0.2028
     18  C        -26.1100   10.3790  -13.3900 C.2    90  THR90       0.2642
     19  O        -27.0400    9.7380  -12.9040 O.2    90  THR90      -0.2714
     20  CB       -26.0140   12.8440  -13.0640 C.3    90  THR90       0.1808
     21  OG1      -25.4900   13.9010  -12.2490 O.3    90  THR90      -0.2208
     22  CG2      -27.5330   12.8410  -12.9640 C.3    90  THR90       0.0379
     23  N        -25.6380   10.1470  -14.6090 N.am   91  THR91      -0.1950
     24  CA       -26.2560    9.1610  -15.4850 C.3    91  THR91       0.1897
     25  C        -26.2550    7.7630  -14.8630 C.2    91  THR91       0.2313
     26  O        -27.2900    7.0970  -14.8410 O.2    91  THR91      -0.2863
     27  CB       -25.5760    9.1240  -16.8660 C.3    91  THR91       0.1794
     28  OG1      -25.7620   10.3850  -17.5250 O.3    91  THR91      -0.2208
     29  CG2      -26.1740    8.0220  -17.7320 C.3    91  THR91       0.0378
     30  N        -33.6170   16.0400  -18.3920 N.3   119  HIS119     -0.1241
     31  CA       -32.4450   15.6820  -19.1630 C.3   119  HIS119      0.1621
     32  C        -32.5750   14.1840  -19.4850 C.2   119  HIS119      0.2264
     33  O        -33.1960   13.4350  -18.7310 O.2   119  HIS119     -0.2867
     34  CB       -31.2100   16.0000  -18.3140 C.3   119  HIS119      0.0745
     35  CG       -29.9070   15.7010  -18.9800 C.ar  119  HIS119      0.0817
     36  ND1      -29.4190   14.4200  -19.0960 N.ar  119  HIS119     -0.2268
     37  CD2      -28.9710   16.5110  -19.5260 C.ar  119  HIS119      0.1154
     38  CE1      -28.2480   14.4490  -19.7040 C.ar  119  HIS119      0.1986
     39  NE2      -27.9520   15.7070  -19.9770 N.ar  119  HIS119     -0.2212
     40  N        -30.6380   11.5730  -19.3030 N.3   121  ALA121     -0.1245
     41  CA       -30.2510   10.7980  -18.1200 C.3   121  ALA121      0.1562
     42  C        -31.4090   10.4470  -17.1750 C.2   121  ALA121      0.2260
     43  O        -31.3890    9.3880  -16.5460 O.2   121  ALA121     -0.2867
     44  CB       -29.1600   11.5300  -17.3480 C.3   121  ALA121      0.0290
     45  N        -36.3570   16.6570  -12.2250 N.3   167  GLY167     -0.1225
     46  CA       -35.1120   17.3910  -12.1120 C.3   167  GLY167      0.1811
     47  C        -35.2550   18.5710  -11.1760 C.2   167  GLY167      0.2280
     48  O        -36.2000   19.3520  -11.2870 O.2   167  GLY167     -0.2866
     49  N        -33.3760   21.0670  -11.1460 N.3   169  MET169     -0.1230
     50  CA       -33.0700   22.2420  -11.9450 C.3   169  MET169      0.1702
     51  C        -32.7590   21.8310  -13.3790 C.2   169  MET169      0.2593
     52  O        -31.9620   20.9220  -13.6120 O.2   169  MET169     -0.2718
     53  CB       -31.8740   22.9720  -11.3390 C.3   169  MET169      0.0401
     54  CG       -31.4310   24.1920  -12.1150 C.3   169  MET169      0.0596
     55  SD       -30.0370   25.0110  -11.3250 S.3   169  MET169     -0.1393
     56  CE       -29.4930   26.0730  -12.6600 C.3   169  MET169      0.0692
     57  N        -33.3940   22.5010  -14.3360 N.am  170  SER170     -0.1938
     58  CA       -33.2000   22.1970  -15.7500 C.3   170  SER170      0.2055
     59  C        -31.8810   22.7530  -16.2750 C.2   170  SER170      0.2643
     60  O        -31.4860   23.8650  -15.9310 O.2   170  SER170     -0.2714
     61  CB       -34.3520   22.7720  -16.5750 C.3   170  SER170      0.2130
     62  OG       -34.0600   22.7220  -17.9610 O.3   170  SER170     -0.2179
     63  N        -31.2120   21.9770  -17.1240 N.am  171  ASN171     -0.1971
     64  CA       -29.9580   22.4070  -17.7340 C.3   171  ASN171      0.1688
     65  C        -30.1820   23.3050  -18.9500 C.2   171  ASN171      0.2292
     66  O        -29.2250   23.7090  -19.6160 O.2   171  ASN171     -0.2864
     67  CB       -29.1150   21.1940  -18.1360 C.3   171  ASN171      0.1181
     68  CG       -29.8020   20.3160  -19.1680 C.2   171  ASN171      0.2629
     69  OD1      -30.9960   20.0320  -19.0680 O.2   171  ASN171     -0.2716
     70  ND2      -29.0470   19.8880  -20.1720 N.am  171  ASN171     -0.0877
     71  N        -33.0270   14.5060  -10.0790 N.3   196  ASP196     -0.1239
     72  CA       -31.8410   14.7910  -10.8710 C.3   196  ASP196      0.1674
     73  C        -31.2700   16.1380  -10.4410 C.2   196  ASP196      0.2266
     74  O        -31.8400   17.1870  -10.7430 O.2   196  ASP196     -0.2867
     75  CB       -32.2040   14.8150  -12.3570 C.3   196  ASP196      0.1410
     76  CG       -31.0060   15.0800  -13.2510 C.2   196  ASP196      0.3668
     77  OD1      -29.9380   15.4720  -12.7340 O.co2 196  ASP196     -0.2456
     78  OD2      -31.1420   14.9030  -14.4790 O.co2 196  ASP196     -0.2456
     79  N        -28.0070   17.2850  -11.0990 N.3   198  ALA198     -0.1231
     80  CA       -26.7500   17.5730  -11.7860 C.3   198  ALA198      0.1694
     81  C        -26.4910   19.0800  -11.8520 C.2   198  ALA198      0.2591
     82  O        -25.3490   19.5270  -11.7260 O.2   198  ALA198     -0.2718
     83  CB       -26.7580   16.9700  -13.1760 C.3   198  ALA198      0.0304
     84  N        -27.5490   19.8620  -12.0450 N.am  199  GLN199     -0.1979
     85  CA       -27.4280   21.3150  -12.0310 C.3   199  GLN199      0.1601
     86  C        -27.6810   21.8600  -10.6260 C.2   199  GLN199      0.2287
     87  O        -26.9410   22.7130  -10.1390 O.2   199  GLN199     -0.2864
     88  CB       -28.4040   21.9540  -13.0250 C.3   199  GLN199      0.0394
     89  CG       -28.1130   21.6310  -14.4890 C.3   199  GLN199      0.0908
     90  CD       -26.7990   22.2200  -14.9810 C.2   199  GLN199      0.2608
     91  OE1      -26.3460   23.2560  -14.4960 O.2   199  GLN199     -0.2717
     92  NE2      -26.1790   21.5530  -15.9490 N.am  199  GLN199     -0.0878
     93  N        -23.1470   15.1860  -10.6280 N.3   219  SER219     -0.1217
     94  CA       -21.8630   14.8630  -11.2420 C.3   219  SER219      0.1889
     95  C        -20.7590   15.8040  -10.7700 C.2   219  SER219      0.2288
     96  O        -20.9860   16.9980  -10.5580 O.2   219  SER219     -0.2866
     97  CB       -21.9650   14.9550  -12.7650 C.3   219  SER219      0.2089
     98  OG       -22.8610   13.9960  -13.2880 O.3   219  SER219     -0.2183
     99  N        -17.9770   16.8240  -12.4110 N.3   221  HIS221     -0.1226
    100  CA       -17.3120   17.6930  -13.3830 C.3   221  HIS221      0.1752
    101  C        -17.9530   19.0750  -13.5240 C.2   221  HIS221      0.2595
    102  O        -17.2780   20.0400  -13.8870 O.2   221  HIS221     -0.2718
    103  CB       -17.1800   17.0060  -14.7510 C.3   221  HIS221      0.0759
    104  CG       -18.4680   16.8780  -15.5050 C.ar  221  HIS221      0.0818
    105  ND1      -19.2980   15.7860  -15.3820 N.ar  221  HIS221     -0.2268
    106  CD2      -19.0510   17.6940  -16.4140 C.ar  221  HIS221      0.1154
    107  CE1      -20.3460   15.9430  -16.1720 C.ar  221  HIS221      0.1986
    108  NE2      -20.2210   17.0920  -16.8080 N.ar  221  HIS221     -0.2212
    109  N        -19.2410   19.1940  -13.2270 N.am  222  LYS222     -0.1980
    110  CA       -20.2190   20.2730  -13.1310 C.3   222  LYS222      0.1596
    111  C        -20.0300   21.0090  -11.7980 C.2   222  LYS222      0.2287
    112  O        -20.2580   22.2150  -11.7030 O.2   222  LYS222     -0.2864
    113  CB       -21.6470   19.7410  -13.3220 C.3   222  LYS222      0.0298
    114  CG       -22.1020   19.7340  -14.7970 C.3   222  LYS222      0.0038
    115  CD       -23.0030   18.5410  -15.1690 C.3   222  LYS222      0.0206
    116  CE       -24.3960   18.9790  -15.6320 C.3   222  LYS222      0.1093
    117  NZ       -24.8670   18.3960  -16.9440 N.3   222  LYS222     -0.1314
@<TRIPOS>BOND
     1    70    68   am
     2    39    38   ar
     3    39    37   ar
     4    38    36   ar
     5    66    65    2
     6    37    35   ar
     7    32    31    1
     8    32    33    2
     9    40    41    1
    10    68    69    2
    11    68    67    1
    12    31    30    1
    13    31    34    1
    14    36    35   ar
    15    35    34    1
    16    65    64    1
    17    67    64    1
    18    41    44    1
    19    41    42    1
    20    11     9    1
    21    10     9    1
    22    62    61    1
    23    64    63    1
    24    29    27    1
    25     9     8    2
    26    28    27    1
    27    42    43    2
    28    63    59   am
    29   117   116    1
    30    27    24    1
    31   108   106   ar
    32   108   107   ar
    33    61    58    1
    34     8     7    1
    35   106   104   ar
    36    59    60    2
    37    59    58    1
    38   107   105   ar
    39    92    90   am
    40     7     6    1
    41    58    57    1
    42   116   115    1
    43   104   105   ar
    44   104   103    1
    45    24    25    1
    46    24    23    1
    47   115   114    1
    48    90    91    2
    49    90    89    1
    50    25    26    2
    51   114   113    1
    52   103   100    1
    53    23    18   am
    54    89    88    1
    55    78    76   ar
    56     6     5    1
    57    57    51   am
    58     5     2    1
    59   102   101    2
    60     4     3    2
    61    52    51    2
    62   101   100    1
    63   101   109   am
    64    18    19    2
    65    18    17    1
    66   100    99    1
    67    51    50    1
    68   113   110    1
    69    98    97    1
    70    76    77   ar
    71    76    75    1
    72   109   110    1
    73    83    80    1
    74   110   111    1
    75    20    22    1
    76    20    17    1
    77    20    21    1
    78     3     2    1
    79     3    12   am
    80    88    85    1
    81     2     1    1
    82    97    94    1
    83    16    17    1
    84    16    14   am
    85    13    14    1
    86    13    12    1
    87    56    55    1
    88    14    15    2
    89    75    72    1
    90    45    46    1
    91    54    53    1
    92    54    55    1
    93    46    47    1
    94    84    85    1
    95    84    81   am
    96    85    86    1
    97    50    53    1
    98    50    49    1
    99    81    80    1
   100    81    82    2
   101   111   112    2
   102    80    79    1
   103    48    47    2
   104    94    95    1
   105    94    93    1
   106    72    73    1
   107    72    71    1
   108    95    96    2
   109    74    73    2
   110    86    87    2
