@<TRIPOS>MOLECULE
tmp/5ftbA00.pdb
 127 120 0 0 0
SMALL
GASTEIGER

@<TRIPOS>ATOM
      1  N        -27.2740  -14.8640  -27.3870 N.3     1  ASP1       -0.1225
      2  CA       -26.0690  -14.1990  -26.9080 C.3     1  ASP1        0.1805
      3  C        -26.2020  -13.8070  -25.4400 C.2     1  ASP1        0.2598
      4  O        -25.2560  -13.9380  -24.6670 O.2     1  ASP1       -0.2718
      5  CB       -25.7820  -12.9420  -27.7410 C.3     1  ASP1        0.1424
      6  CG       -24.8910  -13.2150  -28.9420 C.2     1  ASP1        0.3668
      7  OD1      -24.3210  -14.3220  -29.0410 O.co2   1  ASP1       -0.2456
      8  OD2      -24.7490  -12.3060  -29.7860 O.co2   1  ASP1       -0.2456
      9  N        -27.3780  -13.3160  -25.0690 N.am    2  MET2       -0.1965
     10  CA       -27.5990  -12.8010  -23.7280 C.3     2  MET2        0.1736
     11  C        -27.5830  -13.9030  -22.6650 C.2     2  MET2        0.2616
     12  O        -28.1770  -14.9600  -22.8250 O.2     2  MET2       -0.2715
     13  CB       -28.9290  -12.0370  -23.6660 C.3     2  MET2        0.0427
     14  CG       -29.1510  -11.3090  -22.3520 C.3     2  MET2        0.0599
     15  SD       -30.6710  -10.3410  -22.2930 S.3     2  MET2       -0.1393
     16  CE       -30.5440   -9.6920  -20.6230 C.3     2  MET2        0.0692
     17  N        -26.8740  -13.6300  -21.5800 N.am    3  ILE3       -0.1977
     18  CA       -26.8930  -14.4550  -20.3840 C.3     3  ILE3        0.1596
     19  C        -27.8080  -13.7860  -19.3690 C.2     3  ILE3        0.2287
     20  O        -27.7490  -12.5700  -19.1850 O.2     3  ILE3       -0.2864
     21  CB       -25.4850  -14.5510  -19.7910 C.3     3  ILE3        0.0276
     22  CG1      -24.5690  -15.3030  -20.7610 C.3     3  ILE3        0.0022
     23  CG2      -25.4930  -15.2310  -18.4230 C.3     3  ILE3        0.0022
     24  CD1      -23.1080  -14.9760  -20.5700 C.3     3  ILE3        0.0001
     25  N        -29.9390  -10.9000  -12.4480 N.3     8  MET8       -0.1245
     26  CA       -31.0000  -10.5410  -13.3900 C.3     8  MET8        0.1570
     27  C        -32.2690  -11.3400  -13.1080 C.2     8  MET8        0.2261
     28  O        -33.3760  -10.8020  -13.1540 O.2     8  MET8       -0.2867
     29  CB       -30.5280  -10.7590  -14.8230 C.3     8  MET8        0.0387
     30  CG       -29.4080   -9.8150  -15.2100 C.3     8  MET8        0.0595
     31  SD       -28.6580  -10.2820  -16.7680 S.3     8  MET8       -0.1393
     32  CE       -27.1250   -9.3610  -16.6960 C.3     8  MET8        0.0692
     33  N        -19.7510   -0.6260  -13.7530 N.3    28  ALA28      -0.1231
     34  CA       -19.6020   -0.2370  -15.1500 C.3    28  ALA28       0.1694
     35  C        -19.5290   -1.4800  -16.0420 C.2    28  ALA28       0.2593
     36  O        -18.8020   -2.4290  -15.7450 O.2    28  ALA28      -0.2718
     37  CB       -18.3770    0.6450  -15.3490 C.3    28  ALA28       0.0304
     38  N        -20.3020   -1.4860  -17.1260 N.am   29  GLY29      -0.1942
     39  CA       -20.2330   -2.5660  -18.1050 C.3    29  GLY29       0.2014
     40  C        -20.7920   -3.8990  -17.6380 C.2    29  GLY29       0.2640
     41  O        -20.3120   -4.9480  -18.0880 O.2    29  GLY29      -0.2714
     42  N        -21.7980   -3.8500  -16.7680 N.am   30  SER30      -0.1935
     43  CA       -22.4160   -5.0430  -16.1790 C.3    30  SER30       0.2055
     44  C        -23.7700   -5.3860  -16.8010 C.2    30  SER30       0.2644
     45  O        -24.4550   -6.3040  -16.3470 O.2    30  SER30      -0.2714
     46  CB       -22.5750   -4.8480  -14.6710 C.3    30  SER30       0.2130
     47  OG       -23.3900   -3.7230  -14.4070 O.3    30  SER30      -0.2179
     48  N        -24.1640   -4.6640  -17.8440 N.am   31  GLY31      -0.1939
     49  CA       -25.3850   -4.9950  -18.5570 C.3    31  GLY31       0.2014
     50  C        -26.6370   -4.2580  -18.1200 C.2    31  GLY31       0.2639
     51  O        -27.7350   -4.7290  -18.3980 O.2    31  GLY31      -0.2714
     52  N        -26.5030   -3.1100  -17.4670 N.am   32  LYS32      -0.1963
     53  CA       -27.6790   -2.3250  -17.0790 C.3    32  LYS32       0.1728
     54  C        -28.5620   -1.9540  -18.2670 C.2    32  LYS32       0.2617
     55  O        -29.7700   -2.1620  -18.2340 O.2    32  LYS32      -0.2715
     56  CB       -27.2600   -1.0380  -16.3600 C.3    32  LYS32       0.0311
     57  CG       -26.5150   -1.2500  -15.0380 C.3    32  LYS32       0.0038
     58  CD       -26.0430    0.0740  -14.4360 C.3    32  LYS32       0.0206
     59  CE       -24.9350    0.7530  -15.2440 C.3    32  LYS32       0.1093
     60  NZ       -23.6410    0.0520  -15.1660 N.3    32  LYS32      -0.1314
     61  N        -27.9650   -1.3930  -19.3140 N.am   33  THR33      -0.1937
     62  CA       -28.7260   -0.9490  -20.4830 C.3    33  THR33       0.2028
     63  C        -29.3280   -2.1310  -21.2340 C.2    33  THR33       0.2642
     64  O        -30.4800   -2.0800  -21.6680 O.2    33  THR33      -0.2714
     65  CB       -27.8380   -0.1020  -21.4170 C.3    33  THR33       0.1808
     66  OG1      -27.4950    1.1150  -20.7460 O.3    33  THR33      -0.2208
     67  CG2      -28.5560    0.2410  -22.7090 C.3    33  THR33       0.0379
     68  N        -28.5520   -3.1950  -21.3810 N.am   34  THR34      -0.1950
     69  CA       -29.0200   -4.3790  -22.0760 C.3    34  THR34       0.1897
     70  C        -30.1790   -5.0110  -21.3140 C.2    34  THR34       0.2313
     71  O        -31.1730   -5.4250  -21.9100 O.2    34  THR34      -0.2863
     72  CB       -27.8690   -5.3670  -22.2460 C.3    34  THR34       0.1794
     73  OG1      -26.8470   -4.7450  -23.0340 O.3    34  THR34      -0.2208
     74  CG2      -28.3220   -6.6360  -22.9530 C.3    34  THR34       0.0378
     75  N        -21.5890    6.7950  -11.5860 N.3   143  GLN143     -0.1245
     76  CA       -21.1490    7.2400  -12.9150 C.3   143  GLN143      0.1566
     77  C        -21.8910    8.4740  -13.4100 C.2   143  GLN143      0.2260
     78  O        -21.2820    9.3580  -14.0130 O.2   143  GLN143     -0.2867
     79  CB       -21.3630    6.1350  -13.9500 C.3   143  GLN143      0.0367
     80  CG       -20.4480    4.9450  -13.8100 C.3   143  GLN143      0.0905
     81  CD       -20.4910    4.0600  -15.0320 C.2   143  GLN143      0.2608
     82  OE1      -19.8400    4.3440  -16.0330 O.2   143  GLN143     -0.2717
     83  NE2      -21.2750    2.9940  -14.9630 N.am  143  GLN143     -0.0878
     84  N        -18.9920   -7.4700  -17.9510 N.3   185  PHE185     -0.1227
     85  CA       -18.8060   -7.9900  -19.3000 C.3   185  PHE185      0.1736
     86  C        -17.7450   -7.2100  -20.0670 C.2   185  PHE185      0.2595
     87  O        -17.0260   -7.7810  -20.8800 O.2   185  PHE185     -0.2718
     88  CB       -20.1180   -7.9300  -20.0830 C.3   185  PHE185      0.0547
     89  CG       -21.2120   -8.7820  -19.5010 C.ar  185  PHE185     -0.0202
     90  CD1      -21.1950  -10.1560  -19.6610 C.ar  185  PHE185     -0.0042
     91  CD2      -22.2560   -8.2090  -18.7990 C.ar  185  PHE185     -0.0042
     92  CE1      -22.1960  -10.9450  -19.1290 C.ar  185  PHE185     -0.0003
     93  CE2      -23.2590   -8.9880  -18.2620 C.ar  185  PHE185     -0.0003
     94  CZ       -23.2290  -10.3640  -18.4300 C.ar  185  PHE185     -0.0000
     95  N        -17.6450   -5.9050  -19.8300 N.am  186  ARG186     -0.1980
     96  CA       -16.7790   -5.0700  -20.6630 C.3   186  ARG186      0.1597
     97  C        -15.3100   -5.4060  -20.4560 C.2   186  ARG186      0.2287
     98  O        -14.5730   -5.6000  -21.4260 O.2   186  ARG186     -0.2864
     99  CB       -17.0040   -3.5830  -20.3990 C.3   186  ARG186      0.0334
    100  CG       -16.1690   -2.7120  -21.3160 C.3   186  ARG186      0.0492
    101  CD       -16.4410   -1.2380  -21.1190 C.3   186  ARG186      0.2205
    102  NE       -17.8120   -0.8920  -21.4900 N.pl3 186  ARG186     -0.0865
    103  CZ       -18.6750   -0.2180  -20.7330 C.cat 186  ARG186      0.5346
    104  NH1      -18.3290    0.2380  -19.5290 N.pl3 186  ARG186      0.1354
    105  NH2      -19.9000    0.0110  -21.1980 N.pl3 186  ARG186      0.1354
    106  N        -21.7000    5.1250  -21.0600 N.3   363  GLY363     -0.1225
    107  CA       -22.3560    3.9330  -21.5590 C.3   363  GLY363      0.1811
    108  C        -21.6760    3.2670  -22.7470 C.2   363  GLY363      0.2280
    109  O        -22.1200    2.2050  -23.1670 O.2   363  GLY363     -0.2866
    110  N        -18.3170    1.6710  -25.0670 N.3   365  THR365     -0.1218
    111  CA       -17.1220    0.8330  -24.9700 C.3   365  THR365      0.1862
    112  C        -16.1100    1.2200  -26.0380 C.2   365  THR365      0.2287
    113  O        -16.4790    1.3890  -27.1960 O.2   365  THR365     -0.2866
    114  CB       -17.4760   -0.6430  -25.1960 C.3   365  THR365      0.1770
    115  OG1      -18.4750   -1.0450  -24.2570 O.3   365  THR365     -0.2211
    116  CG2      -16.2530   -1.5340  -25.0370 C.3   365  THR365      0.0375
    117  N        -14.4300    2.9280  -19.6440 N.3   388  ARG388     -0.1245
    118  CA       -14.8220    2.8010  -21.0460 C.3   388  ARG388      0.1563
    119  C        -14.0150    1.7260  -21.7690 C.2   388  ARG388      0.2260
    120  O        -14.4710    1.1780  -22.7630 O.2   388  ARG388     -0.2867
    121  CB       -14.6260    4.1140  -21.8150 C.3   388  ARG388      0.0307
    122  CG       -15.3960    5.3280  -21.3050 C.3   388  ARG388      0.0489
    123  CD       -16.8750    5.0420  -21.0810 C.3   388  ARG388      0.2205
    124  NE       -17.1330    4.4260  -19.7790 N.pl3 388  ARG388     -0.0865
    125  CZ       -18.2140    3.7180  -19.4780 C.cat 388  ARG388      0.5346
    126  NH1      -19.1250    3.4410  -20.3970 N.pl3 388  ARG388      0.1354
    127  NH2      -18.3690    3.2530  -18.2490 N.pl3 388  ARG388      0.1354
@<TRIPOS>BOND
     1     8     6   ar
     2     7     6   ar
     3     6     5    1
     4     5     2    1
     5     1     2    1
     6   113   112    2
     7     2     3    1
     8   112   111    1
     9     3     9   am
    10     3     4    2
    11   114   116    1
    12   114   111    1
    13   114   115    1
    14     9    10    1
    15   110   111    1
    16    10    13    1
    17    10    11    1
    18    13    14    1
    19   109   108    2
    20    73    72    1
    21    74    72    1
    22    12    11    2
    23   120   119    2
    24   108   107    1
    25    67    65    1
    26    11    17   am
    27    14    15    1
    28    15    16    1
    29    72    69    1
    30    69    68    1
    31    69    70    1
    32    71    70    2
    33   121   122    1
    34   121   118    1
    35   119   118    1
    36    64    63    2
    37    17    18    1
    38   107   106    1
    39   102   101    1
    40   102   103    2
    41    98    97    2
    42    65    66    1
    43    65    62    1
    44    68    63   am
    45   100   101    1
    46   100    99    1
    47   122   123    1
    48    63    62    1
    49   105   103    1
    50   123   124    1
    51   118   117    1
    52    87    86    2
    53    22    24    1
    54    22    21    1
    55   103   104    1
    56    96    97    1
    57    96    99    1
    58    96    95    1
    59    62    61    1
    60   126   125    1
    61    18    21    1
    62    18    19    1
    63    88    89    1
    64    88    85    1
    65    86    95   am
    66    86    85    1
    67    21    23    1
    68   124   125    2
    69    90    89   ar
    70    90    92   ar
    71    89    91   ar
    72   125   127    1
    73    19    20    2
    74    61    54   am
    75    85    84    1
    76    92    94   ar
    77    91    93   ar
    78    49    50    1
    79    49    48    1
    80    94    93   ar
    81    51    50    2
    82    54    55    2
    83    54    53    1
    84    50    52   am
    85    39    40    1
    86    39    38    1
    87    41    40    2
    88    48    44   am
    89    40    42   am
    90    52    53    1
    91    38    35   am
    92    53    56    1
    93    44    45    2
    94    44    43    1
    95    31    32    1
    96    31    30    1
    97    42    43    1
    98    56    57    1
    99    43    46    1
   100    35    36    2
   101    35    34    1
   102    82    81    2
   103    37    34    1
   104    59    60    1
   105    59    58    1
   106    30    29    1
   107    34    33    1
   108    57    58    1
   109    81    83   am
   110    81    80    1
   111    29    26    1
   112    46    47    1
   113    78    77    2
   114    79    80    1
   115    79    76    1
   116    77    76    1
   117    26    27    1
   118    26    25    1
   119    28    27    2
   120    76    75    1
