@<TRIPOS>MOLECULE
tmp/5ftcA00.pdb
 148 143 0 0 0
SMALL
GASTEIGER

@<TRIPOS>ATOM
      1  N        -33.4850    8.3250   30.9450 N.3     1  MET1       -0.1245
      2  CA       -32.3920    9.2280   30.5820 C.3     1  MET1        0.1570
      3  C        -32.9230   10.6170   30.2760 C.2     1  MET1        0.2261
      4  O        -33.9280   10.7750   29.5770 O.2     1  MET1       -0.2867
      5  CB       -31.5960    8.7060   29.3820 C.3     1  MET1        0.0387
      6  CG       -30.3560    9.5560   29.0540 C.3     1  MET1        0.0595
      7  SD       -29.3100    8.9530   27.6830 S.3     1  MET1       -0.1393
      8  CE       -27.9780   10.1480   27.7520 C.3     1  MET1        0.0692
      9  N        -30.4840   13.6270   29.8830 N.3     3  ASP3       -0.1225
     10  CA       -29.5550   14.4790   29.1480 C.3     3  ASP3        0.1805
     11  C        -29.2420   13.8940   27.7710 C.2     3  ASP3        0.2598
     12  O        -28.1670   14.1210   27.2140 O.2     3  ASP3       -0.2718
     13  CB       -28.2770   14.7210   29.9580 C.3     3  ASP3        0.1424
     14  CG       -27.5470   13.4340   30.3320 C.2     3  ASP3        0.3668
     15  OD1      -28.0670   12.3320   30.0470 O.co2   3  ASP3       -0.2456
     16  OD2      -26.4470   13.5330   30.9230 O.co2   3  ASP3       -0.2456
     17  N        -30.1870   13.1380   27.2190 N.am    4  MET4       -0.1965
     18  CA       -30.0160   12.5390   25.9000 C.3     4  MET4        0.1736
     19  C        -29.8860   13.5990   24.8050 C.2     4  MET4        0.2616
     20  O        -30.5570   14.6380   24.8230 O.2     4  MET4       -0.2715
     21  CB       -31.1930   11.6140   25.5860 C.3     4  MET4        0.0427
     22  CG       -31.1900   11.1080   24.1460 C.3     4  MET4        0.0599
     23  SD       -32.7360   10.3070   23.6660 S.3     4  MET4       -0.1393
     24  CE       -32.4120    9.7950   21.9730 C.3     4  MET4        0.0692
     25  N        -29.0220   13.3220   23.8380 N.am    5  ILE5       -0.1977
     26  CA       -28.7680   14.2250   22.7220 C.3     5  ILE5        0.1596
     27  C        -29.5730   13.7380   21.5260 C.2     5  ILE5        0.2287
     28  O        -29.5520   12.5490   21.1980 O.2     5  ILE5       -0.2864
     29  CB       -27.2650   14.2870   22.3900 C.3     5  ILE5        0.0276
     30  CG1      -26.4620   14.6050   23.6510 C.3     5  ILE5        0.0022
     31  CG2      -26.9850   15.3300   21.3000 C.3     5  ILE5        0.0022
     32  CD1      -26.6580   16.0020   24.1520 C.3     5  ILE5        0.0001
     33  N        -30.8050   10.7520   14.1820 N.3    10  MET10      -0.1245
     34  CA       -31.9460   10.2140   14.9150 C.3    10  MET10       0.1570
     35  C        -33.2320   10.8840   14.4590 C.2    10  MET10       0.2261
     36  O        -34.2490   10.2140   14.2480 O.2    10  MET10      -0.2867
     37  CB       -31.7490   10.3800   16.4320 C.3    10  MET10       0.0387
     38  CG       -30.5850    9.5330   16.9950 C.3    10  MET10       0.0595
     39  SD       -30.0390    9.9480   18.6790 S.3    10  MET10      -0.1393
     40  CE       -30.9140   11.4720   18.9130 C.3    10  MET10       0.0692
     41  N        -22.3610    1.2380   14.8490 N.3    29  LYS29      -0.1231
     42  CA       -21.4670    0.4320   15.6570 C.3    29  LYS29       0.1693
     43  C        -21.8930    0.4610   17.1260 C.2    29  LYS29       0.2592
     44  O        -22.7430    1.2560   17.5450 O.2    29  LYS29      -0.2718
     45  CB       -20.0240    0.9320   15.5130 C.3    29  LYS29       0.0285
     46  CG       -19.4540    0.7450   14.1040 C.3    29  LYS29       0.0035
     47  CD       -17.9890    1.1530   14.0450 C.3    29  LYS29       0.0206
     48  CE       -17.5160    1.3600   12.6030 C.3    29  LYS29       0.1093
     49  NZ       -18.1170    2.5790   11.9970 N.3    29  LYS29      -0.1314
     50  N        -21.2930   -0.4400   17.9030 N.am   30  ALA30      -0.1966
     51  CA       -21.4200   -0.4030   19.3480 C.3    30  ALA30       0.1728
     52  C        -21.0770    0.9930   19.8530 C.2    30  ALA30       0.2617
     53  O        -20.0840    1.5940   19.4330 O.2    30  ALA30      -0.2715
     54  CB       -20.5000   -1.4520   19.9800 C.3    30  ALA30       0.0334
     55  N        -21.9270    1.5260   20.7250 N.am   31  GLY31      -0.1940
     56  CA       -21.7180    2.8480   21.2860 C.3    31  GLY31       0.2014
     57  C        -22.3200    3.9920   20.4840 C.2    31  GLY31       0.2640
     58  O        -22.1450    5.1540   20.8690 O.2    31  GLY31      -0.2714
     59  N        -23.0270    3.7150   19.3900 N.am   32  SER32      -0.1935
     60  CA       -23.6040    4.7960   18.5950 C.3    32  SER32       0.2055
     61  C        -25.0410    5.1280   18.9970 C.2    32  SER32       0.2644
     62  O        -25.7030    5.9090   18.3010 O.2    32  SER32      -0.2714
     63  CB       -23.5430    4.4550   17.1010 C.3    32  SER32       0.2130
     64  OG       -24.3730    3.3490   16.8160 O.3    32  SER32      -0.2179
     65  N        -25.5360    4.5450   20.0890 N.am   33  GLY33      -0.1939
     66  CA       -26.8060    4.9420   20.6630 C.3    33  GLY33       0.2014
     67  C        -28.0280    4.2000   20.1670 C.2    33  GLY33       0.2639
     68  O        -29.1370    4.7320   20.2710 O.2    33  GLY33      -0.2714
     69  N        -27.8740    2.9870   19.6390 N.am   34  LYS34      -0.1963
     70  CA       -29.0380    2.2620   19.1370 C.3    34  LYS34       0.1728
     71  C        -29.9980    1.9050   20.2690 C.2    34  LYS34       0.2617
     72  O        -31.2070    2.1360   20.1700 O.2    34  LYS34      -0.2715
     73  CB       -28.5940    1.0020   18.3920 C.3    34  LYS34       0.0311
     74  CG       -27.7080    1.2500   17.1690 C.3    34  LYS34       0.0038
     75  CD       -27.3860   -0.0750   16.4380 C.3    34  LYS34       0.0206
     76  CE       -26.5080   -1.0290   17.2990 C.3    34  LYS34       0.1093
     77  NZ       -25.2060   -0.3990   17.8590 N.3    34  LYS34      -0.1314
     78  N        -29.4830    1.3320   21.3530 N.am   35  THR35      -0.1937
     79  CA       -30.3630    0.9350   22.4480 C.3    35  THR35       0.2028
     80  C        -31.0610    2.1400   23.0770 C.2    35  THR35       0.2643
     81  O        -32.2600    2.0900   23.3630 O.2    35  THR35      -0.2714
     82  CB       -29.5660    0.1580   23.4830 C.3    35  THR35       0.1808
     83  OG1      -29.5270   -1.2040   23.0630 O.3    35  THR35      -0.2208
     84  CG2      -30.1930    0.2930   24.9250 C.3    35  THR35       0.0379
     85  N        -30.3290    3.2350   23.2870 N.am   36  THR36      -0.1936
     86  CA       -30.9580    4.4230   23.8550 C.3    36  THR36       0.2028
     87  C        -31.9970    4.9970   22.8960 C.2    36  THR36       0.2642
     88  O        -33.1120    5.3250   23.3170 O.2    36  THR36      -0.2714
     89  CB       -29.9020    5.4760   24.2070 C.3    36  THR36       0.1808
     90  OG1      -28.8750    4.8900   25.0310 O.3    36  THR36      -0.2208
     91  CG2      -30.5450    6.6560   24.9500 C.3    36  THR36       0.0379
     92  N        -31.6630    5.1060   21.5980 N.am   37  PHE37      -0.1973
     93  CA       -32.6130    5.6920   20.6560 C.3    37  PHE37       0.1639
     94  C        -33.8550    4.8250   20.4970 C.2    37  PHE37       0.2290
     95  O        -34.9520    5.3580   20.3150 O.2    37  PHE37      -0.2864
     96  CB       -31.9720    5.9260   19.2850 C.3    37  PHE37       0.0560
     97  CG       -32.9410    6.4810   18.2520 C.ar   37  PHE37      -0.0200
     98  CD1      -33.4630    7.7600   18.3880 C.ar   37  PHE37      -0.0042
     99  CD2      -33.3360    5.7190   17.1690 C.ar   37  PHE37      -0.0042
    100  CE1      -34.3370    8.2730   17.4450 C.ar   37  PHE37      -0.0003
    101  CE2      -34.2110    6.2210   16.2240 C.ar   37  PHE37      -0.0003
    102  CZ       -34.7160    7.4980   16.3640 C.ar   37  PHE37      -0.0000
    103  N        -20.8440    8.1520   21.3040 N.3   187  PHE187     -0.1227
    104  CA       -20.9410    9.0910   22.4240 C.3   187  PHE187      0.1736
    105  C        -19.7960    8.9330   23.4280 C.2   187  PHE187      0.2595
    106  O        -19.2870    9.9310   23.9480 O.2   187  PHE187     -0.2718
    107  CB       -22.3050    8.9450   23.1050 C.3   187  PHE187      0.0547
    108  CG       -23.4540    9.4100   22.2400 C.ar  187  PHE187     -0.0202
    109  CD1      -23.7230   10.7620   22.0850 C.ar  187  PHE187     -0.0042
    110  CD2      -24.2370    8.5020   21.5500 C.ar  187  PHE187     -0.0042
    111  CE1      -24.7600   11.2050   21.2670 C.ar  187  PHE187     -0.0003
    112  CE2      -25.2910    8.9400   20.7320 C.ar  187  PHE187     -0.0003
    113  CZ       -25.5460   10.2920   20.5940 C.ar  187  PHE187     -0.0000
    114  N        -19.3690    7.7010   23.7060 N.am  188  ARG188     -0.1980
    115  CA       -18.3370    7.4770   24.7200 C.3   188  ARG188      0.1597
    116  C        -17.0430    8.2210   24.3880 C.2   188  ARG188      0.2287
    117  O        -16.3950    8.7870   25.2780 O.2   188  ARG188     -0.2864
    118  CB       -18.0750    5.9760   24.8680 C.3   188  ARG188      0.0334
    119  CG       -17.0480    5.5880   25.9180 C.3   188  ARG188      0.0492
    120  CD       -17.7170    5.1190   27.1890 C.3   188  ARG188      0.2205
    121  NE       -18.7420    4.1180   26.9120 N.pl3 188  ARG188     -0.0865
    122  CZ       -19.6060    3.6820   27.8210 C.cat 188  ARG188      0.5346
    123  NH1      -19.5460    4.1610   29.0590 N.pl3 188  ARG188      0.1354
    124  NH2      -20.5250    2.7740   27.4940 N.pl3 188  ARG188      0.1354
    125  N        -26.7570   -1.1280   33.6800 N.3   288  ASN288     -0.1240
    126  CA       -26.4890    0.3000   33.7130 C.3   288  ASN288      0.1653
    127  C        -27.2280    0.9510   34.8730 C.2   288  ASN288      0.2266
    128  O        -28.4000    0.6550   35.1260 O.2   288  ASN288     -0.2867
    129  CB       -26.9060    0.9760   32.4060 C.3   288  ASN288      0.1155
    130  CG       -26.1040    0.4950   31.2190 C.2   288  ASN288      0.2627
    131  OD1      -24.8730    0.4880   31.2440 O.2   288  ASN288     -0.2716
    132  ND2      -26.8030    0.0790   30.1690 N.am  288  ASN288     -0.0877
    133  N        -22.0200    1.1180   34.4220 N.3   295  TYR295     -0.1241
    134  CA       -22.6640    0.7880   33.1600 C.3   295  TYR295      0.1605
    135  C        -22.3670   -0.6600   32.8190 C.2   295  TYR295      0.2264
    136  O        -21.4700   -1.2850   33.3920 O.2   295  TYR295     -0.2867
    137  CB       -22.1960    1.7040   32.0070 C.3   295  TYR295      0.0534
    138  CG       -20.6930    1.6960   31.7570 C.ar  295  TYR295     -0.0201
    139  CD1      -20.0960    0.6770   31.0160 C.ar  295  TYR295     -0.0009
    140  CD2      -19.8780    2.7120   32.2430 C.ar  295  TYR295     -0.0009
    141  CE1      -18.7380    0.6680   30.7670 C.ar  295  TYR295      0.0417
    142  CE2      -18.5180    2.7050   32.0070 C.ar  295  TYR295      0.0417
    143  CZ       -17.9490    1.6760   31.2690 C.ar  295  TYR295      0.1957
    144  OH       -16.5880    1.6590   31.0290 O.3   295  TYR295     -0.2866
    145  N        -21.6820   -5.9050   21.5000 N.3   365  GLY365     -0.1225
    146  CA       -22.1970   -4.6400   21.9800 C.3   365  GLY365      0.1811
    147  C        -21.3740   -3.9350   23.0470 C.2   365  GLY365      0.2280
    148  O        -21.7860   -2.8660   23.5110 O.2   365  GLY365     -0.2866
@<TRIPOS>BOND
     1    49    48    1
     2    48    47    1
     3    47    46    1
     4    46    45    1
     5    33    34    1
     6    36    35    2
     7    35    34    1
     8    41    42    1
     9    34    37    1
    10    45    42    1
    11    42    43    1
    12   101   102   ar
    13   101    99   ar
    14   102   100   ar
    15    37    38    1
    16    75    74    1
    17    75    76    1
    18    64    63    1
    19    38    39    1
    20    63    60    1
    21    43    44    2
    22    43    50   am
    23    99    97   ar
    24    74    73    1
    25    76    77    1
    26   100    98   ar
    27    50    51    1
    28    97    98   ar
    29    97    96    1
    30    62    61    2
    31    73    70    1
    32    60    61    1
    33    60    59    1
    34    39    40    1
    35    61    65   am
    36    70    69    1
    37    70    71    1
    38    96    93    1
    39    51    52    1
    40    51    54    1
    41    59    57   am
    42    53    52    2
    43    69    67   am
    44    52    55   am
    45    65    66    1
    46    67    68    2
    47    67    66    1
    48    72    71    2
    49    71    78   am
    50    95    94    2
    51    57    58    2
    52    57    56    1
    53    94    93    1
    54   113   112   ar
    55   113   111   ar
    56    93    92    1
    57    55    56    1
    58   112   110   ar
    59    28    27    2
    60   111   109   ar
    61    31    29    1
    62   103   104    1
    63    78    79    1
    64   145   146    1
    65    27    26    1
    66   110   108   ar
    67    92    87   am
    68    24    23    1
    69   146   147    1
    70   109   108   ar
    71   108   107    1
    72    29    26    1
    73    29    30    1
    74   104   107    1
    75   104   105    1
    76    79    80    1
    77    79    82    1
    78    26    25    1
    79    87    88    2
    80    87    86    1
    81   147   148    2
    82    83    82    1
    83    80    85   am
    84    80    81    2
    85    85    86    1
    86   105   114   am
    87   105   106    2
    88    82    84    1
    89    30    32    1
    90    23    22    1
    91   114   115    1
    92    25    19   am
    93    86    89    1
    94    22    21    1
    95    89    91    1
    96    89    90    1
    97   116   115    1
    98   116   117    2
    99   115   118    1
   100    19    20    2
   101    19    18    1
   102   118   119    1
   103    21    18    1
   104    18    17    1
   105   119   120    1
   106   121   120    1
   107   121   122    2
   108    12    11    2
   109    17    11   am
   110   124   122    1
   111     7     8    1
   112     7     6    1
   113    11    10    1
   114   122   123    1
   115     6     5    1
   116    10     9    1
   117    10    13    1
   118     5     2    1
   119     4     3    2
   120    13    14    1
   121    15    14   ar
   122   132   130   am
   123     3     2    1
   124    14    16   ar
   125     2     1    1
   126   141   139   ar
   127   141   143   ar
   128   139   138   ar
   129   144   143    1
   130   130   131    2
   131   130   129    1
   132   143   142   ar
   133   138   137    1
   134   138   140   ar
   135   142   140   ar
   136   137   134    1
   137   129   126    1
   138   135   134    1
   139   135   136    2
   140   134   133    1
   141   125   126    1
   142   126   127    1
   143   127   128    2
