@<TRIPOS>MOLECULE
tmp/5ftgA00.pdb
 215 213 0 0 0
SMALL
GASTEIGER

@<TRIPOS>ATOM
      1  N        -27.2380   20.3350   18.5440 N.3   144  TRP144     -0.1241
      2  CA       -26.8470   19.4220   17.5320 C.3   144  TRP144      0.1605
      3  C        -26.0640   18.2110   18.0560 C.2   144  TRP144      0.2264
      4  O        -26.3650   17.0970   17.6860 O.2   144  TRP144     -0.2867
      5  CB       -26.0530   20.1580   16.4650 C.3   144  TRP144      0.0550
      6  CG       -25.5720   19.2970   15.3360 C.ar  144  TRP144      0.0003
      7  CD1      -26.2020   19.1010   14.1420 C.ar  144  TRP144      0.0946
      8  CD2      -24.3220   18.5460   15.2320 C.ar  144  TRP144      0.0152
      9  NE1      -25.4710   18.2700   13.3370 N.ar  144  TRP144     -0.2442
     10  CE2      -24.3250   17.9130   13.9840 C.ar  144  TRP144      0.0810
     11  CE3      -23.2190   18.3740   16.0440 C.ar  144  TRP144      0.0012
     12  CZ2      -23.2690   17.0990   13.5590 C.ar  144  TRP144      0.0191
     13  CZ3      -22.1750   17.5610   15.5930 C.ar  144  TRP144      0.0001
     14  CH2      -22.2340   16.9290   14.3940 C.ar  144  TRP144      0.0015
     15  N        -29.1610    8.8910   17.4360 N.3   152  TYR152     -0.1241
     16  CA       -28.4580    7.7080   16.9380 C.3   152  TYR152      0.1605
     17  C        -28.3930    6.6200   17.9650 C.2   152  TYR152      0.2264
     18  O        -28.5720    5.4500   17.6160 O.2   152  TYR152     -0.2867
     19  CB       -27.0490    8.0240   16.4900 C.3   152  TYR152      0.0534
     20  CG       -26.8710    8.8880   15.2870 C.ar  152  TYR152     -0.0201
     21  CD1      -27.8950    9.1310   14.4130 C.ar  152  TYR152     -0.0009
     22  CD2      -25.6510    9.5110   15.0760 C.ar  152  TYR152     -0.0009
     23  CE1      -27.6380    9.9330   13.2750 C.ar  152  TYR152      0.0417
     24  CE2      -25.4270   10.2560   13.9480 C.ar  152  TYR152      0.0417
     25  CZ       -26.4490   10.4580   13.1250 C.ar  152  TYR152      0.1957
     26  OH       -26.2710   11.2620   11.9750 O.3   152  TYR152     -0.2866
     27  N        -18.1840   20.4490   11.1090 N.3   201  ASN201     -0.1225
     28  CA       -18.5100   19.1270   11.6380 C.3   201  ASN201      0.1785
     29  C        -17.9280   17.9480   10.8840 C.2   201  ASN201      0.2597
     30  O        -18.1760   16.7940   11.2760 O.2   201  ASN201     -0.2718
     31  CB       -20.0090   18.9260   11.8950 C.3   201  ASN201      0.1169
     32  CG       -20.5380   19.8940   12.9200 C.2   201  ASN201      0.2627
     33  OD1      -19.9110   20.1890   13.9430 O.2   201  ASN201     -0.2716
     34  ND2      -21.7420   20.4040   12.6170 N.am  201  ASN201     -0.0877
     35  N        -17.0990   18.2020    9.8620 N.am  202  ASP202     -0.1974
     36  CA       -16.5370   17.1060    9.0520 C.3   202  ASP202      0.1709
     37  C        -15.2590   17.5490    8.4220 C.2   202  ASP202      0.2293
     38  O        -15.0210   17.3550    7.2370 O.2   202  ASP202     -0.2864
     39  CB       -17.5530   16.6820    7.9750 C.3   202  ASP202      0.1436
     40  CG       -17.2920   15.3770    7.3460 C.2   202  ASP202      0.3671
     41  OD1      -16.4550   14.5970    7.7850 O.co2 202  ASP202     -0.2456
     42  OD2      -17.9110   15.2190    6.2340 O.co2 202  ASP202     -0.2456
     43  N        -12.2180   16.6800    7.5510 N.3   204  GLN204     -0.1196
     44  CA       -11.3900   15.4880    7.2410 C.3   204  GLN204      0.1782
     45  C        -10.7230   15.9060    5.8670 C.2   204  GLN204      0.2306
     46  O        -11.2470   16.7700    5.1100 O.2   204  GLN204     -0.2863
     47  CB       -12.2390   14.2230    7.0820 C.2   204  GLN204      0.0051
     48  CG       -13.4020   14.3050    6.0740 C.2   204  GLN204      0.0584
     49  CD       -14.1570   13.0700    5.6520 C.2   204  GLN204      0.2840
     50  OE1      -13.5760   12.1710    4.9750 O.2   204  GLN204     -0.2667
     51  NE2      -15.3570   12.9460    6.0230 N.am  204  GLN204     -0.0837
     52  N        -23.0350   19.1560    6.5270 N.3   229  TYR229     -0.1241
     53  CA       -23.2940   18.7740    7.9150 C.3   229  TYR229      0.1605
     54  C        -23.0380   19.8860    8.9260 C.2   229  TYR229      0.2264
     55  O        -23.1170   19.6720   10.1220 O.2   229  TYR229     -0.2867
     56  CB       -22.4040   17.5700    8.2490 C.3   229  TYR229      0.0534
     57  CG       -22.6310   16.3800    7.3160 C.ar  229  TYR229     -0.0201
     58  CD1      -23.8250   15.6610    7.3500 C.ar  229  TYR229     -0.0009
     59  CD2      -21.6640   16.0380    6.4180 C.ar  229  TYR229     -0.0009
     60  CE1      -24.0110   14.5960    6.4760 C.ar  229  TYR229      0.0417
     61  CE2      -21.8270   14.9700    5.5480 C.ar  229  TYR229      0.0417
     62  CZ       -22.9760   14.2980    5.5890 C.ar  229  TYR229      0.1957
     63  OH       -23.1340   13.2010    4.7000 O.3   229  TYR229     -0.2866
     64  N        -12.6880   16.9120   16.4770 N.3   241  ASN241     -0.1240
     65  CA       -13.0230   16.0410   15.3380 C.3   241  ASN241      0.1653
     66  C        -11.9520   16.0600   14.2820 C.2   241  ASN241      0.2266
     67  O        -11.5770   14.9780   13.7900 O.2   241  ASN241     -0.2867
     68  CB       -14.3500   16.4670   14.7430 C.3   241  ASN241      0.1155
     69  CG       -14.7920   15.5520   13.6540 C.2   241  ASN241      0.2627
     70  OD1      -15.0940   14.3690   13.8380 O.2   241  ASN241     -0.2716
     71  ND2      -14.7610   16.0390   12.4250 N.am  241  ASN241     -0.0877
     72  N         -9.4540   12.8740   12.9640 N.3   245  GLU245     -0.1245
     73  CA        -9.3220   12.4640   11.5820 C.3   245  GLU245      0.1567
     74  C         -7.8720   12.2110   11.1820 C.2   245  GLU245      0.2260
     75  O         -7.6490   11.5310   10.1710 O.2   245  GLU245     -0.2867
     76  CB        -9.9790   13.4730   10.6950 C.3   245  GLU245      0.0388
     77  CG       -11.5130   13.3590   10.7290 C.3   245  GLU245      0.1160
     78  CD       -12.1200   12.1410   10.1140 C.2   245  GLU245      0.3649
     79  OE1      -11.3740   11.3140    9.6140 O.co2 245  GLU245     -0.2457
     80  OE2      -13.3690   11.9960   10.1660 O.co2 245  GLU245     -0.2457
     81  N         -9.1530    6.7250    4.7560 N.3   250  TYR250     -0.1241
     82  CA       -10.2870    6.1380    4.0690 C.3   250  TYR250      0.1605
     83  C         -9.9720    5.6860    2.6420 C.2   250  TYR250      0.2264
     84  O        -10.9080    5.3340    1.9150 O.2   250  TYR250     -0.2867
     85  CB       -11.4400    7.1190    4.0140 C.3   250  TYR250      0.0534
     86  CG       -11.7970    7.6080    5.4720 C.ar  250  TYR250     -0.0201
     87  CD1      -12.3780    6.7530    6.3700 C.ar  250  TYR250     -0.0009
     88  CD2      -11.5700    8.8980    5.8430 C.ar  250  TYR250     -0.0009
     89  CE1      -12.6790    7.1650    7.6800 C.ar  250  TYR250      0.0417
     90  CE2      -11.8680    9.3750    7.1130 C.ar  250  TYR250      0.0417
     91  CZ       -12.3850    8.4830    8.0290 C.ar  250  TYR250      0.1957
     92  OH       -12.6570    8.9220    9.3320 O.3   250  TYR250     -0.2866
     93  N         -7.8000    3.1280    1.9900 N.3   252  TYR252     -0.1227
     94  CA        -7.3400    1.7290    2.0520 C.3   252  TYR252      0.1736
     95  C         -8.1540    0.8480    1.1210 C.2   252  TYR252      0.2595
     96  O         -9.3640    0.9160    1.0860 O.2   252  TYR252     -0.2718
     97  CB        -7.4420    1.2590    3.4600 C.3   252  TYR252      0.0548
     98  CG        -6.8690   -0.1060    3.7520 C.ar  252  TYR252     -0.0200
     99  CD1       -5.5140   -0.3690    3.5220 C.ar  252  TYR252     -0.0009
    100  CD2       -7.6510   -1.1080    4.2640 C.ar  252  TYR252     -0.0009
    101  CE1       -4.9780   -1.5970    3.8240 C.ar  252  TYR252      0.0417
    102  CE2       -7.1350   -2.3340    4.5780 C.ar  252  TYR252      0.0417
    103  CZ        -5.8010   -2.5800    4.3490 C.ar  252  TYR252      0.1957
    104  OH        -5.3030   -3.8280    4.6290 O.3   252  TYR252     -0.2866
    105  N         -7.5100    0.0560    0.2280 N.am  253  GLU253     -0.1979
    106  CA        -8.2230   -0.4380   -0.9640 C.3   253  GLU253      0.1602
    107  C         -8.8380   -1.8060   -0.7810 C.2   253  GLU253      0.2287
    108  O         -9.5050   -2.3680   -1.7090 O.2   253  GLU253     -0.2864
    109  CB        -7.2810   -0.4200   -2.1870 C.3   253  GLU253      0.0415
    110  CG        -7.1650    1.0090   -2.6860 C.3   253  GLU253      0.1163
    111  CD        -6.1880    1.2150   -3.8230 C.2   253  GLU253      0.3649
    112  OE1       -5.4010    0.2950   -4.1170 O.co2 253  GLU253     -0.2457
    113  OE2       -6.2070    2.3280   -4.3990 O.co2 253  GLU253     -0.2457
    114  N        -11.7960   -0.9870    4.1680 N.3   257  PHE257     -0.1241
    115  CA       -11.7900    0.2240    3.3450 C.3   257  PHE257      0.1605
    116  C        -11.3880    1.4620    4.1900 C.2   257  PHE257      0.2264
    117  O        -11.5260    2.5340    3.6980 O.2   257  PHE257     -0.2867
    118  CB       -13.0270    0.4160    2.4960 C.3   257  PHE257      0.0534
    119  CG       -13.2880   -0.7600    1.5890 C.ar  257  PHE257     -0.0203
    120  CD1      -12.5390   -0.9020    0.4280 C.ar  257  PHE257     -0.0042
    121  CD2      -14.2050   -1.7370    1.9470 C.ar  257  PHE257     -0.0042
    122  CE1      -12.7040   -2.0440   -0.3890 C.ar  257  PHE257     -0.0003
    123  CE2      -14.3990   -2.8540    1.1270 C.ar  257  PHE257     -0.0003
    124  CZ       -13.6420   -3.0010   -0.0270 C.ar  257  PHE257     -0.0000
    125  N        -19.5420    9.5840   15.9860 N.3   316  TRP316     -0.1241
    126  CA       -19.3050    8.8850   14.7110 C.3   316  TRP316      0.1605
    127  C        -19.2630    7.3960   14.8730 C.2   316  TRP316      0.2264
    128  O        -19.6050    6.6640   13.9380 O.2   316  TRP316     -0.2867
    129  CB       -18.1300    9.4260   13.9420 C.3   316  TRP316      0.0550
    130  CG       -18.2360   10.9160   13.6680 C.ar  316  TRP316      0.0003
    131  CD1      -17.2310   11.8220   13.8520 C.ar  316  TRP316      0.0946
    132  CD2      -19.3910   11.6970   13.2890 C.ar  316  TRP316      0.0152
    133  NE1      -17.6690   13.0580   13.5910 N.ar  316  TRP316     -0.2442
    134  CE2      -18.9920   13.0440   13.2200 C.ar  316  TRP316      0.0810
    135  CE3      -20.6660   11.3840   12.9040 C.ar  316  TRP316      0.0012
    136  CZ2      -19.8590   14.0890   12.8670 C.ar  316  TRP316      0.0191
    137  CZ3      -21.5680   12.4130   12.5780 C.ar  316  TRP316      0.0001
    138  CH2      -21.1460   13.7510   12.5520 C.ar  316  TRP316      0.0015
    139  N        -22.9820    6.7780   14.6490 N.3   319  TRP319     -0.1241
    140  CA       -23.3370    6.9840   13.2120 C.3   319  TRP319      0.1605
    141  C        -22.9610    5.8020   12.4360 C.2   319  TRP319      0.2264
    142  O        -23.7280    5.3860   11.5040 O.2   319  TRP319     -0.2867
    143  CB       -22.6100    8.2360   12.7010 C.3   319  TRP319      0.0550
    144  CG       -22.7000    8.5140   11.2510 C.ar  319  TRP319      0.0003
    145  CD1      -23.6110    9.3410   10.6810 C.ar  319  TRP319      0.0946
    146  CD2      -21.8160    8.0790   10.2650 C.ar  319  TRP319      0.0152
    147  NE1      -23.3840    9.3910    9.3150 N.ar  319  TRP319     -0.2442
    148  CE2      -22.3030    8.6440    9.0200 C.ar  319  TRP319      0.0810
    149  CE3      -20.6760    7.2920   10.2500 C.ar  319  TRP319      0.0012
    150  CZ2      -21.6390    8.3700    7.7960 C.ar  319  TRP319      0.0191
    151  CZ3      -20.0380    7.0150    9.0110 C.ar  319  TRP319      0.0001
    152  CH2      -20.5060    7.6220    7.8590 C.ar  319  TRP319      0.0015
    153  N        -23.4060    1.8990    0.6800 N.3   329  ILE329     -0.1231
    154  CA       -21.9960    1.9640    0.3060 C.3   329  ILE329      0.1692
    155  C        -21.2170    0.8210    0.9100 C.2   329  ILE329      0.2592
    156  O        -21.3390    0.5000    2.1360 O.2   329  ILE329     -0.2718
    157  CB       -21.4250    3.2980    0.7960 C.3   329  ILE329      0.0266
    158  CG1      -22.2770    4.4210    0.2070 C.3   329  ILE329      0.0019
    159  CG2      -19.9190    3.3830    0.4840 C.3   329  ILE329      0.0020
    160  CD1      -21.9510    5.8410    0.7040 C.3   329  ILE329      0.0001
    161  N        -20.3940    0.1710    0.1510 N.am  330  GLU330     -0.1966
    162  CA       -19.5560   -0.8580    0.6210 C.3   330  GLU330      0.1733
    163  C        -18.4070   -0.2400    1.4600 C.2   330  GLU330      0.2616
    164  O        -17.5290    0.4580    0.9560 O.2   330  GLU330     -0.2715
    165  CB       -18.9590   -1.6260   -0.5610 C.3   330  GLU330      0.0429
    166  CG       -17.9850   -2.7120   -0.1420 C.3   330  GLU330      0.1163
    167  CD       -17.2810   -3.4400   -1.2960 C.2   330  GLU330      0.3649
    168  OE1      -17.1740   -2.8420   -2.4000 O.co2 330  GLU330     -0.2457
    169  OE2      -16.7890   -4.5830   -1.0530 O.co2 330  GLU330     -0.2457
    170  N        -18.4090   -0.5080    2.7680 N.am  331  PHE331     -0.1974
    171  CA       -17.4530    0.1270    3.7170 C.3   331  PHE331      0.1639
    172  C        -17.6410   -0.7050    4.9990 C.2   331  PHE331      0.2290
    173  O        -18.8050   -1.1290    5.2950 O.2   331  PHE331     -0.2864
    174  CB       -17.7910    1.5970    4.0050 C.3   331  PHE331      0.0560
    175  CG       -16.8100    2.2710    4.9100 C.ar  331  PHE331     -0.0200
    176  CD1      -15.6070    2.7400    4.4330 C.ar  331  PHE331     -0.0042
    177  CD2      -17.0810    2.4460    6.2490 C.ar  331  PHE331     -0.0042
    178  CE1      -14.6970    3.3260    5.2870 C.ar  331  PHE331     -0.0003
    179  CE2      -16.2150    3.0550    7.0790 C.ar  331  PHE331     -0.0003
    180  CZ       -15.0190    3.4970    6.6130 C.ar  331  PHE331     -0.0000
    181  N        -18.4040   -0.5810    8.1370 N.3   333  TYR333     -0.1241
    182  CA       -19.0420    0.2840    9.1500 C.3   333  TYR333      0.1605
    183  C        -18.9300   -0.2420   10.5230 C.2   333  TYR333      0.2264
    184  O        -18.6670    0.5250   11.4770 O.2   333  TYR333     -0.2867
    185  CB       -20.4450    0.6160    8.8040 C.3   333  TYR333      0.0534
    186  CG       -20.6300    1.5350    7.6140 C.ar  333  TYR333     -0.0201
    187  CD1      -20.3310    2.8830    7.6880 C.ar  333  TYR333     -0.0009
    188  CD2      -21.1220    0.9980    6.3990 C.ar  333  TYR333     -0.0009
    189  CE1      -20.5060    3.7240    6.5810 C.ar  333  TYR333      0.0417
    190  CE2      -21.2960    1.8340    5.3170 C.ar  333  TYR333      0.0417
    191  CZ       -21.0250    3.1320    5.4160 C.ar  333  TYR333      0.1957
    192  OH       -21.2890    3.9760    4.3420 O.3   333  TYR333     -0.2866
    193  N        -15.3910    0.0820   11.6780 N.3   336  TYR336     -0.1241
    194  CA       -15.0980    1.5050   11.9160 C.3   336  TYR336      0.1605
    195  C        -15.6950    1.9370   13.2710 C.2   336  TYR336      0.2264
    196  O        -15.0380    2.6270   14.0490 O.2   336  TYR336     -0.2867
    197  CB       -15.6140    2.3430   10.7740 C.3   336  TYR336      0.0534
    198  CG       -15.2210    3.7680   10.9380 C.ar  336  TYR336     -0.0201
    199  CD1      -13.9430    4.1870   10.6200 C.ar  336  TYR336     -0.0009
    200  CD2      -16.1100    4.6880   11.3430 C.ar  336  TYR336     -0.0009
    201  CE1      -13.5730    5.5340   10.7840 C.ar  336  TYR336      0.0417
    202  CE2      -15.7540    6.0400   11.5110 C.ar  336  TYR336      0.0417
    203  CZ       -14.4880    6.4280   11.1700 C.ar  336  TYR336      0.1957
    204  OH       -14.0950    7.7760   11.3180 O.3   336  TYR336     -0.2866
    205  N        -13.6530    3.5360   16.4580 N.3   340  ARG340     -0.1245
    206  CA       -13.9880    4.7620   17.1680 C.3   340  ARG340      0.1563
    207  C        -14.1930    4.5670   18.6560 C.2   340  ARG340      0.2260
    208  O        -13.7120    5.3460   19.4640 O.2   340  ARG340     -0.2867
    209  CB       -15.1900    5.4680   16.5240 C.3   340  ARG340      0.0307
    210  CG       -15.0270    5.8740   15.0820 C.3   340  ARG340      0.0489
    211  CD       -13.7780    6.6740   14.7650 C.3   340  ARG340      0.2205
    212  NE       -13.6340    7.9410   15.4720 N.pl3 340  ARG340     -0.0865
    213  CZ       -13.8660    9.1380   14.9800 C.cat 340  ARG340      0.5346
    214  NH1      -14.3000    9.2980   13.7650 N.pl3 340  ARG340      0.1354
    215  NH2      -13.6310   10.1870   15.7430 N.pl3 340  ARG340      0.1354
@<TRIPOS>BOND
     1   113   111   ar
     2   112   111   ar
     3   111   110    1
     4   110   109    1
     5   168   167   ar
     6   109   106    1
     7   108   107    2
     8   167   169   ar
     9   167   166    1
    10   106   107    1
    11   106   105    1
    12   165   166    1
    13   165   162    1
    14   122   124   ar
    15   122   120   ar
    16   124   123   ar
    17   161   162    1
    18   161   155   am
    19   158   160    1
    20   158   157    1
    21   105    95   am
    22   154   153    1
    23   154   157    1
    24   154   155    1
    25   120   119   ar
    26   159   157    1
    27   162   163    1
    28   155   156    2
    29   164   163    2
    30    96    95    2
    31    95    94    1
    32   123   121   ar
    33   163   170   am
    34   119   121   ar
    35   119   118    1
    36    84    83    2
    37    93    94    1
    38    94    97    1
    39   118   115    1
    40    83    82    1
    41   170   171    1
    42   115   114    1
    43   115   116    1
    44    97    98    1
    45    99    98   ar
    46    99   101   ar
    47   117   116    2
    48   171   174    1
    49   171   172    1
    50    98   100   ar
    51   101   103   ar
    52   174   175    1
    53    85    82    1
    54    85    86    1
    55    82    81    1
    56   100   102   ar
    57   192   191    1
    58   103   102   ar
    59   103   104    1
    60   176   175   ar
    61   176   178   ar
    62    63    62    1
    63   175   177   ar
    64    50    49    2
    65   172   173    2
    66    46    45    2
    67   178   180   ar
    68   190   191   ar
    69   190   188   ar
    70   191   189   ar
    71    86    88   ar
    72    86    87   ar
    73    61    62   ar
    74    61    59   ar
    75    62    60   ar
    76    49    51   am
    77    49    48    1
    78    88    90   ar
    79    45    44    1
    80    48    47    2
    81    42    40   ar
    82   177   179   ar
    83    87    89   ar
    84   188   186   ar
    85    59    57   ar
    86    60    58   ar
    87    52    53    1
    88   189   187   ar
    89   180   179   ar
    90    47    44    1
    91    90    91   ar
    92    38    37    2
    93    44    43    1
    94    57    58   ar
    95    57    56    1
    96    40    41   ar
    97    40    39    1
    98   186   187   ar
    99   186   185    1
   100    89    91   ar
   101   150   152   ar
   102   150   148   ar
   103   152   151   ar
   104    53    56    1
   105    53    54    1
   106    39    36    1
   107    91    92    1
   108   181   182    1
   109    37    36    1
   110   185   182    1
   111    54    55    2
   112   151   149   ar
   113   148   147   ar
   114   148   146   ar
   115    36    35    1
   116   182   183    1
   117   147   145   ar
   118    79    78   ar
   119    35    29   am
   120    78    80   ar
   121    78    77    1
   122    75    74    2
   123   149   146   ar
   124   146   144   ar
   125   183   184    2
   126   199   201   ar
   127   199   198   ar
   128   145   144   ar
   129    76    77    1
   130    76    73    1
   131   197   198    1
   132   197   194    1
   133   201   203   ar
   134    29    30    2
   135    29    28    1
   136   198   200   ar
   137    27    28    1
   138   203   204    1
   139   203   202   ar
   140    74    73    1
   141   144   143    1
   142   200   202   ar
   143   142   141    2
   144    73    72    1
   145    28    31    1
   146   193   194    1
   147    31    32    1
   148   194   195    1
   149    26    25    1
   150    71    69   am
   151   141   140    1
   152   138   137   ar
   153   138   136   ar
   154   137   135   ar
   155    34    32   am
   156   143   140    1
   157   136   134   ar
   158   135   132   ar
   159    32    33    2
   160    25    23   ar
   161    25    24   ar
   162   140   139    1
   163   134   132   ar
   164   134   133   ar
   165   195   196    2
   166    23    21   ar
   167   132   130   ar
   168     9    10   ar
   169     9     7   ar
   170    12    10   ar
   171    12    14   ar
   172   133   131   ar
   173    69    70    2
   174    69    68    1
   175   130   131   ar
   176   130   129    1
   177   214   213    1
   178    67    66    2
   179   128   127    2
   180   129   126    1
   181    24    22   ar
   182    10     8   ar
   183     7     6   ar
   184    66    65    1
   185    14    13   ar
   186    21    20   ar
   187   126   127    1
   188   126   125    1
   189    68    65    1
   190   211   210    1
   191   211   212    1
   192   213   212    2
   193   213   215    1
   194    22    20   ar
   195   210   209    1
   196     8     6   ar
   197     8    11   ar
   198    20    19    1
   199     6     5    1
   200    65    64    1
   201    13    11   ar
   202   205   206    1
   203     5     2    1
   204    19    16    1
   205   209   206    1
   206    16    15    1
   207    16    17    1
   208   206   207    1
   209     2     3    1
   210     2     1    1
   211    18    17    2
   212     4     3    2
   213   207   208    2
