@<TRIPOS>MOLECULE
tmp/5ftjB02.pdb
 151 147 0 0 0
SMALL
GASTEIGER

@<TRIPOS>ATOM
      1  N        118.7750  140.2870  125.4640 N.3   472  LEU472     -0.1231
      2  CA       118.9520  138.9760  124.8600 C.3   472  LEU472      0.1693
      3  C        118.6440  139.0000  123.3750 C.2   472  LEU472      0.2592
      4  O        119.3600  138.3910  122.5820 O.2   472  LEU472     -0.2718
      5  CB       118.0740  137.9650  125.5850 C.3   472  LEU472      0.0284
      6  CG       118.5790  137.6580  126.9790 C.3   472  LEU472      0.0019
      7  CD1      117.5830  136.8280  127.7220 C.3   472  LEU472      0.0001
      8  CD2      119.9020  136.9210  126.8690 C.3   472  LEU472      0.0001
      9  N        117.5930  139.7070  122.9790 N.am  473  VAL473     -0.1966
     10  CA       117.1670  139.6660  121.5870 C.3   473  VAL473      0.1727
     11  C        117.9920  140.6050  120.7130 C.2   473  VAL473      0.2616
     12  O        118.4190  140.2330  119.6180 O.2   473  VAL473     -0.2715
     13  CB       115.6680  139.9830  121.4890 C.3   473  VAL473      0.0290
     14  CG1      115.2350  140.0110  120.0470 C.3   473  VAL473      0.0023
     15  CG2      114.8850  138.9750  122.2470 C.3   473  VAL473      0.0023
     16  N        118.1560  141.8540  121.1360 N.am  474  GLN474     -0.1977
     17  CA       118.6770  142.8920  120.2530 C.3   474  GLN474      0.1601
     18  C        120.1980  142.9840  120.2120 C.2   474  GLN474      0.2287
     19  O        120.7670  143.1450  119.1330 O.2   474  GLN474     -0.2864
     20  CB       118.0470  144.2310  120.6200 C.3   474  GLN474      0.0394
     21  CG       116.5650  144.1490  120.3670 C.3   474  GLN474      0.0908
     22  CD       115.7950  145.3940  120.6800 C.2   474  GLN474      0.2608
     23  OE1      116.2550  146.2670  121.4090 O.2   474  GLN474     -0.2717
     24  NE2      114.5780  145.4640  120.1550 N.am  474  GLN474     -0.0878
     25  N        122.8400  140.8750  120.4090 N.3   476  PRO476     -0.2102
     26  CA       123.6790  140.0160  119.5680 C.3   476  PRO476      0.1504
     27  C        123.5990  140.3250  118.0860 C.2   476  PRO476      0.2576
     28  O        124.5700  140.0770  117.3660 O.2   476  PRO476     -0.2718
     29  CB       123.1540  138.6160  119.8900 C.3   476  PRO476      0.0282
     30  CG       122.6520  138.7410  121.2330 C.3   476  PRO476      0.0208
     31  CD       121.9920  140.0560  121.2820 C.3   476  PRO476      0.0893
     32  N        122.4650  140.8070  117.5910 N.am  477  VAL477     -0.1966
     33  CA       122.3500  141.0910  116.1660 C.3   477  VAL477      0.1727
     34  C        122.8750  142.4850  115.8520 C.2   477  VAL477      0.2616
     35  O        123.5050  142.7090  114.8150 O.2   477  VAL477     -0.2715
     36  CB       120.8890  140.9030  115.7340 C.3   477  VAL477      0.0290
     37  CG1      120.7430  141.0440  114.2330 C.3   477  VAL477      0.0023
     38  CG2      120.3880  139.5720  116.2410 C.3   477  VAL477      0.0023
     39  N        122.6360  143.4370  116.7530 N.am  478  GLU478     -0.1977
     40  CA       123.0680  144.8140  116.5570 C.3   478  GLU478      0.1602
     41  C        124.5450  145.0170  116.8550 C.2   478  GLU478      0.2287
     42  O        125.1710  145.9100  116.2810 O.2   478  GLU478     -0.2864
     43  CB       122.2580  145.7510  117.4380 C.3   478  GLU478      0.0415
     44  CG       120.8170  145.8650  117.0630 C.3   478  GLU478      0.1163
     45  CD       120.0910  146.8640  117.9410 C.2   478  GLU478      0.3649
     46  OE1      120.7110  147.3540  118.9030 O.co2 478  GLU478     -0.2457
     47  OE2      118.9100  147.1680  117.6610 O.co2 478  GLU478     -0.2457
     48  N        128.9950  133.1180  122.4550 N.3   489  THR489     -0.1204
     49  CA       127.7890  133.0110  121.6490 C.3   489  THR489      0.1979
     50  C        126.5850  133.3740  122.5030 C.2   489  THR489      0.2460
     51  O        126.4790  132.9070  123.6380 O.2   489  THR489     -0.2732
     52  CB       127.6400  131.6010  121.0970 C.3   489  THR489      0.1783
     53  OG1      128.7770  131.2920  120.2800 O.3   489  THR489     -0.2211
     54  CG2      126.3930  131.4770  120.2540 C.3   489  THR489      0.0376
     55  N        125.6890  134.2210  122.0200 N.am  490  PRO490     -0.2717
     56  CA       124.4910  134.5430  122.7930 C.3   490  PRO490      0.1536
     57  C        123.5750  133.3420  122.9300 C.2   490  PRO490      0.2599
     58  O        123.6710  132.3590  122.1950 O.2   490  PRO490     -0.2715
     59  CB       123.8300  135.6380  121.9630 C.3   490  PRO490      0.0310
     60  CG       124.2780  135.3730  120.6080 C.3   490  PRO490      0.0237
     61  CD       125.6930  134.9100  120.7300 C.3   490  PRO490      0.0939
     62  N        122.6670  133.4350  123.8900 N.am  491  SER491     -0.1936
     63  CA       121.6580  132.4010  124.0260 C.3   491  SER491      0.2055
     64  C        120.6440  132.5280  122.9040 C.2   491  SER491      0.2642
     65  O        120.2900  133.6280  122.4890 O.2   491  SER491     -0.2714
     66  CB       120.9420  132.5100  125.3620 C.3   491  SER491      0.2130
     67  OG       120.0750  133.6260  125.3820 O.3   491  SER491     -0.2179
     68  N        120.2070  131.3940  122.3830 N.am  492  LYS492     -0.1977
     69  CA       119.0740  131.3850  121.4740 C.3   492  LYS492      0.1596
     70  C        117.7430  131.3630  122.2190 C.2   492  LYS492      0.2287
     71  O        116.7390  131.8440  121.6980 O.2   492  LYS492     -0.2864
     72  CB       119.2020  130.1970  120.5250 C.3   492  LYS492      0.0298
     73  CG       119.2640  128.8520  121.2040 C.3   492  LYS492      0.0038
     74  CD       119.5210  127.7370  120.2030 C.3   492  LYS492      0.0206
     75  CE       120.9020  127.8610  119.5770 C.3   492  LYS492      0.1093
     76  NZ       121.1950  126.7300  118.6620 N.3   492  LYS492     -0.1314
     77  N        108.4040  144.8770  118.6520 N.3   514  GLU514     -0.1231
     78  CA       109.3950  145.9370  118.6770 C.3   514  GLU514      0.1699
     79  C        110.4410  145.7330  117.5950 C.2   514  GLU514      0.2592
     80  O        110.7520  146.6640  116.8470 O.2   514  GLU514     -0.2718
     81  CB       110.0360  146.0100  120.0540 C.3   514  GLU514      0.0402
     82  CG       110.9680  147.1650  120.2130 C.3   514  GLU514      0.1161
     83  CD       111.4250  147.3030  121.6320 C.2   514  GLU514      0.3649
     84  OE1      111.0540  146.4390  122.4450 O.co2 514  GLU514     -0.2457
     85  OE2      112.1380  148.2700  121.9370 O.co2 514  GLU514     -0.2457
     86  N        110.9820  144.5210  117.4810 N.am  515  CYS515     -0.1970
     87  CA       111.9050  144.1870  116.4060 C.3   515  CYS515      0.1712
     88  C        111.2140  144.0910  115.0590 C.2   515  CYS515      0.2296
     89  O        111.8980  143.8670  114.0600 O.2   515  CYS515     -0.2864
     90  CB       112.6230  142.8750  116.7100 C.3   515  CYS515      0.0983
     91  SG       113.7070  142.9170  118.1440 S.3   515  CYS515     -0.0798
     92  N        109.7670  141.7130  114.0180 N.3   517  ALA517     -0.1245
     93  CA       109.9800  140.3340  113.6300 C.3   517  ALA517      0.1562
     94  C        108.6590  139.6010  113.4740 C.2   517  ALA517      0.2260
     95  O        107.6540  139.9380  114.1000 O.2   517  ALA517     -0.2867
     96  CB       110.8340  139.6240  114.6710 C.3   517  ALA517      0.0290
     97  N        113.8380  137.2000  110.1100 N.3   551  PRO551     -0.2102
     98  CA       113.8580  137.0880  111.5710 C.3   551  PRO551      0.1504
     99  C        112.4980  136.8600  112.2330 C.2   551  PRO551      0.2576
    100  O        111.5980  137.6470  112.0160 O.2   551  PRO551     -0.2718
    101  CB       114.4230  138.4360  112.0000 C.3   551  PRO551      0.0282
    102  CG       114.0390  139.3360  110.9160 C.3   551  PRO551      0.0208
    103  CD       114.2480  138.5430  109.6840 C.3   551  PRO551      0.0893
    104  N        112.3540  135.8330  113.0610 N.am  552  CYS552     -0.1957
    105  CA       111.1150  135.6870  113.8040 C.3   552  CYS552      0.1843
    106  C        111.4280  135.3730  115.2550 C.2   552  CYS552      0.2625
    107  O        112.5560  135.0570  115.6190 O.2   552  CYS552     -0.2714
    108  CB       110.1960  134.5980  113.2360 C.3   552  CYS552      0.0997
    109  SG       110.7960  132.9310  113.3640 S.3   552  CYS552     -0.0797
    110  N        110.4040  135.5080  116.0830 N.am  553  VAL553     -0.1977
    111  CA       110.3760  134.9640  117.4280 C.3   553  VAL553      0.1596
    112  C        109.4340  133.7760  117.4030 C.2   553  VAL553      0.2287
    113  O        108.2500  133.9280  117.1040 O.2   553  VAL553     -0.2864
    114  CB       109.9190  136.0070  118.4560 C.3   553  VAL553      0.0276
    115  CG1      109.6590  135.3420  119.7680 C.3   553  VAL553      0.0022
    116  CG2      110.9800  137.0720  118.6280 C.3   553  VAL553      0.0022
    117  N        122.4460  130.9830  115.2060 N.3   594  LYS594     -0.1245
    118  CA       121.3960  131.9360  115.4780 C.3   594  LYS594      0.1561
    119  C        121.3200  132.7800  114.2150 C.2   594  LYS594      0.2260
    120  O        122.2310  133.5490  113.9110 O.2   594  LYS594     -0.2867
    121  CB       121.7490  132.7980  116.6880 C.3   594  LYS594      0.0271
    122  CG       123.0010  133.6410  116.5110 C.3   594  LYS594      0.0035
    123  CD       123.2780  134.4660  117.7560 C.3   594  LYS594      0.0206
    124  CE       124.5280  135.3150  117.5910 C.3   594  LYS594      0.1093
    125  NZ       125.7540  134.4790  117.4550 N.3   594  LYS594     -0.1314
    126  N        118.4160  135.0270  112.9340 N.3   596  ASN596     -0.1225
    127  CA       117.1300  135.7030  112.8820 C.3   596  ASN596      0.1785
    128  C        116.0040  134.9480  113.5920 C.2   596  ASN596      0.2597
    129  O        114.8600  135.3820  113.5630 O.2   596  ASN596     -0.2718
    130  CB       116.7350  135.9500  111.4220 C.3   596  ASN596      0.1169
    131  CG       117.4510  137.1390  110.8100 C.2   596  ASN596      0.2627
    132  OD1      117.9610  137.0590  109.6920 O.2   596  ASN596     -0.2716
    133  ND2      117.4800  138.2540  111.5320 N.am  596  ASN596     -0.0877
    134  N        116.3210  133.8230  114.2240 N.am  597  VAL597     -0.1966
    135  CA       115.2960  133.0480  114.9260 C.3   597  VAL597      0.1727
    136  C        115.5500  132.9610  116.4260 C.2   597  VAL597      0.2616
    137  O        116.5510  132.4000  116.8650 O.2   597  VAL597     -0.2715
    138  CB       115.1520  131.6200  114.3690 C.3   597  VAL597      0.0290
    139  CG1      113.9690  130.9140  115.0200 C.3   597  VAL597      0.0023
    140  CG2      114.9970  131.6460  112.8590 C.3   597  VAL597      0.0023
    141  N        114.6280  133.5150  117.2040 N.am  598  PHE598     -0.1974
    142  CA       114.7290  133.5080  118.6560 C.3   598  PHE598      0.1639
    143  C        113.6100  132.6710  119.2650 C.2   598  PHE598      0.2290
    144  O        112.4450  132.8540  118.9410 O.2   598  PHE598     -0.2864
    145  CB       114.6680  134.9360  119.1920 C.3   598  PHE598      0.0560
    146  CG       115.1170  135.0660  120.6160 C.ar  598  PHE598     -0.0200
    147  CD1      116.4580  134.9950  120.9420 C.ar  598  PHE598     -0.0042
    148  CD2      114.1970  135.2570  121.6280 C.ar  598  PHE598     -0.0042
    149  CE1      116.8740  135.1140  122.2520 C.ar  598  PHE598     -0.0003
    150  CE2      114.6040  135.3760  122.9390 C.ar  598  PHE598     -0.0003
    151  CZ       115.9450  135.3060  123.2520 C.ar  598  PHE598     -0.0000
@<TRIPOS>BOND
     1   103    97    1
     2   103   102    1
     3   132   131    2
     4    97    98    1
     5   131   130    1
     6   131   133   am
     7   102   101    1
     8   130   127    1
     9    98   101    1
    10    98    99    1
    11   100    99    2
    12    99   104   am
    13   140   138    1
    14   127   126    1
    15   127   128    1
    16   104   105    1
    17   108   109    1
    18   108   105    1
    19    94    93    1
    20    94    95    2
    21   129   128    2
    22   128   134   am
    23    93    92    1
    24    93    96    1
    25   105   106    1
    26   120   119    2
    27    89    88    2
    28   119   118    1
    29   134   135    1
    30    37    36    1
    31   138   135    1
    32   138   139    1
    33    35    34    2
    34   135   136    1
    35    88    87    1
    36   117   118    1
    37   106   107    2
    38   106   110   am
    39   118   121    1
    40    36    33    1
    41    36    38    1
    42    34    33    1
    43    34    39   am
    44   110   111    1
    45    33    32    1
    46    42    41    2
    47    87    90    1
    48    87    86    1
    49   136   137    2
    50   136   141   am
    51   122   121    1
    52   122   123    1
    53    40    39    1
    54    40    41    1
    55    40    43    1
    56    90    91    1
    57    80    79    2
    58    44    43    1
    59    44    45    1
    60   113   112    2
    61   141   142    1
    62    28    27    2
    63   112   111    1
    64   111   114    1
    65   125   124    1
    66    86    79   am
    67   124   123    1
    68    32    27   am
    69    79    78    1
    70    47    45   ar
    71    45    46   ar
    72    27    26    1
    73   114   116    1
    74   114   115    1
    75    77    78    1
    76   142   145    1
    77   142   143    1
    78    76    75    1
    79    78    81    1
    80   144   143    2
    81    19    18    2
    82   145   146    1
    83    26    29    1
    84    26    25    1
    85    75    74    1
    86    12    11    2
    87    29    30    1
    88    14    13    1
    89    81    82    1
    90    24    22   am
    91    74    73    1
    92    18    17    1
    93    82    83    1
    94    17    20    1
    95    17    16    1
    96    54    52    1
    97    53    52    1
    98    21    20    1
    99    21    22    1
   100    25    31    1
   101    72    73    1
   102    72    69    1
   103    60    61    1
   104    60    59    1
   105   146   147   ar
   106   146   148   ar
   107    22    23    2
   108    11    16   am
   109    11    10    1
   110    61    55    1
   111   147   149   ar
   112    52    49    1
   113    30    31    1
   114    69    70    1
   115    69    68    1
   116    13    10    1
   117    13    15    1
   118    10     9    1
   119   148   150   ar
   120    83    85   ar
   121    83    84   ar
   122    49    48    1
   123    49    50    1
   124    71    70    2
   125    59    56    1
   126    55    50   am
   127    55    56    1
   128    58    57    2
   129   149   151   ar
   130    68    64   am
   131    65    64    2
   132    50    51    2
   133     4     3    2
   134    56    57    1
   135    64    63    1
   136    57    62   am
   137   150   151   ar
   138     9     3   am
   139     3     2    1
   140    62    63    1
   141    63    66    1
   142     2     1    1
   143     2     5    1
   144    66    67    1
   145     5     6    1
   146     8     6    1
   147     6     7    1
