@<TRIPOS>MOLECULE
tmp/5ftmD01.pdb
 112 107 0 0 0
SMALL
GASTEIGER

@<TRIPOS>ATOM
      1  N        134.0620   68.3010   84.8750 N.3   185  ASP185     -0.1225
      2  CA       133.9310   69.7420   84.9590 C.3   185  ASP185      0.1805
      3  C        132.9040   70.1630   85.9690 C.2   185  ASP185      0.2598
      4  O        132.5830   71.3440   86.0510 O.2   185  ASP185     -0.2718
      5  CB       133.5880   70.3250   83.5970 C.3   185  ASP185      0.1424
      6  CG       134.7410   70.2430   82.6400 C.2   185  ASP185      0.3668
      7  OD1      135.8530   69.9200   83.0930 O.co2 185  ASP185     -0.2456
      8  OD2      134.5550   70.5350   81.4440 O.co2 185  ASP185     -0.2456
      9  N        132.3730   69.2150   86.7140 N.am  186  ILE186     -0.1966
     10  CA       131.3550   69.4490   87.7160 C.3   186  ILE186      0.1727
     11  C        131.8960   68.9210   89.0220 C.2   186  ILE186      0.2616
     12  O        132.4970   67.8480   89.0580 O.2   186  ILE186     -0.2715
     13  CB       130.0510   68.7310   87.3420 C.3   186  ILE186      0.0290
     14  CG1      129.5750   69.1930   85.9820 C.3   186  ILE186      0.0022
     15  CG2      128.9890   69.0360   88.3290 C.3   186  ILE186      0.0023
     16  CD1      128.4970   68.3620   85.4590 C.3   186  ILE186      0.0001
     17  N        131.6730   69.6530   90.0970 N.am  187  GLY187     -0.1955
     18  CA       132.1480   69.2180   91.3970 C.3   187  GLY187      0.1869
     19  C        131.2160   69.6690   92.4900 C.2   187  GLY187      0.2309
     20  O        130.4680   70.6350   92.3330 O.2   187  GLY187     -0.2863
     21  N        128.7080   68.0250   93.2930 N.3   189  CYS189     -0.1235
     22  CA       127.4400   67.4060   92.9370 C.3   189  CYS189      0.1677
     23  C        127.4830   65.8890   92.9320 C.2   189  CYS189      0.2270
     24  O        126.5350   65.2760   92.4380 O.2   189  CYS189     -0.2867
     25  CB       126.9720   67.9030   91.5760 C.3   189  CYS189      0.0956
     26  SG       126.6130   69.6460   91.5340 S.3   189  CYS189     -0.0801
     27  N        120.0440   80.0920   91.2170 N.3   227  PRO227     -0.2102
     28  CA       120.7920   80.3550   89.9890 C.3   227  PRO227      0.1504
     29  C        122.2860   80.2110   90.1860 C.2   227  PRO227      0.2576
     30  O        122.8130   80.4170   91.2720 O.2   227  PRO227     -0.2718
     31  CB       120.4290   81.7980   89.6630 C.3   227  PRO227      0.0282
     32  CG       119.1640   82.0070   90.3070 C.3   227  PRO227      0.0208
     33  CD       119.2190   81.2460   91.5800 C.3   227  PRO227      0.0893
     34  N        122.9730   79.8730   89.1030 N.am  228  GLY228     -0.1943
     35  CA       124.4020   79.6980   89.1550 C.3   228  GLY228      0.2014
     36  C        124.8590   78.4300   89.8140 C.2   228  GLY228      0.2640
     37  O        126.0290   78.3150   90.1580 O.2   228  GLY228     -0.2714
     38  N        123.9730   77.4640   89.9940 N.am  229  THR229     -0.1936
     39  CA       124.3110   76.2720   90.7490 C.3   229  THR229      0.2028
     40  C        124.8280   75.1610   89.8530 C.2   229  THR229      0.2643
     41  O        125.2710   74.1280   90.3510 O.2   229  THR229     -0.2714
     42  CB       123.0850   75.8260   91.5160 C.3   229  THR229      0.1808
     43  OG1      122.5580   76.9510   92.2040 O.3   229  THR229     -0.2208
     44  CG2      123.4560   74.8670   92.5530 C.3   229  THR229      0.0379
     45  N        124.8360   75.3650   88.5480 N.am  230  GLY230     -0.1939
     46  CA       125.3230   74.3610   87.6400 C.3   230  GLY230      0.2014
     47  C        124.2830   73.4890   86.9980 C.2   230  GLY230      0.2639
     48  O        124.6100   72.3770   86.6030 O.2   230  GLY230     -0.2714
     49  N        123.0370   73.9400   86.9070 N.am  231  LYS231     -0.1963
     50  CA       121.9970   73.1360   86.2810 C.3   231  LYS231      0.1728
     51  C        122.2590   72.9390   84.8040 C.2   231  LYS231      0.2617
     52  O        122.1770   71.8220   84.2970 O.2   231  LYS231     -0.2715
     53  CB       120.6420   73.7910   86.4920 C.3   231  LYS231      0.0311
     54  CG       120.1550   73.7270   87.9060 C.3   231  LYS231      0.0038
     55  CD       118.8290   74.4010   88.0370 C.3   231  LYS231      0.0206
     56  CE       118.9430   75.8700   87.8500 C.3   231  LYS231      0.1093
     57  NZ       119.7640   76.4020   88.9390 N.3   231  LYS231     -0.1314
     58  N        122.5680   74.0150   84.0930 N.am  232  THR232     -0.1937
     59  CA       122.8020   73.9150   82.6600 C.3   232  THR232      0.2028
     60  C        124.0830   73.1630   82.3750 C.2   232  THR232      0.2642
     61  O        124.2200   72.5220   81.3330 O.2   232  THR232     -0.2714
     62  CB       122.8690   75.3070   82.0590 C.3   232  THR232      0.1808
     63  OG1      121.6600   75.9980   82.3660 O.3   232  THR232     -0.2208
     64  CG2      122.9990   75.2340   80.5790 C.3   232  THR232      0.0379
     65  N        125.0310   73.2390   83.2920 N.am  233  LEU233     -0.1977
     66  CA       126.2730   72.5070   83.1490 C.3   233  LEU233      0.1596
     67  C        126.0330   71.0170   83.2670 C.2   233  LEU233      0.2287
     68  O        126.4700   70.2380   82.4180 O.2   233  LEU233     -0.2864
     69  CB       127.2370   72.9810   84.2170 C.3   233  LEU233      0.0297
     70  CG       128.6170   72.3900   84.3250 C.3   233  LEU233      0.0022
     71  CD1      129.3790   72.7620   83.1040 C.3   233  LEU233      0.0001
     72  CD2      129.2320   72.9810   85.5330 C.3   233  LEU233      0.0001
     73  N        135.0780   72.5330   93.5570 N.3   360  ILE360     -0.1245
     74  CA       134.8620   73.4890   92.4790 C.3   360  ILE360      0.1561
     75  C        136.1000   74.3350   92.2650 C.2   360  ILE360      0.2260
     76  O        136.5720   74.4880   91.1370 O.2   360  ILE360     -0.2867
     77  CB       133.6500   74.3770   92.7820 C.3   360  ILE360      0.0252
     78  CG1      132.3690   73.5860   92.7430 C.3   360  ILE360      0.0019
     79  CG2      133.5580   75.4860   91.8010 C.3   360  ILE360      0.0019
     80  CD1      131.2250   74.3820   93.1980 C.3   360  ILE360      0.0001
     81  N        138.6060   73.0700   90.1160 N.3   363  ILE363     -0.1231
     82  CA       138.2570   72.9010   88.7110 C.3   363  ILE363      0.1692
     83  C        138.5250   74.1800   87.9340 C.2   363  ILE363      0.2592
     84  O        139.0080   74.1490   86.7990 O.2   363  ILE363     -0.2718
     85  CB       136.7950   72.4530   88.5700 C.3   363  ILE363      0.0266
     86  CG1      136.6280   71.0420   89.1050 C.3   363  ILE363      0.0019
     87  CG2      136.3480   72.5420   87.1360 C.3   363  ILE363      0.0020
     88  CD1      135.2190   70.6460   89.2540 C.3   363  ILE363      0.0001
     89  N        138.2330   75.3230   88.5290 N.am  364  HIS364     -0.1976
     90  CA       138.5500   76.5280   87.7870 C.3   364  HIS364      0.1656
     91  C        139.9360   77.0350   88.0830 C.2   364  HIS364      0.2291
     92  O        140.3420   78.0480   87.5140 O.2   364  HIS364     -0.2864
     93  CB       137.5220   77.6160   88.0740 C.3   364  HIS364      0.0771
     94  CG       136.1370   77.2350   87.6680 C.ar  364  HIS364      0.0820
     95  ND1      135.2470   76.6550   88.5370 N.ar  364  HIS364     -0.2267
     96  CD2      135.5190   77.2790   86.4680 C.ar  364  HIS364      0.1154
     97  CE1      134.1250   76.3940   87.8990 C.ar  364  HIS364      0.1986
     98  NE2      134.2650   76.7620   86.6430 N.ar  364  HIS364     -0.2212
     99  N        128.3590   77.8140   92.4850 N.3   388  GLY388     -0.1210
    100  CA       129.5140   77.5430   91.6610 C.3   388  GLY388      0.1956
    101  C        129.9140   78.7210   90.8080 C.2   388  GLY388      0.2611
    102  O        131.0910   78.9280   90.5400 O.2   388  GLY388     -0.2717
    103  N        128.9390   79.5070   90.3670 N.am  389  ALA389     -0.1979
    104  CA       129.2260   80.5780   89.4260 C.3   389  ALA389      0.1597
    105  C        129.8050   81.7900   90.1190 C.2   389  ALA389      0.2287
    106  O        130.5190   82.5730   89.4970 O.2   389  ALA389     -0.2864
    107  CB       127.9720   80.9630   88.6650 C.3   389  ALA389      0.0319
    108  N        133.5100   80.6120   90.5810 N.3   392  ALA392     -0.1245
    109  CA       134.2750   80.6960   89.3570 C.3   392  ALA392      0.1562
    110  C        134.7150   82.1090   89.0560 C.2   392  ALA392      0.2260
    111  O        135.8620   82.3150   88.6600 O.2   392  ALA392     -0.2867
    112  CB       133.4490   80.1700   88.1940 C.3   392  ALA392      0.0290
@<TRIPOS>BOND
     1    64    62    1
     2    61    60    2
     3     8     6   ar
     4    62    63    1
     5    62    59    1
     6    60    59    1
     7    60    65   am
     8    68    67    2
     9     6     7   ar
    10     6     5    1
    11    59    58    1
    12    71    70    1
    13    66    67    1
    14    66    65    1
    15    66    69    1
    16     5     2    1
    17    58    51   am
    18    69    70    1
    19    52    51    2
    20    70    72    1
    21    51    50    1
    22     1     2    1
    23     2     3    1
    24    16    14    1
    25     3     4    2
    26     3     9   am
    27    14    13    1
    28    50    53    1
    29    50    49    1
    30    96    98   ar
    31    96    94   ar
    32    53    54    1
    33    48    47    2
    34    98    97   ar
    35     9    10    1
    36    84    83    2
    37    49    47   am
    38    47    46    1
    39    87    85    1
    40    13    10    1
    41    13    15    1
    42    92    91    2
    43    46    45    1
    44    94    93    1
    45    94    95   ar
    46    10    11    1
    47    90    93    1
    48    90    91    1
    49    90    89    1
    50    56    55    1
    51    56    57    1
    52    97    95   ar
    53    54    55    1
    54    83    89   am
    55    83    82    1
    56   112   109    1
    57    45    40   am
    58    85    82    1
    59    85    86    1
    60   111   110    2
    61   107   104    1
    62    82    81    1
    63    11    12    2
    64    11    17   am
    65   110   109    1
    66    34    35    1
    67    34    29   am
    68    86    88    1
    69    35    36    1
    70   109   108    1
    71   104   105    1
    72   104   103    1
    73   106   105    2
    74    31    28    1
    75    31    32    1
    76    36    38   am
    77    36    37    2
    78    40    41    2
    79    40    39    1
    80    28    29    1
    81    28    27    1
    82    38    39    1
    83    17    18    1
    84    29    30    2
    85    32    33    1
    86   103   101   am
    87   102   101    2
    88    39    42    1
    89   101   100    1
    90    76    75    2
    91    27    33    1
    92    18    19    1
    93    42    43    1
    94    42    44    1
    95    26    25    1
    96    25    22    1
    97   100    99    1
    98    79    77    1
    99    75    74    1
   100    20    19    2
   101    24    23    2
   102    74    77    1
   103    74    73    1
   104    78    77    1
   105    78    80    1
   106    23    22    1
   107    22    21    1
