@<TRIPOS>MOLECULE
tmp/5ftnF00.pdb
 138 133 0 0 0
SMALL
GASTEIGER

@<TRIPOS>ATOM
      1  N         51.8950   69.8410   84.1570 N.3   194  ASP194     -0.1225
      2  CA        53.1560   69.2250   84.5280 C.3   194  ASP194      0.1805
      3  C         53.8270   69.9660   85.6640 C.2   194  ASP194      0.2598
      4  O         54.6240   69.3810   86.3970 O.2   194  ASP194     -0.2718
      5  CB        54.0730   69.1540   83.3140 C.3   194  ASP194      0.1424
      6  CG        53.6680   68.0560   82.3510 C.2   194  ASP194      0.3668
      7  OD1       52.9870   67.1080   82.7900 O.co2 194  ASP194     -0.2456
      8  OD2       54.0060   68.1520   81.1530 O.co2 194  ASP194     -0.2456
      9  N         53.5190   71.2450   85.8240 N.am  195  ILE195     -0.1966
     10  CA        54.0290   71.9830   86.9580 C.3   195  ILE195      0.1727
     11  C         53.1590   71.6810   88.1630 C.2   195  ILE195      0.2617
     12  O         51.9340   71.5660   88.0550 O.2   195  ILE195     -0.2715
     13  CB        54.0730   73.4850   86.6340 C.3   195  ILE195      0.0290
     14  CG1       54.8370   74.2450   87.7030 C.3   195  ILE195      0.0022
     15  CG2       52.7110   74.0540   86.5320 C.3   195  ILE195      0.0023
     16  CD1       56.3140   73.9680   87.6890 C.3   195  ILE195      0.0001
     17  N         53.7840   71.5260   89.3130 N.am  196  GLY196     -0.1940
     18  CA        53.0410   71.3480   90.5450 C.3   196  GLY196      0.2014
     19  C         53.8300   71.9280   91.6890 C.2   196  GLY196      0.2639
     20  O         55.0580   71.9900   91.6490 O.2   196  GLY196     -0.2714
     21  N         53.1230   72.3500   92.7170 N.am  197  GLY197     -0.1939
     22  CA        53.7380   73.0350   93.8210 C.3   197  GLY197      0.2014
     23  C         53.6750   74.5460   93.7490 C.2   197  GLY197      0.2639
     24  O         53.8860   75.2040   94.7700 O.2   197  GLY197     -0.2714
     25  N         53.4360   75.1210   92.5700 N.am  198  CYS198     -0.1967
     26  CA        53.1980   76.5550   92.4610 C.3   198  CYS198      0.1712
     27  C         51.8000   76.7910   91.9130 C.2   198  CYS198      0.2296
     28  O         51.6070   76.8110   90.6960 O.2   198  CYS198     -0.2864
     29  CB        54.2270   77.1940   91.5330 C.3   198  CYS198      0.0983
     30  SG        55.9360   77.0690   92.0370 S.3   198  CYS198     -0.0798
     31  N         68.3610   76.9840   91.9010 N.3   236  PRO236     -0.2102
     32  CA        68.4270   76.0400   90.7860 C.3   236  PRO236      0.1504
     33  C         67.4080   74.9300   90.9560 C.2   236  PRO236      0.2576
     34  O         67.0160   74.6060   92.0720 O.2   236  PRO236     -0.2718
     35  CB        69.8500   75.5050   90.8710 C.3   236  PRO236      0.0282
     36  CG        70.5900   76.5710   91.5110 C.3   236  PRO236      0.0208
     37  CD        69.6830   77.2060   92.4910 C.3   236  PRO236      0.0893
     38  N         66.9660   74.3720   89.8430 N.am  237  GLY237     -0.1943
     39  CA        66.1410   73.1950   89.8350 C.3   237  GLY237      0.2014
     40  C         64.7190   73.3580   90.2960 C.2   237  GLY237      0.2640
     41  O         64.0460   72.3510   90.4940 O.2   237  GLY237     -0.2714
     42  N         64.2300   74.5740   90.4650 N.am  238  THR238     -0.1936
     43  CA        62.9030   74.7970   91.0140 C.3   238  THR238      0.2028
     44  C         61.8180   74.8740   89.9620 C.2   238  THR238      0.2643
     45  O         60.6800   75.1980   90.2950 O.2   238  THR238     -0.2714
     46  CB        62.8760   76.0690   91.8440 C.3   238  THR238      0.1808
     47  OG1       63.3790   77.1430   91.0570 O.3   238  THR238     -0.2208
     48  CG2       63.7140   75.9210   93.0690 C.3   238  THR238      0.0379
     49  N         62.1320   74.6030   88.7060 N.am  239  GLY239     -0.1939
     50  CA        61.1350   74.6650   87.6620 C.3   239  GLY239      0.2014
     51  C         60.8740   76.0370   87.1010 C.2   239  GLY239      0.2639
     52  O         59.7390   76.3510   86.7580 O.2   239  GLY239     -0.2714
     53  N         61.9040   76.8620   86.9760 N.am  240  LYS240     -0.1963
     54  CA        61.7460   78.1430   86.3040 C.3   240  LYS240      0.1728
     55  C         61.6230   77.9320   84.8100 C.2   240  LYS240      0.2617
     56  O         60.6290   78.3100   84.1980 O.2   240  LYS240     -0.2715
     57  CB        62.9250   79.0520   86.6170 C.3   240  LYS240      0.0311
     58  CG        63.0270   79.4510   88.0430 C.3   240  LYS240      0.0038
     59  CD        64.1810   80.3530   88.2550 C.3   240  LYS240      0.0206
     60  CE        65.4740   79.6590   88.0100 C.3   240  LYS240      0.1093
     61  NZ        65.6960   78.6110   89.0080 N.3   240  LYS240     -0.1314
     62  N         62.6000   77.2550   84.2390 N.am  241  THR241     -0.1937
     63  CA        62.5830   76.9960   82.8220 C.3   241  THR241      0.2028
     64  C         61.3170   76.2270   82.4950 C.2   241  THR241      0.2642
     65  O         60.7620   76.3780   81.4090 O.2   241  THR241     -0.2714
     66  CB        63.8010   76.1650   82.3880 C.3   241  THR241      0.1808
     67  OG1       65.0040   76.8000   82.8390 O.3   241  THR241     -0.2208
     68  CG2       63.8420   76.0290   80.8750 C.3   241  THR241      0.0379
     69  N         60.8630   75.3870   83.4190 N.am  242  LEU242     -0.1977
     70  CA        59.6810   74.5820   83.1350 C.3   242  LEU242      0.1596
     71  C         58.4470   75.4530   82.9770 C.2   242  LEU242      0.2287
     72  O         57.6180   75.2050   82.1010 O.2   242  LEU242     -0.2864
     73  CB        59.4680   73.5560   84.2380 C.3   242  LEU242      0.0297
     74  CG        58.3040   72.6040   84.0420 C.3   242  LEU242      0.0022
     75  CD1       58.5990   71.7530   82.8590 C.3   242  LEU242      0.0001
     76  CD2       58.1070   71.7440   85.2580 C.3   242  LEU242      0.0001
     77  N         66.3320   83.7230   86.2240 N.3   336  THR336     -0.1203
     78  CA        67.6690   83.7340   86.7770 C.3   336  THR336      0.1994
     79  C         67.6340   83.1090   88.1540 C.2   336  THR336      0.2617
     80  O         66.6410   83.2120   88.8640 O.2   336  THR336     -0.2717
     81  CB        68.2120   85.1540   86.8400 C.3   336  THR336      0.1784
     82  OG1       69.5470   85.1340   87.3410 O.3   336  THR336     -0.2211
     83  CG2       67.3630   85.9860   87.7250 C.3   336  THR336      0.0376
     84  N         68.7070   82.4310   88.5200 N.am  337  ASN337     -0.1974
     85  CA        68.8360   81.9700   89.8870 C.3   337  ASN337      0.1688
     86  C         69.7060   82.8770   90.7360 C.2   337  ASN337      0.2292
     87  O         69.8310   82.6360   91.9350 O.2   337  ASN337     -0.2864
     88  CB        69.3620   80.5400   89.9280 C.3   337  ASN337      0.1181
     89  CG        70.6250   80.3700   89.1840 C.2   337  ASN337      0.2629
     90  OD1       71.3950   81.3000   89.0320 O.2   337  ASN337     -0.2716
     91  ND2       70.8680   79.1650   88.7180 N.am  337  ASN337     -0.0877
     92  N         59.6360   74.1880   97.3930 N.3   361  PRO361     -0.2116
     93  CA        58.2940   73.7730   97.7750 C.3   361  PRO361      0.1372
     94  C         58.2780   73.1690   99.1650 C.2   361  PRO361      0.2244
     95  O         59.2700   72.6440   99.6580 O.2   361  PRO361     -0.2868
     96  CB        57.9490   72.7320   96.7130 C.3   361  PRO361      0.0268
     97  CG        59.2280   72.1800   96.3470 C.3   361  PRO361      0.0207
     98  CD        60.1790   73.3180   96.3470 C.3   361  PRO361      0.0892
     99  N         54.4480   67.2930   93.4110 N.3   369  ILE369     -0.1245
    100  CA        55.4530   67.0000   92.3980 C.3   369  ILE369      0.1561
    101  C         55.6410   65.4980   92.2610 C.2   369  ILE369      0.2260
    102  O         55.6080   64.9550   91.1560 O.2   369  ILE369     -0.2867
    103  CB        56.7790   67.6880   92.7360 C.3   369  ILE369      0.0252
    104  CG1       56.6050   69.1890   92.8020 C.3   369  ILE369      0.0019
    105  CG2       57.7950   67.3750   91.6990 C.3   369  ILE369      0.0019
    106  CD1       57.8370   69.8890   93.2550 C.3   369  ILE369      0.0001
    107  N         53.2360   64.0430   90.0130 N.3   372  ILE372     -0.1231
    108  CA        53.3960   64.3620   88.6030 C.3   372  ILE372      0.1692
    109  C         54.5220   63.5490   87.9890 C.2   372  ILE372      0.2592
    110  O         54.5180   63.2690   86.7870 O.2   372  ILE372     -0.2718
    111  CB        53.6110   65.8720   88.4370 C.3   372  ILE372      0.0266
    112  CG1       52.3490   66.6090   88.8410 C.3   372  ILE372      0.0019
    113  CG2       53.8960   66.2240   87.0210 C.3   372  ILE372      0.0020
    114  CD1       52.4960   68.0710   88.8810 C.3   372  ILE372      0.0001
    115  N         55.5030   63.1450   88.7940 N.am  373  HIS373     -0.1976
    116  CA        56.5690   62.3100   88.2550 C.3   373  HIS373      0.1656
    117  C         56.1720   60.8550   88.1250 C.2   373  HIS373      0.2291
    118  O         56.3950   60.2470   87.0770 O.2   373  HIS373     -0.2864
    119  CB        57.8150   62.4200   89.1080 C.3   373  HIS373      0.0771
    120  CG        58.6180   63.6350   88.8160 C.ar  373  HIS373      0.0820
    121  ND1       58.3110   64.8720   89.3310 N.ar  373  HIS373     -0.2267
    122  CD2       59.7100   63.8070   88.0370 C.ar  373  HIS373      0.1154
    123  CE1       59.1860   65.7540   88.8910 C.ar  373  HIS373      0.1986
    124  NE2       60.0460   65.1330   88.1090 N.ar  373  HIS373     -0.2212
    125  N         62.2200   70.6350   93.0410 N.3   397  GLY397     -0.1210
    126  CA        61.5860   69.8050   92.0390 C.3   397  GLY397      0.1956
    127  C         62.5260   68.9000   91.2770 C.2   397  GLY397      0.2611
    128  O         62.1420   67.7880   90.9190 O.2   397  GLY397     -0.2717
    129  N         63.7420   69.3440   91.0150 N.am  398  ALA398     -0.1979
    130  CA        64.6930   68.5500   90.2620 C.3   398  ALA398      0.1597
    131  C         65.3610   67.4810   91.0950 C.2   398  ALA398      0.2287
    132  O         66.0230   66.6120   90.5330 O.2   398  ALA398     -0.2864
    133  CB        65.7650   69.4450   89.6630 C.3   398  ALA398      0.0319
    134  N         62.8410   64.6220   91.0040 N.3   401  ALA401     -0.1245
    135  CA        63.0080   63.9510   89.7270 C.3   401  ALA401      0.1562
    136  C         64.1320   62.9340   89.7900 C.2   401  ALA401      0.2260
    137  O         63.9860   61.8100   89.3080 O.2   401  ALA401     -0.2867
    138  CB        63.2850   64.9730   88.6370 C.3   401  ALA401      0.0290
@<TRIPOS>BOND
     1    68    66    1
     2     8     6   ar
     3    65    64    2
     4    72    71    2
     5     6     7   ar
     6     6     5    1
     7    66    63    1
     8    66    67    1
     9    64    63    1
    10    64    69   am
    11    63    62    1
    12    75    74    1
    13    71    70    1
    14    70    69    1
    15    70    73    1
    16     5     2    1
    17    74    73    1
    18    74    76    1
    19     1     2    1
    20    56    55    2
    21    62    55   am
    22     2     3    1
    23    55    54    1
    24     3     9   am
    25     3     4    2
    26     9    10    1
    27    77    78    1
    28    54    57    1
    29    54    53    1
    30    15    13    1
    31    57    58    1
    32    13    10    1
    33    13    14    1
    34    52    51    2
    35    78    81    1
    36    78    79    1
    37   110   109    2
    38    81    82    1
    39    81    83    1
    40    10    11    1
    41    53    51   am
    42   113   111    1
    43   118   117    2
    44    51    50    1
    45    50    49    1
    46    16    14    1
    47   109   108    1
    48   109   115   am
    49    60    59    1
    50    60    61    1
    51   122   124   ar
    52   122   120   ar
    53    58    59    1
    54    12    11    2
    55   124   123   ar
    56   117   116    1
    57    79    84   am
    58    79    80    2
    59    11    17   am
    60   116   115    1
    61   116   119    1
    62   111   108    1
    63   111   112    1
    64    84    85    1
    65   108   107    1
    66   138   135    1
    67    49    44   am
    68    91    89   am
    69   120   119    1
    70   120   121   ar
    71   112   114    1
    72   123   121   ar
    73    90    89    2
    74    89    88    1
    75   137   136    2
    76    17    18    1
    77   133   130    1
    78   135   136    1
    79   135   134    1
    80    39    38    1
    81    39    40    1
    82    38    33   am
    83    85    88    1
    84    85    86    1
    85    44    45    2
    86    44    43    1
    87   130   129    1
    88   130   131    1
    89    40    42   am
    90    40    41    2
    91    42    43    1
    92   132   131    2
    93    18    19    1
    94    28    27    2
    95    86    87    2
    96    32    35    1
    97    32    33    1
    98    32    31    1
    99    35    36    1
   100   128   127    2
   101    33    34    2
   102    43    46    1
   103   129   127   am
   104    47    46    1
   105   102   101    2
   106   127   126    1
   107    36    37    1
   108    29    30    1
   109    29    26    1
   110    20    19    2
   111    19    21   am
   112   105   103    1
   113    46    48    1
   114    31    37    1
   115    27    26    1
   116   126   125    1
   117   101   100    1
   118   100   103    1
   119   100    99    1
   120    26    25    1
   121    25    23   am
   122    21    22    1
   123   103   104    1
   124   104   106    1
   125    23    22    1
   126    23    24    2
   127    97    98    1
   128    97    96    1
   129    98    92    1
   130    96    93    1
   131    92    93    1
   132    93    94    1
   133    94    95    2
