@<TRIPOS>MOLECULE
tmp/5ftnF01.pdb
 142 134 0 0 0
SMALL
GASTEIGER

@<TRIPOS>ATOM
      1  N         51.9040   70.5820  121.8370 N.3   467  ASP467     -0.1225
      2  CA        53.2370   70.0510  122.0320 C.3   467  ASP467      0.1805
      3  C         53.9360   70.6790  123.2240 C.2   467  ASP467      0.2598
      4  O         55.1010   70.3710  123.4710 O.2   467  ASP467     -0.2718
      5  CB        54.0500   70.3060  120.7700 C.3   467  ASP467      0.1424
      6  CG        53.4190   69.6830  119.5450 C.2   467  ASP467      0.3668
      7  OD1       52.6720   68.6970  119.6900 O.co2 467  ASP467     -0.2456
      8  OD2       53.6020   70.2220  118.4390 O.co2 467  ASP467     -0.2456
      9  N         53.2560   71.5500  123.9620 N.am  468  ILE468     -0.1966
     10  CA        53.8770   72.4250  124.9490 C.3   468  ILE468      0.1727
     11  C         53.1490   72.2540  126.2680 C.2   468  ILE468      0.2616
     12  O         51.9470   72.5290  126.3550 O.2   468  ILE468     -0.2715
     13  CB        53.8210   73.8910  124.5010 C.3   468  ILE468      0.0290
     14  CG1       54.6150   74.0970  123.2160 C.3   468  ILE468      0.0022
     15  CG2       54.3040   74.8020  125.6010 C.3   468  ILE468      0.0023
     16  CD1       54.3530   75.4160  122.5950 C.3   468  ILE468      0.0001
     17  N         53.8510   71.7780  127.2860 N.am  469  GLY469     -0.1955
     18  CA        53.2670   71.6780  128.6030 C.3   469  GLY469      0.1869
     19  C         53.4010   72.9630  129.3970 C.2   469  GLY469      0.2309
     20  O         54.4470   73.5950  129.4100 O.2   469  GLY469     -0.2863
     21  N         53.0130   76.7910  130.7580 N.3   471  LEU471     -0.1245
     22  CA        53.1670   78.1110  130.1530 C.3   471  LEU471      0.1561
     23  C         51.8420   78.6310  129.6070 C.2   471  LEU471      0.2260
     24  O         51.7400   78.9620  128.4300 O.2   471  LEU471     -0.2867
     25  CB        54.2290   78.0830  129.0500 C.3   471  LEU471      0.0270
     26  CG        55.6710   77.7460  129.4380 C.3   471  LEU471      0.0019
     27  CD1       56.5180   77.5030  128.2100 C.3   471  LEU471      0.0001
     28  CD2       56.2820   78.8480  130.2640 C.3   471  LEU471      0.0001
     29  N         68.0360   77.7900  130.3790 N.3   509  PRO509     -0.2102
     30  CA        68.0590   76.9170  129.2070 C.3   509  PRO509      0.1504
     31  C         67.0290   75.8060  129.2890 C.2   509  PRO509      0.2576
     32  O         66.7630   75.2340  130.3390 O.2   509  PRO509     -0.2718
     33  CB        69.4730   76.3450  129.2330 C.3   509  PRO509      0.0282
     34  CG        70.2620   77.3270  129.9500 C.3   509  PRO509      0.0208
     35  CD        69.3660   77.9020  130.9920 C.3   509  PRO509      0.0893
     36  N         66.4550   75.4840  128.1410 N.am  510  GLY510     -0.1943
     37  CA        65.6440   74.3000  128.0090 C.3   510  GLY510      0.2014
     38  C         64.2140   74.4410  128.4590 C.2   510  GLY510      0.2639
     39  O         63.5250   73.4430  128.6530 O.2   510  GLY510     -0.2714
     40  N         63.7430   75.6640  128.6280 N.am  511  CYS511     -0.1953
     41  CA        62.4020   75.9030  129.1310 C.3   511  CYS511      0.1843
     42  C         61.3600   76.1480  128.0480 C.2   511  CYS511      0.2626
     43  O         60.2320   76.5020  128.3790 O.2   511  CYS511     -0.2714
     44  CB        62.4220   77.0590  130.1050 C.3   511  CYS511      0.0997
     45  SG        63.3390   76.6250  131.5500 S.3   511  CYS511     -0.0797
     46  N         61.6910   75.9840  126.7780 N.am  512  GLY512     -0.1940
     47  CA        60.7030   76.0850  125.7310 C.3   512  GLY512      0.2014
     48  C         60.6540   77.3580  124.9140 C.2   512  GLY512      0.2639
     49  O         59.6280   77.6110  124.2840 O.2   512  GLY512     -0.2714
     50  N         61.7120   78.1670  124.9050 N.am  513  LYS513     -0.1963
     51  CA        61.6540   79.4360  124.1880 C.3   513  LYS513      0.1728
     52  C         61.4900   79.2550  122.6840 C.2   513  LYS513      0.2617
     53  O         60.8710   80.0970  122.0330 O.2   513  LYS513     -0.2715
     54  CB        62.8900   80.2730  124.4910 C.3   513  LYS513      0.0311
     55  CG        62.8970   80.8440  125.8800 C.3   513  LYS513      0.0038
     56  CD        64.0780   81.7440  126.1180 C.3   513  LYS513      0.0206
     57  CE        65.3760   80.9930  126.1280 C.3   513  LYS513      0.1093
     58  NZ        65.4620   80.0550  127.2650 N.3   513  LYS513     -0.1314
     59  N         62.0840   78.1960  122.1430 N.am  514  THR514     -0.1937
     60  CA        61.9570   77.8590  120.7280 C.3   514  THR514      0.2028
     61  C         60.5470   77.3710  120.3700 C.2   514  THR514      0.2642
     62  O         60.0080   77.7160  119.3210 O.2   514  THR514     -0.2714
     63  CB        62.9980   76.8130  120.2850 C.3   514  THR514      0.1808
     64  OG1       64.3130   77.3690  120.4000 O.3   514  THR514     -0.2208
     65  CG2       62.7580   76.4100  118.8430 C.3   514  THR514      0.0379
     66  N         59.9630   76.5600  121.2530 N.am  515  LEU515     -0.1977
     67  CA        58.6410   75.9970  121.0430 C.3   515  LEU515      0.1596
     68  C         57.5600   77.0580  121.0950 C.2   515  LEU515      0.2287
     69  O         56.6060   76.9970  120.3210 O.2   515  LEU515     -0.2864
     70  CB        58.3700   74.9230  122.0810 C.3   515  LEU515      0.0297
     71  CG        59.2380   73.6990  121.8940 C.3   515  LEU515      0.0022
     72  CD1       59.0920   72.8040  123.0690 C.3   515  LEU515      0.0001
     73  CD2       58.8020   72.9910  120.6470 C.3   515  LEU515      0.0001
     74  N         67.3760   83.5290  117.2390 N.3   566  ASP566     -0.1225
     75  CA        67.4950   82.5660  118.3150 C.3   566  ASP566      0.1805
     76  C         68.9400   82.5190  118.7700 C.2   566  ASP566      0.2597
     77  O         69.8590   82.7410  117.9850 O.2   566  ASP566     -0.2718
     78  CB        67.0150   81.1960  117.8540 C.3   566  ASP566      0.1424
     79  CG        66.8740   80.2300  118.9750 C.2   566  ASP566      0.3668
     80  OD1       67.0680   80.6300  120.1330 O.co2 566  ASP566     -0.2456
     81  OD2       66.5600   79.0640  118.6960 O.co2 566  ASP566     -0.2456
     82  N         69.1250   82.2210  120.0460 N.am  567  GLU567     -0.1979
     83  CA        70.4350   82.2180  120.6860 C.3   567  GLU567      0.1602
     84  C         71.1500   83.5400  120.4650 C.2   567  GLU567      0.2287
     85  O         72.2170   83.6050  119.8600 O.2   567  GLU567     -0.2864
     86  CB        71.3060   81.0890  120.1630 C.3   567  GLU567      0.0415
     87  CG        70.7770   79.7130  120.3770 C.3   567  GLU567      0.1163
     88  CD        71.6810   78.6740  119.7650 C.2   567  GLU567      0.3649
     89  OE1       72.6290   79.0570  119.0610 O.co2 567  GLU567     -0.2457
     90  OE2       71.4510   77.4730  119.9830 O.co2 567  GLU567     -0.2457
     91  N         69.2320   83.0900  126.7660 N.3   613  ASN613     -0.1240
     92  CA        69.3230   82.6140  128.1330 C.3   613  ASN613      0.1653
     93  C         70.4160   83.3040  128.9380 C.2   613  ASN613      0.2266
     94  O         70.6150   82.9590  130.1000 O.2   613  ASN613     -0.2867
     95  CB        69.4780   81.0990  128.1540 C.3   613  ASN613      0.1155
     96  CG        70.7450   80.6340  127.5530 C.2   613  ASN613      0.2627
     97  OD1       71.7930   81.2300  127.7390 O.2   613  ASN613     -0.2716
     98  ND2       70.6640   79.5520  126.8050 N.am  613  ASN613     -0.0877
     99  N         59.7570   75.0330  134.6740 N.3   637  PRO637     -0.2116
    100  CA        58.4200   74.5290  134.9510 C.3   637  PRO637      0.1372
    101  C         58.2710   74.2210  136.4280 C.2   637  PRO637      0.2244
    102  O         59.1880   73.7290  137.0850 O.2   637  PRO637     -0.2868
    103  CB        58.3380   73.2630  134.1000 C.3   637  PRO637      0.0268
    104  CG        59.7220   72.8290  133.9740 C.3   637  PRO637      0.0207
    105  CD        60.5520   74.0620  133.9110 C.3   637  PRO637      0.0892
    106  N         54.4600   68.5100  130.7710 N.3   645  ILE645     -0.1245
    107  CA        55.5810   68.2450  129.8760 C.3   645  ILE645      0.1561
    108  C         55.6670   66.7580  129.5740 C.2   645  ILE645      0.2260
    109  O         55.6110   66.3280  128.4180 O.2   645  ILE645     -0.2867
    110  CB        56.8850   68.7640  130.4940 C.3   645  ILE645      0.0252
    111  CG1       56.8980   70.2860  130.5050 C.3   645  ILE645      0.0019
    112  CG2       58.0620   68.2280  129.7580 C.3   645  ILE645      0.0019
    113  CD1       58.0570   70.8610  131.2240 C.3   645  ILE645      0.0001
    114  N         53.0780   65.3480  127.0600 N.3   648  ALA648     -0.1231
    115  CA        53.2030   65.6790  125.6480 C.3   648  ALA648      0.1694
    116  C         54.4060   65.0010  125.0170 C.2   648  ALA648      0.2592
    117  O         54.3570   64.6190  123.8480 O.2   648  ALA648     -0.2718
    118  CB        53.2890   67.1900  125.4750 C.3   648  ALA648      0.0304
    119  N         55.4920   64.8430  125.7660 N.am  649  ASN649     -0.1974
    120  CA        56.6600   64.1650  125.2200 C.3   649  ASN649      0.1688
    121  C         56.3850   62.6910  124.9520 C.2   649  ASN649      0.2292
    122  O         57.0970   62.0630  124.1640 O.2   649  ASN649     -0.2864
    123  CB        57.8420   64.3190  126.1710 C.3   649  ASN649      0.1181
    124  CG        58.4390   65.7010  126.1310 C.2   649  ASN649      0.2629
    125  OD1       59.2480   66.0120  125.2660 O.2   649  ASN649     -0.2716
    126  ND2       58.0280   66.5480  127.0460 N.am  649  ASN649     -0.0877
    127  N         62.3750   71.6180  130.9210 N.3   673  GLY673     -0.1210
    128  CA        61.7180   70.7550  129.9620 C.3   673  GLY673      0.1956
    129  C         62.6960   69.9640  129.1260 C.2   673  GLY673      0.2611
    130  O         62.3800   68.8690  128.6620 O.2   673  GLY673     -0.2717
    131  N         63.8880   70.5100  128.9090 N.am  674  ALA674     -0.1979
    132  CA        64.9480   69.7580  128.2690 C.3   674  ALA674      0.1597
    133  C         65.3950   68.5780  129.1040 C.2   674  ALA674      0.2287
    134  O         65.7350   67.5340  128.5440 O.2   674  ALA674     -0.2864
    135  CB        66.1430   70.6610  128.0000 C.3   674  ALA674      0.0319
    136  N         62.5040   65.7610  128.9220 N.3   677  THR677     -0.1218
    137  CA        62.5650   65.0720  127.6390 C.3   677  THR677      0.1862
    138  C         63.7520   64.1330  127.5870 C.2   677  THR677      0.2287
    139  O         63.6940   63.0940  126.9250 O.2   677  THR677     -0.2866
    140  CB        62.6340   66.0790  126.4870 C.3   677  THR677      0.1770
    141  OG1       61.4440   66.8690  126.4630 O.3   677  THR677     -0.2211
    142  CG2       62.7560   65.3830  125.1690 C.3   677  THR677      0.0375
@<TRIPOS>BOND
     1    74    75    1
     2    78    75    1
     3    78    79    1
     4    77    76    2
     5    75    76    1
     6     8     6   ar
     7    81    79   ar
     8    76    82   am
     9    65    63    1
    10    79    80   ar
    11    89    88   ar
    12    62    61    2
    13     6     7   ar
    14     6     5    1
    15    88    90   ar
    16    88    87    1
    17    85    84    2
    18    82    83    1
    19    86    87    1
    20    86    83    1
    21    63    64    1
    22    63    60    1
    23    69    68    2
    24    61    60    1
    25    61    66   am
    26    84    83    1
    27    73    71    1
    28    60    59    1
    29     5     2    1
    30    67    68    1
    31    67    66    1
    32    67    70    1
    33     1     2    1
    34    71    70    1
    35    71    72    1
    36     2     3    1
    37    53    52    2
    38    59    52   am
    39    16    14    1
    40    52    51    1
    41    14    13    1
    42     3     4    2
    43     3     9   am
    44   117   116    2
    45     9    10    1
    46   122   121    2
    47    51    54    1
    48    51    50    1
    49    49    48    2
    50    54    55    1
    51    13    10    1
    52    13    15    1
    53    50    48   am
    54    48    47    1
    55    10    11    1
    56   121   120    1
    57   116   115    1
    58   116   119   am
    59   142   140    1
    60   120   119    1
    61   120   123    1
    62   125   124    2
    63   118   115    1
    64   115   114    1
    65    47    46    1
    66    55    56    1
    67    56    57    1
    68    57    58    1
    69   124   123    1
    70   124   126   am
    71    11    12    2
    72    11    17   am
    73   141   140    1
    74   140   137    1
    75    91    92    1
    76    46    42   am
    77    98    96   am
    78   139   138    2
    79    17    18    1
    80    96    97    2
    81    96    95    1
    82   138   137    1
    83   137   136    1
    84   135   132    1
    85    37    36    1
    86    37    38    1
    87    42    43    2
    88    42    41    1
    89    92    95    1
    90    92    93    1
    91    36    31   am
    92    27    26    1
    93   132   131    1
    94   132   133    1
    95   109   108    2
    96    24    23    2
    97    38    40   am
    98    38    39    2
    99   134   133    2
   100    18    19    1
   101    40    41    1
   102   130   129    2
   103   131   129   am
   104    93    94    2
   105    25    26    1
   106    25    22    1
   107   129   128    1
   108    41    44    1
   109    30    33    1
   110    30    31    1
   111    30    29    1
   112    33    34    1
   113    31    32    2
   114    19    20    2
   115    26    28    1
   116   108   107    1
   117    23    22    1
   118   112   110    1
   119   107   110    1
   120   107   106    1
   121    34    35    1
   122   128   127    1
   123    44    45    1
   124    22    21    1
   125    29    35    1
   126   110   111    1
   127   111   113    1
   128   105   104    1
   129   105    99    1
   130   104   103    1
   131   103   100    1
   132    99   100    1
   133   100   101    1
   134   101   102    2
