@<TRIPOS>MOLECULE
tmp/5ftoA00.pdb
 182 173 0 0 0
SMALL
GASTEIGER

@<TRIPOS>ATOM
      1  N          1.6300   17.4920    0.7130 N.3    30  LEU30      -0.1231
      2  CA         1.9000   18.5420    1.6980 C.3    30  LEU30       0.1696
      3  C          3.2600   19.1750    1.4350 C.2    30  LEU30       0.2632
      4  O          3.3910   20.3950    1.4760 O.2    30  LEU30      -0.2714
      5  CB         1.8160   17.9980    3.1300 C.3    30  LEU30       0.0284
      6  CG         0.4330   17.6300    3.6820 C.3    30  LEU30       0.0019
      7  CD1        0.5700   16.8880    5.0050 C.3    30  LEU30       0.0001
      8  CD2       -0.4640   18.8550    3.8450 C.3    30  LEU30       0.0001
      9  N          4.2650   18.3420    1.1580 N.am   31  GLY31      -0.1718
     10  CA         5.5970   18.8230    0.7860 C.2    31  GLY31       0.1480
     11  C          6.7170   17.8130    0.9630 C.2    31  GLY31       0.2820
     12  O          6.5010   16.7060    1.4690 O.2    31  GLY31      -0.2669
     13  N          7.9180   18.2090    0.5420 N.am   32  HIS32      -0.1939
     14  CA         9.0970   17.3420    0.5770 C.3    32  HIS32       0.1659
     15  C         10.3220   18.0810    1.0530 C.2    32  HIS32       0.2291
     16  O         10.3800   19.3130    0.9840 O.2    32  HIS32      -0.2864
     17  CB         9.3500   16.7290   -0.7990 C.3    32  HIS32       0.0771
     18  CG         9.6440   17.7490   -1.8750 C.ar   32  HIS32       0.0820
     19  ND1       10.8930   18.1840   -2.1410 N.ar   32  HIS32      -0.2267
     20  CD2        8.7940   18.4280   -2.7520 C.ar   32  HIS32       0.1154
     21  CE1       10.8480   19.0890   -3.1390 C.ar   32  HIS32       0.1986
     22  NE2        9.5610   19.2380   -3.5100 N.ar   32  HIS32      -0.2212
     23  N         13.3400   15.6980    5.5240 N.3    35  PHE35      -0.1241
     24  CA        12.5020   14.7700    6.2780 C.3    35  PHE35       0.1605
     25  C         11.9500   13.6320    5.4100 C.2    35  PHE35       0.2264
     26  O         11.5090   12.6070    5.9310 O.2    35  PHE35      -0.2867
     27  CB        11.3430   15.5340    6.9320 C.3    35  PHE35       0.0534
     28  CG        10.6180   16.4590    5.9900 C.ar   35  PHE35      -0.0203
     29  CD1        9.5740   15.9910    5.1930 C.ar   35  PHE35      -0.0042
     30  CD2       10.9800   17.8030    5.8950 C.ar   35  PHE35      -0.0042
     31  CE1        8.9060   16.8440    4.3240 C.ar   35  PHE35      -0.0003
     32  CE2       10.3150   18.6580    5.0240 C.ar   35  PHE35      -0.0003
     33  CZ         9.2760   18.1770    4.2410 C.ar   35  PHE35      -0.0000
     34  N          5.8930   13.8850    2.3120 N.3    38  VAL38      -0.1245
     35  CA         4.6960   13.7930    3.1600 C.3    38  VAL38       0.1561
     36  C          3.4120   14.1760    2.4280 C.2    38  VAL38       0.2260
     37  O          3.3780   15.1570    1.6760 O.2    38  VAL38      -0.2867
     38  CB         4.8110   14.6560    4.4460 C.3    38  VAL38       0.0252
     39  CG1        3.7570   14.2520    5.4660 C.3    38  VAL38       0.0019
     40  CG2        6.1890   14.5250    5.0690 C.3    38  VAL38       0.0019
     41  N         -0.9630   11.8720    8.4430 N.3    52  ALA52      -0.1245
     42  CA         0.0790   12.1950    7.4840 C.3    52  ALA52       0.1562
     43  C          0.7170   10.8930    7.0190 C.2    52  ALA52       0.2260
     44  O          0.7990    9.9250    7.7760 O.2    52  ALA52      -0.2867
     45  CB         1.1180   13.1200    8.0910 C.3    52  ALA52       0.0290
     46  N          4.1760    9.4420    5.2060 N.3    54  LYS54      -0.1245
     47  CA         5.5230    9.5510    4.6640 C.3    54  LYS54       0.1561
     48  C          5.7550    8.3540    3.7610 C.2    54  LYS54       0.2260
     49  O          5.4190    7.2190    4.1230 O.2    54  LYS54      -0.2867
     50  CB         6.5760    9.6280    5.7790 C.3    54  LYS54       0.0271
     51  CG         6.5690   10.9700    6.4950 C.3    54  LYS54       0.0035
     52  CD         7.7030   11.1200    7.4960 C.3    54  LYS54       0.0206
     53  CE         9.0600   11.1650    6.8280 C.3    54  LYS54       0.1093
     54  NZ        10.1070   11.4130    7.8590 N.3    54  LYS54      -0.1314
     55  N          5.1520   13.2970   17.8230 N.3    84  VAL84      -0.1245
     56  CA         4.1300   12.8110   16.8970 C.3    84  VAL84       0.1561
     57  C          3.9470   11.2930   16.9890 C.2    84  VAL84       0.2260
     58  O          4.9190   10.5330   17.0220 O.2    84  VAL84      -0.2867
     59  CB         4.3660   13.2520   15.4270 C.3    84  VAL84       0.0252
     60  CG1        4.2790   14.7650   15.3070 C.3    84  VAL84       0.0019
     61  CG2        5.6970   12.7430   14.8910 C.3    84  VAL84       0.0019
     62  N          1.6430    8.7270   10.1800 N.3   100  LEU100     -0.1231
     63  CA         1.9450    9.5660   11.3260 C.3   100  LEU100      0.1693
     64  C          0.7650   10.4550   11.6990 C.2   100  LEU100      0.2592
     65  O         -0.1190   10.7330   10.8740 O.2   100  LEU100     -0.2718
     66  CB         3.1840   10.4190   11.0350 C.3   100  LEU100      0.0284
     67  CG         4.4430    9.6220   10.7060 C.3   100  LEU100      0.0019
     68  CD1        5.5340   10.5300   10.1810 C.3   100  LEU100      0.0001
     69  CD2        4.9220    8.8430   11.9250 C.3   100  LEU100      0.0001
     70  N          0.7530   10.8760   12.9580 N.am  101  GLU101     -0.1966
     71  CA        -0.2350   11.8260   13.4660 C.3   101  GLU101      0.1733
     72  C         -0.1980   13.0890   12.6050 C.2   101  GLU101      0.2616
     73  O          0.8730   13.6510   12.3930 O.2   101  GLU101     -0.2715
     74  CB         0.0840   12.1410   14.9320 C.3   101  GLU101      0.0429
     75  CG        -0.5350   13.4160   15.4700 C.3   101  GLU101      0.1163
     76  CD        -0.1320   13.7350   16.9030 C.2   101  GLU101      0.3649
     77  OE1        0.8290   13.1350   17.4500 O.co2 101  GLU101     -0.2457
     78  OE2       -0.7980   14.6020   17.4870 O.co2 101  GLU101     -0.2457
     79  N         -1.3620   13.5150   12.1000 N.am  102  LEU102     -0.1963
     80  CA        -1.4500   14.6890   11.2290 C.3   102  LEU102      0.1728
     81  C         -1.2570   15.9800   12.0210 C.2   102  LEU102      0.2616
     82  O         -1.9350   16.2220   13.0240 O.2   102  LEU102     -0.2715
     83  CB        -2.7780   14.7320   10.4560 C.3   102  LEU102      0.0311
     84  CG        -2.9960   15.9080    9.4770 C.3   102  LEU102      0.0022
     85  CD1       -1.9800   15.8890    8.3420 C.3   102  LEU102      0.0001
     86  CD2       -4.4130   15.9180    8.9160 C.3   102  LEU102      0.0001
     87  N         -0.3270   16.8070   11.5570 N.am  103  MET103     -0.1963
     88  CA        -0.0340   18.0630   12.2280 C.3   103  MET103      0.1736
     89  C         -0.3210   19.2060   11.2560 C.2   103  MET103      0.2616
     90  O          0.5280   19.5950   10.4470 O.2   103  MET103     -0.2715
     91  CB         1.4050   18.0680   12.7470 C.3   103  MET103      0.0427
     92  CG         1.7290   16.9010   13.6830 C.3   103  MET103      0.0599
     93  SD         1.0800   17.1250   15.3500 S.3   103  MET103     -0.1393
     94  CE         2.2190   18.3680   15.9570 C.3   103  MET103      0.0692
     95  N         -1.5460   19.7180   11.3460 N.am  104  ALA104     -0.1963
     96  CA        -2.0930   20.6740   10.3820 C.3   104  ALA104      0.1728
     97  C         -1.4070   22.0330   10.4030 C.2   104  ALA104      0.2617
     98  O         -1.5640   22.8130    9.4640 O.2   104  ALA104     -0.2715
     99  CB        -3.5940   20.8340   10.5900 C.3   104  ALA104      0.0334
    100  N         -0.6400   22.3090   11.4600 N.am  105  GLY105     -0.1940
    101  CA         0.0740   23.5840   11.5890 C.3   105  GLY105      0.2014
    102  C          1.4080   23.6390   10.8690 C.2   105  GLY105      0.2639
    103  O          2.0490   24.6940   10.8080 O.2   105  GLY105     -0.2714
    104  N          1.8410   22.5010   10.3290 N.am  106  GLY106     -0.1939
    105  CA         3.1240   22.4300    9.6170 C.3   106  GLY106      0.2014
    106  C          4.3170   22.5730   10.5450 C.2   106  GLY106      0.2638
    107  O          4.1770   22.4560   11.7730 O.2   106  GLY106     -0.2714
    108  N          5.4840   22.8290    9.9540 N.am  107  ASP107     -0.1971
    109  CA         6.7350   22.9650   10.7000 C.3   107  ASP107      0.1709
    110  C          6.8110   24.2940   11.4660 C.2   107  ASP107      0.2293
    111  O          6.2600   25.3150   11.0260 O.2   107  ASP107     -0.2864
    112  CB         7.9430   22.8110    9.7740 C.3   107  ASP107      0.1436
    113  CG         8.1500   24.0210    8.8820 C.2   107  ASP107      0.3671
    114  OD1        7.4550   24.1450    7.8530 O.co2 107  ASP107     -0.2456
    115  OD2        9.0130   24.8590    9.2150 O.co2 107  ASP107     -0.2456
    116  N          8.6030   27.6880    9.6790 N.3   110  SER110     -0.1217
    117  CA         7.7270   28.3750    8.7350 C.3   110  SER110      0.1889
    118  C          6.5740   29.0700    9.4410 C.2   110  SER110      0.2288
    119  O          6.2300   30.1820    9.0750 O.2   110  SER110     -0.2866
    120  CB         7.1750   27.4030    7.6960 C.3   110  SER110      0.2089
    121  OG         8.2220   26.6270    7.1700 O.3   110  SER110     -0.2183
    122  N          5.8630   33.0770    9.0760 N.3   114  GLU114     -0.1245
    123  CA         4.5740   33.4500    8.4910 C.3   114  GLU114      0.1567
    124  C          3.6840   34.2340    9.4520 C.2   114  GLU114      0.2260
    125  O          2.8480   35.0290    9.0250 O.2   114  GLU114     -0.2867
    126  CB         3.8170   32.1960    8.0340 C.3   114  GLU114      0.0388
    127  CG         4.4050   31.4920    6.8210 C.3   114  GLU114      0.1160
    128  CD         3.9000   30.0670    6.6730 C.2   114  GLU114      0.3649
    129  OE1        3.3870   29.5020    7.6660 O.co2 114  GLU114     -0.2457
    130  OE2        4.0210   29.5070    5.5660 O.co2 114  GLU114     -0.2457
    131  N         13.0330   23.5880   12.5050 N.3   157  ARG157     -0.1231
    132  CA        12.7600   22.7960   11.2970 C.3   157  ARG157      0.1694
    133  C         12.2920   21.3690   11.6020 C.2   157  ARG157      0.2592
    134  O         11.6740   20.7370   10.7470 O.2   157  ARG157     -0.2718
    135  CB        14.0020   22.7410   10.3890 C.3   157  ARG157      0.0321
    136  CG        15.1740   22.0150   11.0400 C.3   157  ARG157      0.0489
    137  CD        16.3550   21.7190   10.1220 C.3   157  ARG157      0.2205
    138  NE        17.4860   21.2840   10.9450 N.pl3 157  ARG157     -0.0865
    139  CZ        18.3380   22.1210   11.5410 C.cat 157  ARG157      0.5346
    140  NH1       18.2090   23.4330   11.3690 N.pl3 157  ARG157      0.1354
    141  NH2       19.3280   21.6580   12.2930 N.pl3 157  ARG157      0.1354
    142  N         12.5940   20.8660   12.8050 N.am  158  ASN158     -0.1960
    143  CA        12.2550   19.4830   13.1950 C.3   158  ASN158      0.1819
    144  C         11.0890   19.3960   14.1790 C.2   158  ASN158      0.2621
    145  O         10.9130   18.3860   14.8560 O.2   158  ASN158     -0.2715
    146  CB        13.4770   18.7570   13.7800 C.3   158  ASN158      0.1195
    147  CG        14.5500   18.4830   12.7440 C.2   158  ASN158      0.2630
    148  OD1       14.2550   18.0850   11.6240 O.2   158  ASN158     -0.2716
    149  ND2       15.8020   18.6850   13.1210 N.am  158  ASN158     -0.0877
    150  N         10.3040   20.4670   14.2490 N.am  159  CYS159     -0.1954
    151  CA         9.1730   20.5550   15.1500 C.3   159  CYS159      0.1843
    152  C          7.9170   20.8560   14.3400 C.2   159  CYS159      0.2625
    153  O          7.9710   21.5620   13.3180 O.2   159  CYS159     -0.2714
    154  CB         9.4050   21.6500   16.1970 C.3   159  CYS159      0.0997
    155  SG        10.7460   21.3420   17.3760 S.3   159  CYS159     -0.0797
    156  N          6.7930   20.3030   14.7890 N.am  160  LEU160     -0.1977
    157  CA         5.5140   20.4760   14.1070 C.3   160  LEU160      0.1596
    158  C          4.4470   20.9770   15.0660 C.2   160  LEU160      0.2287
    159  O          4.5820   20.8320   16.2900 O.2   160  LEU160     -0.2864
    160  CB         5.0540   19.1540   13.4690 C.3   160  LEU160      0.0297
    161  CG         5.8620   18.5780   12.3050 C.3   160  LEU160      0.0022
    162  CD1        5.5670   17.0940   12.1450 C.3   160  LEU160      0.0001
    163  CD2        5.5850   19.3320   11.0100 C.3   160  LEU160      0.0001
    164  N         -2.7650   25.9990   13.3170 N.3   164  PRO164     -0.2116
    165  CA        -2.2480   27.3780   13.3260 C.3   164  PRO164      0.1372
    166  C         -2.7260   28.2260   14.5120 C.2   164  PRO164      0.2244
    167  O         -1.9330   28.9620   15.1110 O.2   164  PRO164     -0.2868
    168  CB        -2.7790   27.9760   12.0090 C.3   164  PRO164      0.0268
    169  CG        -3.2680   26.8130   11.1930 C.3   164  PRO164      0.0207
    170  CD        -3.6650   25.7500   12.1730 C.3   164  PRO164      0.0892
    171  N          8.9240   16.1960   15.5060 N.3   173  GLY173     -0.1210
    172  CA         8.3530   15.4720   14.3670 C.3   173  GLY173      0.1956
    173  C          9.3450   14.8250   13.4180 C.2   173  GLY173      0.2611
    174  O          8.9480   14.2090   12.4200 O.2   173  GLY173     -0.2717
    175  N         10.6330   14.9720   13.7050 N.am  174  ASP174     -0.1973
    176  CA        11.6670   14.3400   12.8880 C.3   174  ASP174      0.1709
    177  C         12.7710   13.7320   13.7620 C.2   174  ASP174      0.2293
    178  O         13.1760   14.3280   14.7660 O.2   174  ASP174     -0.2864
    179  CB        12.2320   15.3310   11.8630 C.3   174  ASP174      0.1436
    180  CG        13.2370   14.6880   10.9240 C.2   174  ASP174      0.3671
    181  OD1       14.4350   14.6660   11.2570 O.co2 174  ASP174     -0.2456
    182  OD2       12.8230   14.1790    9.8650 O.co2 174  ASP174     -0.2456
@<TRIPOS>BOND
     1    22    21   ar
     2    22    20   ar
     3    21    19   ar
     4    20    18   ar
     5    19    18   ar
     6    18    17    1
     7    17    14    1
     8    13    14    1
     9    13    11   am
    10    14    15    1
    11     1     2    1
    12    10    11    1
    13    10     9    2
    14    11    12    2
    15    16    15    2
    16     9     3    1
    17     3     4    2
    18     3     2    1
    19    37    36    2
    20     2     5    1
    21    34    35    1
    22    36    35    1
    23     5     6    1
    24    35    38    1
    25     6     8    1
    26     6     7    1
    27    48    49    2
    28    48    47    1
    29    33    31   ar
    30    33    32   ar
    31    31    29   ar
    32    38    40    1
    33    38    39    1
    34    47    46    1
    35    47    50    1
    36    32    30   ar
    37    29    28   ar
    38    25    26    2
    39    25    24    1
    40    23    24    1
    41   130   128   ar
    42    50    51    1
    43    30    28   ar
    44    28    27    1
    45    24    27    1
    46    51    52    1
    47   128   127    1
    48   128   129   ar
    49   127   126    1
    50    53    52    1
    51    53    54    1
    52    43    42    1
    53    43    44    2
    54   121   120    1
    55    42    45    1
    56    42    41    1
    57   120   117    1
    58   114   113   ar
    59   126   123    1
    60    85    84    1
    61   123   122    1
    62   123   124    1
    63   117   118    1
    64   117   116    1
    65   113   115   ar
    66   113   112    1
    67    86    84    1
    68   125   124    2
    69   119   118    2
    70    98    97    2
    71    84    83    1
    72   105   104    1
    73   105   106    1
    74   112   109    1
    75   182   180   ar
    76   108   106   am
    77   108   109    1
    78   137   138    1
    79   137   136    1
    80    62    63    1
    81    68    67    1
    82   104   102   am
    83    96    97    1
    84    96    99    1
    85    96    95    1
    86   135   136    1
    87   135   132    1
    88    97   100   am
    89    90    89    2
    90    83    80    1
    91   106   107    2
    92   109   110    1
    93    67    66    1
    94    67    69    1
    95   134   133    2
    96   103   102    2
    97   102   101    1
    98    65    64    2
    99   180   181   ar
   100   180   179    1
   101   138   139    2
   102   163   161    1
   103   111   110    2
   104    66    63    1
   105   169   168    1
   106   169   170    1
   107    80    81    1
   108    80    79    1
   109    89    95   am
   110    89    88    1
   111   132   133    1
   112   132   131    1
   113    63    64    1
   114   140   139    1
   115   100   101    1
   116   139   141    1
   117    87    81   am
   118    87    88    1
   119   133   142   am
   120   148   147    2
   121    64    70   am
   122   179   176    1
   123   168   165    1
   124    81    82    2
   125    79    72   am
   126   162   161    1
   127   170   164    1
   128    88    91    1
   129   161   160    1
   130    73    72    2
   131   174   173    2
   132    72    71    1
   133   147   149   am
   134   147   146    1
   135    91    92    1
   136   142   143    1
   137   176   175    1
   138   176   177    1
   139    70    71    1
   140   143   146    1
   141   143   144    1
   142   164   165    1
   143   153   152    2
   144   165   166    1
   145   173   175   am
   146   173   172    1
   147    71    74    1
   148   160   157    1
   149    92    93    1
   150   177   178    2
   151   157   156    1
   152   157   158    1
   153   144   150   am
   154   144   145    2
   155   150   151    1
   156   152   156   am
   157   152   151    1
   158   172   171    1
   159   166   167    2
   160    61    59    1
   161    74    75    1
   162   158   159    2
   163   151   154    1
   164    60    59    1
   165    93    94    1
   166    59    56    1
   167    75    76    1
   168   154   155    1
   169    56    57    1
   170    56    55    1
   171    76    77   ar
   172    76    78   ar
   173    57    58    2
