@<TRIPOS>MOLECULE
tmp/5ftsD00.pdb
 97 93 0 0 0
SMALL
GASTEIGER

@<TRIPOS>ATOM
      1  N         24.8010   25.2330   52.0290 N.3    44  LEU44      -0.1245
      2  CA        24.8980   26.0250   53.2430 C.3    44  LEU44       0.1561
      3  C         25.7420   27.2980   53.1640 C.2    44  LEU44       0.2260
      4  O         25.4950   28.2380   53.9170 O.2    44  LEU44      -0.2867
      5  CB        25.4220   25.1390   54.3550 C.3    44  LEU44       0.0270
      6  CG        25.0350   25.6130   55.7420 C.3    44  LEU44       0.0019
      7  CD1       23.5670   25.3190   56.0150 C.3    44  LEU44       0.0001
      8  CD2       25.9520   24.9070   56.7160 C.3    44  LEU44       0.0001
      9  N         28.4560   21.2410   62.7740 N.3   114  GLY114     -0.1225
     10  CA        28.6200   22.1210   63.9420 C.3   114  GLY114      0.1811
     11  C         27.7640   23.3620   64.0160 C.2   114  GLY114      0.2280
     12  O         27.0220   23.6580   63.1080 O.2   114  GLY114     -0.2866
     13  N         27.9900   26.9240   61.4840 N.3   117  PHE117     -0.1227
     14  CA        28.7480   26.5280   60.3020 C.3   117  PHE117      0.1736
     15  C         28.3850   27.4620   59.1620 C.2   117  PHE117      0.2595
     16  O         29.2700   27.9340   58.4430 O.2   117  PHE117     -0.2718
     17  CB        28.4290   25.0740   59.9250 C.3   117  PHE117      0.0547
     18  CG        29.3460   24.4800   58.8750 C.ar  117  PHE117     -0.0202
     19  CD1       30.7280   24.6920   58.9040 C.ar  117  PHE117     -0.0042
     20  CD2       28.8290   23.6250   57.8940 C.ar  117  PHE117     -0.0042
     21  CE1       31.5660   24.1080   57.9580 C.ar  117  PHE117     -0.0003
     22  CE2       29.6670   23.0430   56.9420 C.ar  117  PHE117     -0.0003
     23  CZ        31.0360   23.2870   56.9750 C.ar  117  PHE117     -0.0000
     24  N         27.0840   27.7340   59.0400 N.am  118  HIS118     -0.1975
     25  CA        26.5430   28.7380   58.1160 C.3   118  HIS118      0.1656
     26  C         27.3810   30.0000   58.1520 C.2   118  HIS118      0.2291
     27  O         27.8380   30.4540   57.1150 O.2   118  HIS118     -0.2864
     28  CB        25.0800   29.0720   58.4680 C.3   118  HIS118      0.0771
     29  CG        24.3690   29.8870   57.4260 C.ar  118  HIS118      0.0820
     30  ND1       24.3510   31.2650   57.4370 N.ar  118  HIS118     -0.2267
     31  CD2       23.6480   29.5140   56.3390 C.ar  118  HIS118      0.1154
     32  CE1       23.6480   31.7050   56.4060 C.ar  118  HIS118      0.1986
     33  NE2       23.2060   30.6620   55.7260 N.ar  118  HIS118     -0.2212
     34  N         17.5580   16.1870   60.8300 N.3   248  LYS248     -0.1231
     35  CA        18.5090   15.5670   59.9490 C.3   248  LYS248      0.1693
     36  C         19.7590   16.4100   59.7370 C.2   248  LYS248      0.2592
     37  O         19.7050   17.6260   59.7620 O.2   248  LYS248     -0.2718
     38  CB        17.8080   15.2090   58.6450 C.3   248  LYS248      0.0285
     39  CG        16.7190   14.1660   58.8910 C.3   248  LYS248      0.0035
     40  CD        16.2960   13.4530   57.6310 C.3   248  LYS248      0.0206
     41  CE        15.5120   12.1740   57.9400 C.3   248  LYS248      0.1093
     42  NZ        16.1690   11.1740   58.8210 N.3   248  LYS248     -0.1314
     43  N         20.8940   15.7480   59.5400 N.am  249  VAL249     -0.1966
     44  CA        22.0940   16.4480   59.1040 C.3   249  VAL249      0.1727
     45  C         22.2100   16.3010   57.5850 C.2   249  VAL249      0.2616
     46  O         22.1660   15.1920   57.0660 O.2   249  VAL249     -0.2715
     47  CB        23.3450   15.9300   59.7980 C.3   249  VAL249      0.0290
     48  CG1       24.5490   16.7410   59.3860 C.3   249  VAL249      0.0023
     49  CG2       23.1720   16.0220   61.3000 C.3   249  VAL249      0.0023
     50  N         22.3120   17.4220   56.8820 N.am  250  ALA250     -0.1963
     51  CA        22.5960   17.4160   55.4180 C.3   250  ALA250      0.1728
     52  C         21.4430   16.8020   54.6220 C.2   250  ALA250      0.2616
     53  O         21.6170   15.8710   53.8320 O.2   250  ALA250     -0.2715
     54  CB        23.9200   16.7060   55.1110 C.3   250  ALA250      0.0334
     55  N         20.2520   17.3060   54.9030 N.am  251  CYS251     -0.1968
     56  CA        19.0620   16.9820   54.1330 C.3   251  CYS251      0.1712
     57  C         18.9250   18.1160   53.1190 C.2   251  CYS251      0.2296
     58  O         18.5510   19.2400   53.4930 O.2   251  CYS251     -0.2864
     59  CB        17.8840   16.9330   55.0570 C.3   251  CYS251      0.0983
     60  SG        16.3240   16.7990   54.2230 S.3   251  CYS251     -0.0798
     61  N         15.5450   20.0690   52.9710 N.3   254  GLU254     -0.1231
     62  CA        15.4110   20.9870   54.0880 C.3   254  GLU254      0.1699
     63  C         16.2150   22.2660   53.8410 C.2   254  GLU254      0.2592
     64  O         15.7030   23.3500   54.0130 O.2   254  GLU254     -0.2718
     65  CB        15.8430   20.3330   55.3870 C.3   254  GLU254      0.0402
     66  CG        15.8910   21.2990   56.5790 C.3   254  GLU254      0.1161
     67  CD        16.0450   20.5980   57.9220 C.2   254  GLU254      0.3649
     68  OE1       16.4230   19.4140   57.9740 O.co2 254  GLU254     -0.2457
     69  OE2       15.7310   21.2230   58.9390 O.co2 254  GLU254     -0.2457
     70  N         17.4650   22.1320   53.4130 N.am  255  ILE255     -0.1980
     71  CA        18.3270   23.2840   53.2240 C.3   255  ILE255      0.1595
     72  C         17.8170   24.1860   52.1130 C.2   255  ILE255      0.2287
     73  O         17.8540   25.4090   52.2480 O.2   255  ILE255     -0.2864
     74  CB        19.8090   22.8750   52.9930 C.3   255  ILE255      0.0276
     75  CG1       20.3920   22.2460   54.2610 C.3   255  ILE255      0.0022
     76  CG2       20.6740   24.0740   52.6120 C.3   255  ILE255      0.0022
     77  CD1       21.7030   21.5090   54.0380 C.3   255  ILE255      0.0001
     78  N         14.8400   26.1060   53.5720 N.3   258  ARG258     -0.1231
     79  CA        15.2370   27.1560   54.5040 C.3   258  ARG258      0.1694
     80  C         15.9830   28.2880   53.8490 C.2   258  ARG258      0.2591
     81  O         15.9150   29.4050   54.3450 O.2   258  ARG258     -0.2718
     82  CB        16.0410   26.6090   55.6730 C.3   258  ARG258      0.0321
     83  CG        15.1650   25.7910   56.5870 C.3   258  ARG258      0.0489
     84  CD        15.8760   25.3910   57.8660 C.3   258  ARG258      0.2205
     85  NE        15.1630   24.2550   58.4290 N.pl3 258  ARG258     -0.0865
     86  CZ        13.9850   24.3160   59.0420 C.cat 258  ARG258      0.5346
     87  NH1       13.3820   25.4770   59.2300 N.pl3 258  ARG258      0.1354
     88  NH2       13.4170   23.2000   59.5120 N.pl3 258  ARG258      0.1354
     89  N         16.6870   28.0200   52.7540 N.am  259  GLN259     -0.1979
     90  CA        17.3230   29.0920   51.9780 C.3   259  GLN259      0.1601
     91  C         16.3030   29.8110   51.0430 C.2   259  GLN259      0.2287
     92  O         16.6380   30.8110   50.4060 O.2   259  GLN259     -0.2864
     93  CB        18.4960   28.5240   51.1620 C.3   259  GLN259      0.0394
     94  CG        19.6470   27.9740   51.9700 C.3   259  GLN259      0.0908
     95  CD        20.6380   29.0430   52.3740 C.2   259  GLN259      0.2608
     96  OE1       20.2600   30.1520   52.7390 O.2   259  GLN259     -0.2717
     97  NE2       21.9140   28.7140   52.3200 N.am  259  GLN259     -0.0878
@<TRIPOS>BOND
     1    92    91    2
     2    91    90    1
     3    93    94    1
     4    93    90    1
     5    94    95    1
     6    90    89    1
     7     1     2    1
     8    72    73    2
     9    72    71    1
    10    97    95   am
    11    95    96    2
    12    76    74    1
    13    89    80   am
    14    61    62    1
    15    74    71    1
    16    74    75    1
    17    57    58    2
    18    57    56    1
    19     3     2    1
    20     3     4    2
    21    71    70    1
    22     2     5    1
    23    70    63   am
    24    78    79    1
    25    53    52    2
    26    63    64    2
    27    63    62    1
    28    80    81    2
    29    80    79    1
    30    77    75    1
    31    62    65    1
    32    56    55    1
    33    56    59    1
    34    60    59    1
    35     5     6    1
    36    79    82    1
    37    52    55   am
    38    52    51    1
    39    54    51    1
    40    65    66    1
    41    51    50    1
    42    82    83    1
    43    33    31   ar
    44    33    32   ar
    45     6     7    1
    46     6     8    1
    47    31    29   ar
    48    32    30   ar
    49    66    67    1
    50    83    84    1
    51    50    45   am
    52    22    23   ar
    53    22    20   ar
    54    23    21   ar
    55    46    45    2
    56    27    26    2
    57    29    30   ar
    58    29    28    1
    59    45    44    1
    60    40    41    1
    61    40    39    1
    62    84    85    1
    63    20    18   ar
    64    67    68   ar
    65    67    69   ar
    66    41    42    1
    67    21    19   ar
    68    25    26    1
    69    25    28    1
    70    25    24    1
    71    85    86    2
    72    16    15    2
    73    38    39    1
    74    38    35    1
    75    18    19   ar
    76    18    17    1
    77    24    15   am
    78    86    87    1
    79    86    88    1
    80    44    43    1
    81    44    47    1
    82    15    14    1
    83    48    47    1
    84    43    36   am
    85    36    37    2
    86    36    35    1
    87    47    49    1
    88    17    14    1
    89    35    34    1
    90    14    13    1
    91     9    10    1
    92    12    11    2
    93    10    11    1
