@<TRIPOS>MOLECULE
tmp/5ftwA00.pdb
 215 207 0 0 0
SMALL
GASTEIGER

@<TRIPOS>ATOM
      1  N        -20.1790  -12.0800  -17.2610 N.3    16  VAL16      -0.1245
      2  CA       -18.8360  -12.1780  -16.7050 C.3    16  VAL16       0.1561
      3  C        -18.4190  -13.6120  -16.8600 C.2    16  VAL16       0.2260
      4  O        -19.1490  -14.5030  -16.4430 O.2    16  VAL16      -0.2867
      5  CB       -18.8470  -11.8040  -15.2080 C.3    16  VAL16       0.0252
      6  CG1      -17.4860  -11.9720  -14.5740 C.3    16  VAL16       0.0019
      7  CG2      -19.3630  -10.3930  -15.0220 C.3    16  VAL16       0.0019
      8  N        -10.9230  -15.6890  -15.0890 N.3    21  TYR21      -0.1241
      9  CA       -10.4570  -15.3660  -13.7390 C.3    21  TYR21       0.1605
     10  C         -9.7150  -16.5560  -13.2000 C.2    21  TYR21       0.2264
     11  O        -10.1110  -17.6960  -13.4380 O.2    21  TYR21      -0.2867
     12  CB       -11.6070  -15.0540  -12.7770 C.3    21  TYR21       0.0534
     13  CG       -12.3220  -13.7570  -13.0510 C.ar   21  TYR21      -0.0201
     14  CD1      -13.2650  -13.6730  -14.0670 C.ar   21  TYR21      -0.0009
     15  CD2      -12.0790  -12.6290  -12.2680 C.ar   21  TYR21      -0.0009
     16  CE1      -13.9060  -12.4770  -14.3680 C.ar   21  TYR21       0.0417
     17  CE2      -12.7410  -11.4190  -12.5120 C.ar   21  TYR21       0.0417
     18  CZ       -13.6540  -11.3580  -13.5640 C.ar   21  TYR21       0.1957
     19  OH       -14.3040  -10.1790  -13.8330 O.3    21  TYR21      -0.2866
     20  N        -21.5920   -9.7560   -7.3850 N.3    60  LEU60      -0.1245
     21  CA       -20.6470   -9.0310   -8.2330 C.3    60  LEU60       0.1561
     22  C        -19.7970   -8.1360   -7.3140 C.2    60  LEU60       0.2260
     23  O        -18.5680   -8.0390   -7.4530 O.2    60  LEU60      -0.2867
     24  CB       -21.3630   -8.1970   -9.2950 C.3    60  LEU60       0.0270
     25  CG       -21.9330   -8.9180  -10.5320 C.3    60  LEU60       0.0019
     26  CD1      -23.1010   -8.1480  -11.0960 C.3    60  LEU60       0.0001
     27  CD2      -20.8860   -9.1310  -11.6180 C.3    60  LEU60       0.0001
     28  N        -17.0410  -10.3030   -5.6810 N.3    63  MET63      -0.1230
     29  CA       -16.0780  -11.1840   -6.3370 C.3    63  MET63       0.1702
     30  C        -14.5940  -10.7650   -6.2980 C.2    63  MET63       0.2593
     31  O        -13.7360  -11.5900   -6.6170 O.2    63  MET63      -0.2718
     32  CB       -16.5520  -11.6690   -7.7100 C.3    63  MET63       0.0401
     33  CG       -17.0790  -10.6300   -8.6270 C.3    63  MET63       0.0596
     34  SD       -17.6820  -11.2690  -10.2050 S.3    63  MET63      -0.1393
     35  CE       -16.1280  -11.8670  -10.8930 C.3    63  MET63       0.0692
     36  N        -14.2800   -9.5210   -5.9100 N.am   64  THR64      -0.1939
     37  CA       -12.9040   -9.0830   -5.7210 C.3    64  THR64       0.2028
     38  C        -12.7230   -8.4040   -4.3610 C.2    64  THR64       0.2642
     39  O        -13.6950   -8.0500   -3.7190 O.2    64  THR64      -0.2714
     40  CB       -12.4800   -8.0280   -6.7770 C.3    64  THR64       0.1808
     41  OG1      -13.2810   -6.8450   -6.6110 O.3    64  THR64      -0.2208
     42  CG2      -12.6020   -8.5620   -8.1680 C.3    64  THR64       0.0379
     43  N        -11.4990   -8.1560   -3.9650 N.am   65  ILE65      -0.1963
     44  CA       -11.2670   -7.2720   -2.8190 C.3    65  ILE65       0.1727
     45  C        -11.3070   -5.8280   -3.3160 C.2    65  ILE65       0.2616
     46  O        -10.3420   -5.3610   -3.9010 O.2    65  ILE65      -0.2715
     47  CB        -9.9180   -7.4740   -2.1010 C.3    65  ILE65       0.0290
     48  CG1       -9.6550   -8.9280   -1.6660 C.3    65  ILE65       0.0022
     49  CG2       -9.8590   -6.5360   -0.9130 C.3    65  ILE65       0.0023
     50  CD1      -10.6560   -9.4950   -0.6980 C.3    65  ILE65       0.0001
     51  N        -12.3770   -5.0850   -3.0320 N.am   66  ASN66      -0.1972
     52  CA       -12.5640   -3.8460   -3.8110 C.3    66  ASN66       0.1688
     53  C        -12.4380   -2.5350   -3.0300 C.2    66  ASN66       0.2292
     54  O        -12.7630   -1.4580   -3.5520 O.2    66  ASN66      -0.2864
     55  CB       -13.8570   -3.9090   -4.5950 C.3    66  ASN66       0.1181
     56  CG       -15.0010   -4.3710   -3.7530 C.2    66  ASN66       0.2629
     57  OD1      -15.0810   -4.0280   -2.5610 O.2    66  ASN66      -0.2716
     58  ND2      -15.8940   -5.1740   -4.3510 N.am   66  ASN66      -0.0877
     59  N        -10.8230    0.6770   -1.6840 N.3    68  SER68      -0.1217
     60  CA        -9.9500    1.5600   -2.4630 C.3    68  SER68       0.1889
     61  C         -9.6910    2.8210   -1.5980 C.2    68  SER68       0.2288
     62  O        -10.1830    2.9500   -0.4660 O.2    68  SER68      -0.2866
     63  CB       -10.6000    1.8510   -3.8670 C.3    68  SER68       0.2089
     64  OG        -9.6800    2.5050   -4.7760 O.3    68  SER68      -0.2183
     65  N         -4.0650    5.8470   -4.1250 N.3    72  ARG72      -0.1245
     66  CA        -3.5490    4.5420   -3.6740 C.3    72  ARG72       0.1563
     67  C         -2.0920    4.3470   -4.1740 C.2    72  ARG72       0.2260
     68  O         -1.8770    4.4320   -5.3500 O.2    72  ARG72      -0.2867
     69  CB        -4.4680    3.4120   -4.1520 C.3    72  ARG72       0.0307
     70  CG        -3.9570    2.0330   -3.7970 C.3    72  ARG72       0.0489
     71  CD        -5.0350    1.0260   -4.1230 C.3    72  ARG72       0.2205
     72  NE        -4.6560   -0.3340   -3.7110 N.pl3  72  ARG72      -0.0865
     73  CZ        -5.4540   -1.3940   -3.8710 C.cat  72  ARG72       0.5346
     74  NH1       -6.6540   -1.2660   -4.4280 N.pl3  72  ARG72       0.1354
     75  NH2       -5.0630   -2.5890   -3.4510 N.pl3  72  ARG72       0.1354
     76  N        -11.9250   -0.1360  -14.1970 N.3   100  ALA100     -0.1231
     77  CA       -12.1400   -0.8200  -12.9090 C.3   100  ALA100      0.1694
     78  C        -11.9720    0.1550  -11.7370 C.2   100  ALA100      0.2592
     79  O        -11.0220    0.0880  -10.9080 O.2   100  ALA100     -0.2718
     80  CB       -11.1990   -2.0220  -12.7540 C.3   100  ALA100      0.0304
     81  N        -12.8980    1.0850  -11.6900 N.am  101  CYS101     -0.1956
     82  CA       -12.7590    2.2470  -10.7920 C.3   101  CYS101      0.1843
     83  C        -13.2910    1.9790   -9.4000 C.2   101  CYS101      0.2626
     84  O        -13.1580    2.8550   -8.5270 O.2   101  CYS101     -0.2714
     85  CB       -13.4650    3.4840  -11.3980 C.3   101  CYS101      0.0997
     86  SG       -15.2850    3.2610  -11.6470 S.3   101  CYS101     -0.0797
     87  N        -13.9630    0.8300   -9.2210 N.am  102  SER102     -0.1950
     88  CA       -14.6350    0.4780   -7.9470 C.3   102  SER102      0.1924
     89  C        -15.4690    1.6950   -7.4600 C.2   102  SER102      0.2314
     90  O        -16.1720    2.2930   -8.2720 O.2   102  SER102     -0.2863
     91  CB       -13.5960    0.0650   -6.9190 C.3   102  SER102      0.2116
     92  OG       -14.1670   -0.3080   -5.6990 O.3   102  SER102     -0.2180
     93  N        -10.1830    6.3330   -7.3270 N.3   106  GLU106     -0.1245
     94  CA        -9.1970    6.4940   -8.3610 C.3   106  GLU106      0.1567
     95  C         -9.5820    7.5910   -9.3670 C.2   106  GLU106      0.2260
     96  O         -8.7330    8.4540   -9.6650 O.2   106  GLU106     -0.2867
     97  CB        -8.9370    5.1310   -9.0640 C.3   106  GLU106      0.0388
     98  CG        -7.8580    5.1370  -10.1600 C.3   106  GLU106      0.1160
     99  CD        -7.7450    3.7480  -10.7480 C.2   106  GLU106      0.3649
    100  OE1       -7.1570    2.9020  -10.0860 O.co2 106  GLU106     -0.2457
    101  OE2       -8.2580    3.5080  -11.8480 O.co2 106  GLU106     -0.2457
    102  N        -14.9880    3.1490  -15.4110 N.3   128  THR128     -0.1203
    103  CA       -15.8300    1.9490  -15.6250 C.3   128  THR128      0.1994
    104  C        -15.6140    0.8410  -14.6080 C.2   128  THR128      0.2618
    105  O        -14.5380    0.6740  -14.0770 O.2   128  THR128     -0.2717
    106  CB       -15.5940    1.3450  -17.0280 C.3   128  THR128      0.1784
    107  OG1      -14.2250    0.9700  -17.1660 O.3   128  THR128     -0.2211
    108  CG2      -15.8970    2.3650  -18.1370 C.3   128  THR128      0.0376
    109  N        -16.6820    0.0900  -14.3770 N.am  129  ASP129     -0.1959
    110  CA       -16.6080   -1.0880  -13.5360 C.3   129  ASP129      0.1840
    111  C        -17.7780   -2.0250  -13.9260 C.2   129  ASP129      0.2622
    112  O        -18.7110   -1.5940  -14.6150 O.2   129  ASP129     -0.2715
    113  CB       -16.7530   -0.7050  -12.0720 C.3   129  ASP129      0.1450
    114  CG       -15.9860   -1.6800  -11.1720 C.2   129  ASP129      0.3671
    115  OD1      -16.5240   -2.8070  -10.9730 O.co2 129  ASP129     -0.2456
    116  OD2      -14.8230   -1.3520  -10.7680 O.co2 129  ASP129     -0.2456
    117  N        -17.6760   -3.2980  -13.5590 N.am  130  ILE130     -0.1963
    118  CA       -18.7890   -4.2140  -13.7140 C.3   130  ILE130      0.1727
    119  C        -19.7300   -4.1060  -12.5090 C.2   130  ILE130      0.2616
    120  O        -20.8900   -4.5990  -12.5660 O.2   130  ILE130     -0.2715
    121  CB       -18.3660   -5.7070  -13.7970 C.3   130  ILE130      0.0290
    122  CG1      -17.5090   -6.1100  -12.5910 C.3   130  ILE130      0.0022
    123  CG2      -17.7640   -6.0880  -15.1560 C.3   130  ILE130      0.0023
    124  CD1      -17.2510   -7.6090  -12.4730 C.3   130  ILE130      0.0001
    125  N        -19.2540   -3.5160  -11.4090 N.am  131  ASP131     -0.1971
    126  CA       -19.9920   -3.5050  -10.1140 C.3   131  ASP131      0.1709
    127  C        -20.9170   -2.2700  -10.0210 C.2   131  ASP131      0.2293
    128  O        -20.4330   -1.1720   -9.7700 O.2   131  ASP131     -0.2864
    129  CB       -18.9730   -3.4430   -8.9740 C.3   131  ASP131      0.1436
    130  CG       -19.6080   -3.5320   -7.5820 C.2   131  ASP131      0.3671
    131  OD1      -20.8560   -3.3680   -7.4280 O.co2 131  ASP131     -0.2456
    132  OD2      -18.8110   -3.7130   -6.6230 O.co2 131  ASP131     -0.2456
    133  N        -19.2460   -1.3440  -17.4480 N.3   183  HIS183     -0.1226
    134  CA       -18.4550   -1.8880  -18.5470 C.3   183  HIS183      0.1752
    135  C        -17.5950   -3.0460  -18.0580 C.2   183  HIS183      0.2596
    136  O        -17.0020   -2.9520  -16.9880 O.2   183  HIS183     -0.2718
    137  CB       -17.5540   -0.7740  -19.1230 C.3   183  HIS183      0.0759
    138  CG       -16.6820   -1.2030  -20.2590 C.ar  183  HIS183      0.0818
    139  ND1      -15.4290   -1.7790  -20.0870 N.ar  183  HIS183     -0.2268
    140  CD2      -16.8400   -1.0570  -21.5930 C.ar  183  HIS183      0.1154
    141  CE1      -14.8830   -2.0030  -21.2680 C.ar  183  HIS183      0.1986
    142  NE2      -15.7230   -1.5820  -22.1980 N.ar  183  HIS183     -0.2212
    143  N        -17.5190   -4.1190  -18.8750 N.am  184  ASN184     -0.1960
    144  CA       -16.7670   -5.3270  -18.5940 C.3   184  ASN184      0.1819
    145  C        -15.5020   -5.3140  -19.4400 C.2   184  ASN184      0.2621
    146  O        -15.5800   -5.4900  -20.6830 O.2   184  ASN184     -0.2715
    147  CB       -17.6760   -6.5500  -18.8990 C.3   184  ASN184      0.1195
    148  CG       -17.0090   -7.9000  -18.6350 C.2   184  ASN184      0.2630
    149  OD1      -15.8010   -7.9960  -18.3980 O.2   184  ASN184     -0.2716
    150  ND2      -17.8120   -8.9690  -18.7330 N.am  184  ASN184     -0.0877
    151  N        -14.3360   -5.1570  -18.7760 N.am  185  LEU185     -0.1963
    152  CA       -13.0340   -5.2180  -19.4880 C.3   185  LEU185      0.1728
    153  C        -12.8860   -6.4740  -20.3340 C.2   185  LEU185      0.2616
    154  O        -12.1390   -6.4640  -21.3150 O.2   185  LEU185     -0.2715
    155  CB       -11.8240   -5.0970  -18.5410 C.3   185  LEU185      0.0311
    156  CG       -11.8080   -3.8160  -17.7370 C.3   185  LEU185      0.0022
    157  CD1      -10.6840   -3.8670  -16.7270 C.3   185  LEU185      0.0001
    158  CD2      -11.6250   -2.6350  -18.7260 C.3   185  LEU185      0.0001
    159  N        -13.6180   -7.5410  -20.0050 N.am  186  LEU186     -0.1977
    160  CA       -13.3950   -8.8430  -20.6840 C.3   186  LEU186      0.1596
    161  C        -14.3060   -9.0760  -21.8670 C.2   186  LEU186      0.2287
    162  O        -14.0820  -10.0160  -22.6050 O.2   186  LEU186     -0.2864
    163  CB       -13.4950  -10.0660  -19.6670 C.3   186  LEU186      0.0297
    164  CG       -12.6200  -10.0670  -18.4070 C.3   186  LEU186      0.0022
    165  CD1      -13.1290  -11.1310  -17.3930 C.3   186  LEU186      0.0001
    166  CD2      -11.1530  -10.3000  -18.7450 C.3   186  LEU186      0.0001
    167  N         -5.6650   -0.4970  -12.4500 N.3   200  ARG200     -0.1231
    168  CA        -4.8570   -0.9660  -11.3050 C.3   200  ARG200      0.1694
    169  C         -5.6250   -1.8890  -10.3830 C.2   200  ARG200      0.2592
    170  O         -6.7850   -1.6120  -10.0460 O.2   200  ARG200     -0.2718
    171  CB        -4.3330    0.2360  -10.4890 C.3   200  ARG200      0.0321
    172  CG        -3.7060    1.2930  -11.4490 C.3   200  ARG200      0.0489
    173  CD        -3.1460    2.4930  -10.6780 C.3   200  ARG200      0.2205
    174  NE        -1.9820    2.1770   -9.8230 N.pl3 200  ARG200     -0.0865
    175  CZ        -1.8630    2.4330   -8.5090 C.cat 200  ARG200      0.5346
    176  NH1       -2.8620    2.8920   -7.7270 N.pl3 200  ARG200      0.1354
    177  NH2       -0.7060    2.1570   -7.9420 N.pl3 200  ARG200      0.1354
    178  N         -4.9510   -2.9560   -9.9290 N.am  201  ASN201     -0.1960
    179  CA        -5.5810   -3.8890   -8.9510 C.3   201  ASN201      0.1819
    180  C         -6.8690   -4.5430   -9.4730 C.2   201  ASN201      0.2621
    181  O         -7.7740   -4.8880   -8.6950 O.2   201  ASN201     -0.2715
    182  CB        -5.7560   -3.1990   -7.5780 C.3   201  ASN201      0.1195
    183  CG        -4.4760   -2.5870   -7.1140 C.2   201  ASN201      0.2630
    184  OD1       -4.3250   -1.3200   -7.0470 O.2   201  ASN201     -0.2716
    185  ND2       -3.5280   -3.4440   -6.7900 N.am  201  ASN201     -0.0877
    186  N         -6.9000   -4.7460  -10.7910 N.am  202  VAL202     -0.1977
    187  CA        -7.8980   -5.6440  -11.3940 C.3   202  VAL202      0.1596
    188  C         -7.2980   -6.8220  -12.1830 C.2   202  VAL202      0.2287
    189  O         -7.8850   -7.9410  -12.2110 O.2   202  VAL202     -0.2864
    190  CB        -9.0200   -4.9040  -12.1380 C.3   202  VAL202      0.0276
    191  CG1       -8.5160   -4.1260  -13.3740 C.3   202  VAL202      0.0022
    192  CG2      -10.1420   -5.9120  -12.5580 C.3   202  VAL202      0.0022
    193  N         -6.8710  -10.3660  -10.8130 N.3   205  TYR205     -0.1227
    194  CA        -7.8950  -11.3810  -10.7100 C.3   205  TYR205      0.1736
    195  C         -7.9690  -12.2630  -11.9210 C.2   205  TYR205      0.2595
    196  O         -8.5730  -13.3500  -11.8550 O.2   205  TYR205     -0.2718
    197  CB        -9.2260  -10.7230  -10.4500 C.3   205  TYR205      0.0548
    198  CG        -9.1630   -9.9730   -9.1510 C.ar  205  TYR205     -0.0200
    199  CD1       -9.0970  -10.6740   -7.9130 C.ar  205  TYR205     -0.0009
    200  CD2       -9.1670   -8.5960   -9.1380 C.ar  205  TYR205     -0.0009
    201  CE1       -8.9970   -9.9880   -6.7080 C.ar  205  TYR205      0.0417
    202  CE2       -9.0930   -7.8970   -7.9270 C.ar  205  TYR205      0.0417
    203  CZ        -8.9980   -8.5840   -6.7460 C.ar  205  TYR205      0.1957
    204  OH        -8.9580   -7.8560   -5.5990 O.3   205  TYR205     -0.2866
    205  N         -7.3920  -11.7950  -13.0390 N.am  206  PHE206     -0.1976
    206  CA        -7.6170  -12.4620  -14.3390 C.3   206  PHE206      0.1639
    207  C         -6.5440  -13.5400  -14.4920 C.2   206  PHE206      0.2290
    208  O         -5.5150  -13.4430  -13.8490 O.2   206  PHE206     -0.2864
    209  CB        -7.5810  -11.4770  -15.5350 C.3   206  PHE206      0.0560
    210  CG        -8.5820  -10.3390  -15.4660 C.ar  206  PHE206     -0.0200
    211  CD1       -9.8400  -10.5080  -14.8750 C.ar  206  PHE206     -0.0042
    212  CD2       -8.2820   -9.0770  -16.0240 C.ar  206  PHE206     -0.0042
    213  CE1      -10.7580   -9.4540  -14.8050 C.ar  206  PHE206     -0.0003
    214  CE2       -9.2430   -8.0140  -15.9810 C.ar  206  PHE206     -0.0003
    215  CZ       -10.4510   -8.2140  -15.3640 C.ar  206  PHE206     -0.0000
@<TRIPOS>BOND
     1   162   161    2
     2   142   140   ar
     3   142   141   ar
     4   161   160    1
     5   140   138   ar
     6   154   153    2
     7   141   139   ar
     8   160   159    1
     9   160   163    1
    10   146   145    2
    11   153   159   am
    12   153   152    1
    13   138   139   ar
    14   138   137    1
    15   163   164    1
    16   152   151    1
    17   152   155    1
    18   145   151   am
    19   145   144    1
    20   137   134    1
    21   147   148    1
    22   147   144    1
    23   143   144    1
    24   143   135   am
    25   166   164    1
    26   150   148   am
    27   158   156    1
    28   148   149    2
    29   134   135    1
    30   134   133    1
    31   155   156    1
    32   164   165    1
    33   108   106    1
    34   135   136    2
    35   156   157    1
    36     1     2    1
    37   107   106    1
    38   106   103    1
    39     3     2    1
    40     3     4    2
    41     2     5    1
    42   212   214   ar
    43   212   210   ar
    44   214   215   ar
    45   103   102    1
    46   103   104    1
    47   209   210    1
    48   209   206    1
    49   210   211   ar
    50   215   213   ar
    51     5     7    1
    52     5     6    1
    53   123   121    1
    54     8     9    1
    55   211   213   ar
    56   112   111    2
    57   104   109   am
    58   104   105    2
    59   207   206    1
    60   207   208    2
    61   109   110    1
    62    16    14   ar
    63    16    18   ar
    64   206   205    1
    65    76    77    1
    66    14    13   ar
    67   111   117   am
    68   111   110    1
    69    19    18    1
    70   121   118    1
    71   121   122    1
    72     9    10    1
    73     9    12    1
    74   118   117    1
    75   118   119    1
    76    18    17   ar
    77   110   113    1
    78    11    10    2
    79   191   190    1
    80    13    12    1
    81    13    15   ar
    82   205   195   am
    83    77    80    1
    84    77    78    1
    85   122   124    1
    86   120   119    2
    87   192   190    1
    88    17    15   ar
    89   119   125   am
    90   167   168    1
    91   189   188    2
    92   188   187    1
    93   190   187    1
    94   113   114    1
    95   195   196    2
    96   195   194    1
    97   101    99   ar
    98    78    81   am
    99    78    79    2
   100    81    82    1
   101    86    85    1
   102    27    25    1
   103   172   173    1
   104   172   171    1
   105   125   126    1
   106    85    82    1
   107   187   186    1
   108   168   171    1
   109   168   169    1
   110   114   115   ar
   111   114   116   ar
   112    26    25    1
   113    35    34    1
   114   193   194    1
   115    82    83    1
   116   186   180   am
   117    99    98    1
   118    99   100   ar
   119   194   197    1
   120   173   174    1
   121    25    24    1
   122   197   198    1
   123   169   170    2
   124   169   178   am
   125    34    33    1
   126    98    97    1
   127   126   127    1
   128   126   129    1
   129   127   128    2
   130   178   179    1
   131   174   175    2
   132    96    95    2
   133   180   179    1
   134   180   181    2
   135    83    87   am
   136    83    84    2
   137    95    94    1
   138    24    21    1
   139    87    88    1
   140   198   200   ar
   141   198   199   ar
   142   200   202   ar
   143    97    94    1
   144   129   130    1
   145   179   182    1
   146    33    32    1
   147   175   177    1
   148   175   176    1
   149    94    93    1
   150    90    89    2
   151    21    20    1
   152    21    22    1
   153    42    40    1
   154    88    89    1
   155    88    91    1
   156   202   203   ar
   157   199   201   ar
   158    32    29    1
   159   130   131   ar
   160   130   132   ar
   161   182   183    1
   162    23    22    2
   163   183   184    2
   164   183   185   am
   165    91    92    1
   166    40    41    1
   167    40    37    1
   168   203   201   ar
   169   203   204    1
   170    31    30    2
   171    29    30    1
   172    29    28    1
   173    30    36   am
   174    36    37    1
   175    37    38    1
   176    68    67    2
   177    64    63    1
   178    55    52    1
   179    55    56    1
   180    74    73    1
   181    38    43   am
   182    38    39    2
   183    58    56   am
   184    67    66    1
   185    69    70    1
   186    69    66    1
   187    65    66    1
   188    71    70    1
   189    71    72    1
   190    43    44    1
   191    46    45    2
   192    73    72    2
   193    73    75    1
   194    63    60    1
   195    52    51    1
   196    52    53    1
   197    56    57    2
   198    54    53    2
   199    45    51   am
   200    45    44    1
   201    44    47    1
   202    60    59    1
   203    60    61    1
   204    47    48    1
   205    47    49    1
   206    48    50    1
   207    61    62    2
