@<TRIPOS>MOLECULE
tmp/5fu2A00.pdb
 106 102 0 0 0
SMALL
GASTEIGER

@<TRIPOS>ATOM
      1  N         19.2040   26.7650    6.0130 N.3     2  ALA2       -0.1245
      2  CA        18.5240   27.9990    6.4020 C.3     2  ALA2        0.1562
      3  C         17.2050   27.7170    7.1050 C.2     2  ALA2        0.2260
      4  O         16.5590   26.6870    6.8340 O.2     2  ALA2       -0.2867
      5  CB        18.2970   28.8800    5.1980 C.3     2  ALA2        0.0290
      6  N         13.5460   29.7430    8.1120 N.3     4  LEU4       -0.1245
      7  CA        12.7580   30.9590    7.7690 C.3     4  LEU4        0.1561
      8  C         11.5230   31.0740    8.6300 C.2     4  LEU4        0.2260
      9  O         10.8120   30.0870    8.8450 O.2     4  LEU4       -0.2867
     10  CB        12.3390   30.9450    6.2950 C.3     4  LEU4        0.0270
     11  CG        13.2820   30.3190    5.3010 C.3     4  LEU4        0.0019
     12  CD1       12.6560   30.2980    3.9120 C.3     4  LEU4        0.0001
     13  CD2       14.6110   31.0540    5.2880 C.3     4  LEU4        0.0001
     14  N         28.2240   30.6450   17.0050 N.3    29  THR29      -0.1218
     15  CA        28.3690   31.7000   16.0040 C.3    29  THR29       0.1862
     16  C         27.1340   31.6290   15.1300 C.2    29  THR29       0.2287
     17  O         26.7900   30.5670   14.6670 O.2    29  THR29      -0.2866
     18  CB        29.6060   31.3960   15.1240 C.3    29  THR29       0.1770
     19  OG1       30.7450   31.2340   15.9730 O.3    29  THR29      -0.2211
     20  CG2       29.8540   32.4950   14.1390 C.3    29  THR29       0.0375
     21  N         24.4260   33.8410   12.1060 N.3    31  ASN31      -0.1240
     22  CA        24.0120   35.0230   11.3180 C.3    31  ASN31       0.1653
     23  C         22.8050   34.7200   10.4690 C.2    31  ASN31       0.2266
     24  O         22.3870   33.5860   10.3550 O.2    31  ASN31      -0.2867
     25  CB        25.1740   35.6010   10.4940 C.3    31  ASN31       0.1155
     26  CG        25.6410   34.7130    9.3480 C.2    31  ASN31       0.2627
     27  OD1       24.8670   34.1220    8.6270 O.2    31  ASN31      -0.2716
     28  ND2       26.9490   34.7040    9.1410 N.am   31  ASN31      -0.0877
     29  N         13.6080   41.2450   -3.5050 N.3    42  TRP42      -0.1241
     30  CA        13.9780   40.8490   -2.1450 C.3    42  TRP42       0.1605
     31  C         15.1830   41.6160   -1.6250 C.2    42  TRP42       0.2264
     32  O         16.2240   41.6660   -2.2760 O.2    42  TRP42      -0.2867
     33  CB        14.2800   39.3560   -2.1240 C.3    42  TRP42       0.0550
     34  CG        14.4080   38.7510   -0.7350 C.ar   42  TRP42       0.0003
     35  CD1       15.5410   38.3080   -0.1430 C.ar   42  TRP42       0.0946
     36  CD2       13.3360   38.4560    0.1610 C.ar   42  TRP42       0.0152
     37  NE1       15.2520   37.7810    1.0810 N.ar   42  TRP42      -0.2442
     38  CE2       13.8990   37.8560    1.2870 C.ar   42  TRP42       0.0810
     39  CE3       11.9540   38.6210    0.1130 C.ar   42  TRP42       0.0012
     40  CZ2       13.1230   37.4280    2.3720 C.ar   42  TRP42       0.0191
     41  CZ3       11.1840   38.2010    1.1850 C.ar   42  TRP42       0.0001
     42  CH2       11.7640   37.6190    2.2920 C.ar   42  TRP42       0.0015
     43  N         17.4550   42.5240    2.1510 N.3    44  LYS44      -0.1245
     44  CA        17.8760   41.8130    3.3410 C.3    44  LYS44       0.1561
     45  C         18.5660   42.7650    4.2990 C.2    44  LYS44       0.2260
     46  O         19.4760   43.4610    3.8940 O.2    44  LYS44      -0.2867
     47  CB        18.8670   40.7170    2.9290 C.3    44  LYS44       0.0271
     48  CG        18.2810   39.6660    1.9960 C.3    44  LYS44       0.0035
     49  CD        19.3020   38.6270    1.6390 C.3    44  LYS44       0.0206
     50  CE        20.3620   39.0890    0.7000 C.3    44  LYS44       0.1093
     51  NZ        20.9130   37.9490   -0.0940 N.3    44  LYS44      -0.1314
     52  N         20.8570   42.2420    7.1370 N.3    46  GLU46      -0.1245
     53  CA        21.6540   41.1650    7.7430 C.3    46  GLU46       0.1567
     54  C         21.8390   41.4180    9.2280 C.2    46  GLU46       0.2260
     55  O         21.8550   42.5790    9.6840 O.2    46  GLU46      -0.2867
     56  CB        22.9800   40.9710    6.9950 C.3    46  GLU46       0.0388
     57  CG        22.8240   40.4640    5.5560 C.3    46  GLU46       0.1160
     58  CD        22.5740   41.5130    4.4950 C.2    46  GLU46       0.3649
     59  OE1       22.3840   42.7290    4.7980 O.co2  46  GLU46      -0.2457
     60  OE2       22.5850   41.1180    3.3080 O.co2  46  GLU46      -0.2457
     61  N         10.4950   37.7380    5.9980 N.3    74  GLU74      -0.1245
     62  CA        10.9510   36.5580    6.7430 C.3    74  GLU74       0.1567
     63  C         12.1420   36.9150    7.6100 C.2    74  GLU74       0.2260
     64  O         13.1090   37.5460    7.1430 O.2    74  GLU74      -0.2867
     65  CB        11.4070   35.4840    5.7620 C.3    74  GLU74       0.0388
     66  CG        10.2870   34.8090    5.0230 C.3    74  GLU74       0.1160
     67  CD        10.7830   33.8890    3.9280 C.2    74  GLU74       0.3649
     68  OE1       11.9980   33.8200    3.6770 O.co2  74  GLU74      -0.2457
     69  OE2        9.9230   33.2490    3.3190 O.co2  74  GLU74      -0.2457
     70  N         15.2820   35.2350    8.8650 N.3    76  GLN76      -0.1245
     71  CA        16.0420   34.0910    8.3920 C.3    76  GLN76       0.1566
     72  C         17.2530   33.8520    9.2650 C.2    76  GLN76       0.2260
     73  O         18.0000   34.7660    9.6030 O.2    76  GLN76      -0.2867
     74  CB        16.4800   34.2450    6.9170 C.3    76  GLN76       0.0367
     75  CG        15.3590   34.6130    5.9560 C.3    76  GLN76       0.0905
     76  CD        15.7570   34.5270    4.5010 C.2    76  GLN76       0.2608
     77  OE1       16.9240   34.5610    4.1630 O.2    76  GLN76      -0.2717
     78  NE2       14.7610   34.4220    3.6450 N.am   76  GLN76      -0.0878
     79  N         20.7500   31.8720    8.8450 N.3    78  TRP78      -0.1227
     80  CA        21.6400   31.3460    7.8290 C.3    78  TRP78       0.1737
     81  C         22.6550   30.4670    8.5510 C.2    78  TRP78       0.2595
     82  O         22.4340   29.2880    8.7050 O.2    78  TRP78      -0.2718
     83  CB        22.2960   32.5020    7.0530 C.3    78  TRP78       0.0564
     84  CG        21.3420   33.3020    6.2350 C.ar   78  TRP78       0.0003
     85  CD1       20.0790   32.9830    5.8540 C.ar   78  TRP78       0.0946
     86  CD2       21.5980   34.6080    5.7080 C.ar   78  TRP78       0.0152
     87  NE1       19.5340   34.0040    5.0890 N.ar   78  TRP78      -0.2442
     88  CE2       20.4570   35.0040    4.9890 C.ar   78  TRP78       0.0810
     89  CE3       22.7000   35.4660    5.7500 C.ar   78  TRP78       0.0012
     90  CZ2       20.3930   36.2280    4.2840 C.ar   78  TRP78       0.0191
     91  CZ3       22.6270   36.6960    5.0740 C.ar   78  TRP78       0.0001
     92  CH2       21.4860   37.0520    4.3520 C.ar   78  TRP78       0.0015
     93  N         23.7310   31.0390    9.0500 N.am   79  TRP79      -0.1976
     94  CA        24.7890   30.3000    9.7060 C.3    79  TRP79       0.1640
     95  C         24.4130   30.0820   11.1410 C.2    79  TRP79       0.2290
     96  O         24.0050   31.0170   11.8150 O.2    79  TRP79      -0.2864
     97  CB        26.0680   31.1130    9.6860 C.3    79  TRP79       0.0576
     98  CG        27.2160   30.4250   10.2510 C.ar   79  TRP79       0.0006
     99  CD1       27.7290   30.5600   11.5080 C.ar   79  TRP79       0.0946
    100  CD2       28.0220   29.4690    9.5880 C.ar   79  TRP79       0.0152
    101  NE1       28.8190   29.7470   11.6570 N.ar   79  TRP79      -0.2442
    102  CE2       29.0240   29.0700   10.4850 C.ar   79  TRP79       0.0810
    103  CE3       28.0160   28.9390    8.3060 C.ar   79  TRP79       0.0012
    104  CZ2       29.9890   28.1520   10.1420 C.ar   79  TRP79       0.0191
    105  CZ3       28.9490   28.0310    7.9700 C.ar   79  TRP79       0.0001
    106  CH2       29.9460   27.6470    8.8620 C.ar   79  TRP79       0.0015
@<TRIPOS>BOND
     1    29    30    1
     2    32    31    2
     3    30    33    1
     4    30    31    1
     5    33    34    1
     6    34    35   ar
     7    34    36   ar
     8    35    37   ar
     9    51    50    1
    10    39    36   ar
    11    39    41   ar
    12    36    38   ar
    13    50    49    1
    14    37    38   ar
    15    41    42   ar
    16    38    40   ar
    17    49    48    1
    18    48    47    1
    19    43    44    1
    20    42    40   ar
    21    47    44    1
    22    60    58   ar
    23    69    67   ar
    24    44    45    1
    25    78    76   am
    26    68    67   ar
    27    46    45    2
    28    12    11    1
    29    67    66    1
    30    77    76    2
    31    90    92   ar
    32    90    88   ar
    33    92    91   ar
    34    58    59   ar
    35    58    57    1
    36    76    75    1
    37    88    87   ar
    38    88    86   ar
    39    66    65    1
    40    91    89   ar
    41    87    85   ar
    42     5     2    1
    43    13    11    1
    44    11    10    1
    45    57    56    1
    46    86    89   ar
    47    86    84   ar
    48    65    62    1
    49    85    84   ar
    50    75    74    1
    51    61    62    1
    52     1     2    1
    53    84    83    1
    54    10     7    1
    55     2     3    1
    56    62    63    1
    57     4     3    2
    58    74    71    1
    59    56    53    1
    60    83    80    1
    61    52    53    1
    62    64    63    2
    63    53    54    1
    64     7     6    1
    65     7     8    1
    66    80    81    1
    67    80    79    1
    68   105   103   ar
    69   105   106   ar
    70   103   100   ar
    71    71    70    1
    72    71    72    1
    73    81    82    2
    74    81    93   am
    75    27    26    2
    76     8     9    2
    77   106   104   ar
    78    93    94    1
    79    28    26   am
    80    54    55    2
    81    72    73    2
    82    26    25    1
    83   100    98   ar
    84   100   102   ar
    85    97    94    1
    86    97    98    1
    87    94    95    1
    88   104   102   ar
    89    98    99   ar
    90    24    23    2
    91    23    22    1
    92   102   101   ar
    93    25    22    1
    94    95    96    2
    95    22    21    1
    96    99   101   ar
    97    20    18    1
    98    17    16    2
    99    18    19    1
   100    18    15    1
   101    16    15    1
   102    15    14    1
