@<TRIPOS>MOLECULE
tmp/5fubA00.pdb
 213 204 0 0 0
SMALL
GASTEIGER

@<TRIPOS>ATOM
      1  N          2.3780   12.4120   52.8200 N.3     9  TYR9       -0.1227
      2  CA         2.8190   13.4770   51.9190 C.3     9  TYR9        0.1736
      3  C          1.6980   14.4750   51.6520 C.2     9  TYR9        0.2595
      4  O          1.8650   15.6840   51.8520 O.2     9  TYR9       -0.2718
      5  CB         3.3260   12.8750   50.6050 C.3     9  TYR9        0.0548
      6  CG         3.7300   13.8950   49.5610 C.ar    9  TYR9       -0.0200
      7  CD1        4.9900   14.4790   49.5870 C.ar    9  TYR9       -0.0009
      8  CD2        2.8580   14.2640   48.5410 C.ar    9  TYR9       -0.0009
      9  CE1        5.3700   15.4080   48.6330 C.ar    9  TYR9        0.0417
     10  CE2        3.2290   15.1980   47.5770 C.ar    9  TYR9        0.0417
     11  CZ         4.4860   15.7600   47.6300 C.ar    9  TYR9        0.1957
     12  OH         4.8650   16.6840   46.6860 O.3     9  TYR9       -0.2866
     13  N          0.5440   13.9900   51.1850 N.am   10  PHE10      -0.1976
     14  CA        -0.5510   14.9090   50.8940 C.3    10  PHE10       0.1639
     15  C         -1.2330   15.4040   52.1630 C.2    10  PHE10       0.2290
     16  O         -1.7940   16.5050   52.1650 O.2    10  PHE10      -0.2864
     17  CB        -1.5660   14.2560   49.9580 C.3    10  PHE10       0.0560
     18  CG        -1.0310   14.0070   48.5740 C.ar   10  PHE10      -0.0200
     19  CD1       -0.7130   15.0690   47.7410 C.ar   10  PHE10      -0.0042
     20  CD2       -0.8380   12.7160   48.1130 C.ar   10  PHE10      -0.0042
     21  CE1       -0.2150   14.8470   46.4720 C.ar   10  PHE10      -0.0003
     22  CE2       -0.3450   12.4840   46.8420 C.ar   10  PHE10      -0.0003
     23  CZ        -0.0350   13.5550   46.0190 C.ar   10  PHE10      -0.0000
     24  N          0.5490   18.5520   53.0630 N.3    13  TYR13      -0.1241
     25  CA         0.1840   19.6810   52.2150 C.3    13  TYR13       0.1605
     26  C         -1.2700   20.1130   52.3830 C.2    13  TYR13       0.2264
     27  O         -1.6930   21.0800   51.7340 O.2    13  TYR13      -0.2867
     28  CB         0.4740   19.3540   50.7460 C.3    13  TYR13       0.0534
     29  CG         1.9280   19.5440   50.3800 C.ar   13  TYR13      -0.0201
     30  CD1        2.5020   20.8110   50.3980 C.ar   13  TYR13      -0.0009
     31  CD2        2.7290   18.4650   50.0230 C.ar   13  TYR13      -0.0009
     32  CE1        3.8270   21.0010   50.0690 C.ar   13  TYR13       0.0417
     33  CE2        4.0610   18.6470   49.6890 C.ar   13  TYR13       0.0417
     34  CZ         4.6020   19.9180   49.7140 C.ar   13  TYR13       0.1957
     35  OH         5.9220   20.1190   49.3870 O.3    13  TYR13      -0.2866
     36  N          2.3600   25.5770   53.2490 N.3    19  HIS19      -0.1241
     37  CA         2.0450   26.6280   52.2860 C.3    19  HIS19       0.1621
     38  C          2.5160   27.9860   52.7810 C.2    19  HIS19       0.2264
     39  O          2.9560   28.8220   51.9830 O.2    19  HIS19      -0.2867
     40  CB         0.5510   26.6420   51.9890 C.3    19  HIS19       0.0745
     41  CG         0.0740   25.3980   51.3140 C.ar   19  HIS19       0.0817
     42  ND1        0.3610   25.1120   49.9960 N.ar   19  HIS19      -0.2268
     43  CD2       -0.6410   24.3480   51.7830 C.ar   19  HIS19       0.1154
     44  CE1       -0.1690   23.9440   49.6780 C.ar   19  HIS19       0.1986
     45  NE2       -0.7830   23.4610   50.7430 N.ar   19  HIS19      -0.2212
     46  N          6.1140   28.0930   51.7760 N.3    22  MET22      -0.1230
     47  CA         6.3110   28.3670   50.3530 C.3    22  MET22       0.1702
     48  C          5.9950   29.8200   50.0200 C.2    22  MET22       0.2592
     49  O          6.7490   30.4810   49.2960 O.2    22  MET22      -0.2718
     50  CB         5.4460   27.4330   49.5080 C.3    22  MET22       0.0401
     51  CG         5.5140   25.9880   49.9300 C.3    22  MET22       0.0596
     52  SD         5.8100   24.8600   48.5720 S.3    22  MET22      -0.1393
     53  CE         7.5110   25.2630   48.2020 C.3    22  MET22       0.0692
     54  N          4.8780   30.3370   50.5380 N.am   23  LEU23      -0.1980
     55  CA         4.4730   31.6940   50.1880 C.3    23  LEU23       0.1596
     56  C          5.3330   32.7430   50.8830 C.2    23  LEU23       0.2287
     57  O          5.4880   33.8520   50.3600 O.2    23  LEU23      -0.2864
     58  CB         2.9950   31.8970   50.5150 C.3    23  LEU23       0.0297
     59  CG         2.0640   30.9960   49.7010 C.3    23  LEU23       0.0022
     60  CD1        0.6140   31.1840   50.1130 C.3    23  LEU23       0.0001
     61  CD2        2.2400   31.2620   48.2130 C.3    23  LEU23       0.0001
     62  N         11.3390   32.4750   45.7610 N.3    28  ARG28      -0.1245
     63  CA        10.6290   31.4090   45.0610 C.3    28  ARG28       0.1563
     64  C          9.3440   31.9260   44.4250 C.2    28  ARG28       0.2260
     65  O          9.1280   31.7680   43.2170 O.2    28  ARG28      -0.2867
     66  CB        10.3200   30.2680   46.0320 C.3    28  ARG28       0.0307
     67  CG         9.6220   29.0770   45.4100 C.3    28  ARG28       0.0489
     68  CD         8.7820   28.3410   46.4450 C.3    28  ARG28       0.2205
     69  NE         7.5460   29.0650   46.7250 N.pl3  28  ARG28      -0.0865
     70  CZ         6.3690   28.7550   46.1920 C.cat  28  ARG28       0.5346
     71  NH1        6.2690   27.7260   45.3640 N.pl3  28  ARG28       0.1354
     72  NH2        5.2940   29.4700   46.4860 N.pl3  28  ARG28       0.1354
     73  N         -1.5680   24.1930   35.8910 N.3    50  ASP50      -0.1225
     74  CA        -0.7970   24.4420   37.1110 C.3    50  ASP50       0.1805
     75  C         -0.8320   23.1600   37.9390 C.2    50  ASP50       0.2598
     76  O         -1.8000   22.8910   38.6530 O.2    50  ASP50      -0.2718
     77  CB        -1.3610   25.6330   37.8800 C.3    50  ASP50       0.1424
     78  CG        -0.6070   25.9150   39.1810 C.2    50  ASP50       0.3668
     79  OD1        0.4470   25.2870   39.4350 O.co2  50  ASP50      -0.2456
     80  OD2       -1.0670   26.7910   39.9460 O.co2  50  ASP50      -0.2456
     81  N          0.2350   22.3780   37.8500 N.am   51  LEU51      -0.1966
     82  CA         0.2570   21.0320   38.4110 C.3    51  LEU51       0.1728
     83  C          0.7360   21.0970   39.8550 C.2    51  LEU51       0.2617
     84  O          1.9060   21.3930   40.1160 O.2    51  LEU51      -0.2715
     85  CB         1.1500   20.1240   37.5760 C.3    51  LEU51       0.0311
     86  CG         0.9880   18.6470   37.9170 C.3    51  LEU51       0.0022
     87  CD1       -0.4480   18.2140   37.6840 C.3    51  LEU51       0.0001
     88  CD2        1.9230   17.8410   37.0720 C.3    51  LEU51       0.0001
     89  N         -0.1630   20.8040   40.7900 N.am   52  GLY52      -0.1940
     90  CA         0.1580   20.9040   42.2010 C.3    52  GLY52       0.2014
     91  C          0.0770   22.3450   42.6530 C.2    52  GLY52       0.2639
     92  O          1.0690   22.9190   43.1130 O.2    52  GLY52      -0.2714
     93  N         -1.1120   22.9370   42.5230 N.am   53  CYS53      -0.1953
     94  CA        -1.2900   24.3740   42.6820 C.3    53  CYS53       0.1843
     95  C         -1.3240   24.8240   44.1380 C.2    53  CYS53       0.2626
     96  O         -1.2050   26.0270   44.3930 O.2    53  CYS53      -0.2714
     97  CB        -2.5760   24.8240   41.9800 C.3    53  CYS53       0.0997
     98  SG        -4.1190   24.1870   42.6950 S.3    53  CYS53      -0.0797
     99  N         -1.4830   23.9090   45.0830 N.am   54  GLY54      -0.1940
    100  CA        -1.5250   24.3000   46.4850 C.3    54  GLY54       0.2014
    101  C         -2.6700   25.2630   46.7360 C.2    54  GLY54       0.2639
    102  O         -3.8340   24.9690   46.4370 O.2    54  GLY54      -0.2714
    103  N         -2.3390   26.4430   47.2720 N.am   55  THR55      -0.1950
    104  CA        -3.3230   27.5000   47.4780 C.3    55  THR55       0.1897
    105  C         -3.8160   28.1060   46.1710 C.2    55  THR55       0.2313
    106  O         -4.7810   28.8770   46.1940 O.2    55  THR55      -0.2863
    107  CB        -2.7420   28.6170   48.3540 C.3    55  THR55       0.1794
    108  OG1       -1.5620   29.1470   47.7350 O.3    55  THR55      -0.2208
    109  CG2       -2.3950   28.0930   49.7380 C.3    55  THR55       0.0378
    110  N         -1.7500   29.9250   44.0300 N.3    57  VAL57      -0.1231
    111  CA        -1.1010   31.2190   43.8290 C.3    57  VAL57       0.1692
    112  C         -0.6130   31.3710   42.3890 C.2    57  VAL57       0.2591
    113  O         -0.8060   32.4200   41.7620 O.2    57  VAL57      -0.2718
    114  CB         0.0430   31.4020   44.8440 C.3    57  VAL57       0.0266
    115  CG1        0.9130   30.1510   44.9050 C.3    57  VAL57       0.0020
    116  CG2        0.8800   32.6150   44.4860 C.3    57  VAL57       0.0020
    117  N          0.0200   30.3290   41.8390 N.am   58  ILE58      -0.1980
    118  CA         0.5340   30.4190   40.4720 C.3    58  ILE58       0.1595
    119  C         -0.6130   30.5620   39.4770 C.2    58  ILE58       0.2287
    120  O         -0.5190   31.3170   38.5000 O.2    58  ILE58      -0.2864
    121  CB         1.4200   29.2020   40.1430 C.3    58  ILE58       0.0276
    122  CG1        2.6010   29.1120   41.1110 C.3    58  ILE58       0.0022
    123  CG2        1.9230   29.2710   38.6990 C.3    58  ILE58       0.0022
    124  CD1        3.4630   27.8670   40.8980 C.3    58  ILE58       0.0001
    125  N         -4.6410   22.0760   39.5410 N.3    74  VAL74      -0.1231
    126  CA        -4.7610   20.6890   39.9760 C.3    74  VAL74       0.1692
    127  C         -4.0500   20.5340   41.3150 C.2    74  VAL74       0.2592
    128  O         -2.8720   20.8860   41.4420 O.2    74  VAL74      -0.2718
    129  CB        -4.1830   19.7260   38.9230 C.3    74  VAL74       0.0266
    130  CG1       -4.1540   18.3100   39.4520 C.3    74  VAL74       0.0020
    131  CG2       -5.0000   19.7930   37.6260 C.3    74  VAL74       0.0020
    132  N         -4.7610   20.0020   42.3100 N.am   75  GLU75      -0.1966
    133  CA        -4.1900   19.8070   43.6410 C.3    75  GLU75       0.1733
    134  C         -4.8220   18.5800   44.2820 C.2    75  GLU75       0.2616
    135  O         -6.0480   18.5050   44.3970 O.2    75  GLU75      -0.2715
    136  CB        -4.4090   21.0460   44.5150 C.3    75  GLU75       0.0429
    137  CG        -4.0890   20.8100   45.9800 C.3    75  GLU75       0.1163
    138  CD        -2.6220   20.4890   46.1910 C.2    75  GLU75       0.3649
    139  OE1       -1.7690   21.1640   45.5800 O.co2  75  GLU75      -0.2457
    140  OE2       -2.3220   19.5590   46.9670 O.co2  75  GLU75      -0.2457
    141  N         -3.9940   17.6310   44.7170 N.am   76  ALA76      -0.1977
    142  CA        -4.4960   16.3650   45.2400 C.3    76  ALA76       0.1597
    143  C         -4.8210   16.4060   46.7270 C.2    76  ALA76       0.2287
    144  O         -5.5810   15.5540   47.1980 O.2    76  ALA76      -0.2864
    145  CB        -3.4830   15.2440   44.9890 C.3    76  ALA76       0.0319
    146  N         -7.4950   16.3440   42.1610 N.3   101  GLU101     -0.1231
    147  CA        -7.1020   15.0740   41.5740 C.3   101  GLU101      0.1699
    148  C         -5.5900   14.9470   41.6420 C.2   101  GLU101      0.2592
    149  O         -4.8720   15.9490   41.7130 O.2   101  GLU101     -0.2718
    150  CB        -7.5780   14.9550   40.1140 C.3   101  GLU101      0.0402
    151  CG        -9.0920   15.0380   39.9500 C.3   101  GLU101      0.1161
    152  CD        -9.5580   14.8940   38.5110 C.2   101  GLU101      0.3649
    153  OE1       -8.7490   14.4840   37.6520 O.co2 101  GLU101     -0.2457
    154  OE2      -10.7420   15.1930   38.2430 O.co2 101  GLU101     -0.2457
    155  N         -5.1170   13.7040   41.6400 N.am  102  ARG102     -0.1966
    156  CA        -3.7020   13.4440   41.4380 C.3   102  ARG102      0.1729
    157  C         -3.3650   13.5360   39.9570 C.2   102  ARG102      0.2616
    158  O         -4.1750   13.1890   39.0910 O.2   102  ARG102     -0.2715
    159  CB        -3.3120   12.0600   41.9630 C.3   102  ARG102      0.0348
    160  CG        -3.2020   11.9450   43.4750 C.3   102  ARG102      0.0492
    161  CD        -2.4570   10.6670   43.8210 C.3   102  ARG102      0.2205
    162  NE        -2.7950    9.6200   42.8660 N.pl3 102  ARG102     -0.0865
    163  CZ        -1.9410    8.7100   42.4170 C.cat 102  ARG102      0.5346
    164  NH1       -0.6840    8.7150   42.8340 N.pl3 102  ARG102      0.1354
    165  NH2       -2.3450    7.8000   41.5410 N.pl3 102  ARG102      0.1354
    166  N         -2.1530   14.0170   39.6710 N.am  103  ALA103     -0.1963
    167  CA        -1.6910   14.0830   38.2880 C.3   103  ALA103      0.1728
    168  C         -1.7600   12.7210   37.6100 C.2   103  ALA103      0.2616
    169  O         -2.0410   12.6380   36.4100 O.2   103  ALA103     -0.2715
    170  CB        -0.2630   14.6220   38.2390 C.3   103  ALA103      0.0334
    171  N         -1.5270   11.6480   38.3680 N.am  104  GLU104     -0.1977
    172  CA        -1.5060   10.3090   37.7930 C.3   104  GLU104      0.1602
    173  C         -2.8910    9.8610   37.3370 C.2   104  GLU104      0.2287
    174  O         -3.0080    9.1310   36.3470 O.2   104  GLU104     -0.2864
    175  CB        -0.9270    9.3230   38.8080 C.3   104  GLU104      0.0415
    176  CG         0.5580    9.5360   39.1260 C.3   104  GLU104      0.1163
    177  CD         0.8310   10.7050   40.0740 C.2   104  GLU104      0.3649
    178  OE1       -0.1170   11.4250   40.4560 O.co2 104  GLU104     -0.2457
    179  OE2        2.0080   10.8960   40.4470 O.co2 104  GLU104     -0.2457
    180  N          5.6150   23.8700   40.5630 N.3   118  GLU118     -0.1245
    181  CA         6.7000   24.0370   41.5190 C.3   118  GLU118      0.1567
    182  C          6.8960   22.6670   42.1650 C.2   118  GLU118      0.2260
    183  O          6.2890   22.3500   43.1870 O.2   118  GLU118     -0.2867
    184  CB         6.3790   25.1370   42.5260 C.3   118  GLU118      0.0388
    185  CG         7.6110   25.7610   43.1540 C.3   118  GLU118      0.1160
    186  CD         8.2730   24.8230   44.1330 C.2   118  GLU118      0.3649
    187  OE1        7.6900   24.6090   45.2110 O.co2 118  GLU118     -0.2457
    188  OE2        9.3530   24.2810   43.8200 O.co2 118  GLU118     -0.2457
    189  N          8.2260   14.5060   43.0920 N.3   129  MET129     -0.1245
    190  CA         7.0590   15.0910   42.4440 C.3   129  MET129      0.1570
    191  C          7.3010   15.2870   40.9520 C.2   129  MET129      0.2261
    192  O          6.3410   15.3320   40.1720 O.2   129  MET129     -0.2867
    193  CB         6.6980   16.4170   43.1180 C.3   129  MET129      0.0387
    194  CG         5.5340   17.1520   42.4760 C.3   129  MET129      0.0595
    195  SD         5.0810   18.6660   43.3500 S.3   129  MET129     -0.1393
    196  CE         3.9280   19.3790   42.1750 C.3   129  MET129      0.0692
    197  N          5.3580   12.8200   38.8490 N.3   132  SER132     -0.1217
    198  CA         3.9890   13.2480   38.5770 C.3   132  SER132      0.1889
    199  C          3.9440   14.2940   37.4700 C.2   132  SER132      0.2288
    200  O          3.0420   14.2790   36.6230 O.2   132  SER132     -0.2866
    201  CB         3.3390   13.8080   39.8440 C.3   132  SER132      0.2089
    202  OG         3.4900   12.9370   40.9540 O.3   132  SER132     -0.2183
    203  N          9.5070    8.0910   47.2630 N.3   310  ARG310     -0.1245
    204  CA         9.7960    9.5060   47.4390 C.3   310  ARG310      0.1563
    205  C         11.2040    9.7500   47.9630 C.2   310  ARG310      0.2260
    206  O         11.6010   10.9070   48.1230 O.2   310  ARG310     -0.2867
    207  CB         8.7580   10.1510   48.3660 C.3   310  ARG310      0.0307
    208  CG         7.3620   10.1770   47.7450 C.3   310  ARG310      0.0489
    209  CD         6.4770   11.2550   48.3350 C.3   310  ARG310      0.2205
    210  NE         5.1330   11.2000   47.7650 N.pl3 310  ARG310     -0.0865
    211  CZ         4.7370   11.8710   46.6870 C.cat 310  ARG310      0.5346
    212  NH1        5.5830   12.6640   46.0350 N.pl3 310  ARG310      0.1354
    213  NH2        3.4880   11.7470   46.2600 N.pl3 310  ARG310      0.1354
@<TRIPOS>BOND
     1    73    74    1
     2   174   173    2
     3   169   168    2
     4   200   199    2
     5    88    86    1
     6    74    77    1
     7    74    75    1
     8   173   172    1
     9   199   198    1
    10    85    86    1
    11    85    82    1
    12   168   167    1
    13   168   171   am
    14   131   129    1
    15   153   152   ar
    16    87    86    1
    17   172   171    1
    18   172   175    1
    19    81    75   am
    20    81    82    1
    21    77    78    1
    22    75    76    2
    23   170   167    1
    24   154   152   ar
    25   167   166    1
    26    82    83    1
    27   120   119    2
    28   152   151    1
    29   198   197    1
    30   198   201    1
    31   123   121    1
    32   175   176    1
    33   129   130    1
    34   129   126    1
    35   158   157    2
    36   176   177    1
    37    78    79   ar
    38    78    80   ar
    39   119   118    1
    40   125   126    1
    41   166   157   am
    42   201   202    1
    43    83    84    2
    44    83    89   am
    45   151   150    1
    46   157   156    1
    47   126   127    1
    48   177   179   ar
    49   177   178   ar
    50   150   147    1
    51   121   118    1
    52   121   122    1
    53   192   191    2
    54   118   117    1
    55   180   181    1
    56    89    90    1
    57   124   122    1
    58   191   190    1
    59   127   128    2
    60   127   132   am
    61   156   155    1
    62   156   159    1
    63   181   182    1
    64   181   184    1
    65   165   163    1
    66   147   148    1
    67   147   146    1
    68   155   148   am
    69   148   149    2
    70   113   112    2
    71   117   112   am
    72   159   160    1
    73    97    94    1
    74    97    98    1
    75   182   183    2
    76   196   195    1
    77    90    91    1
    78   132   133    1
    79   112   111    1
    80   163   164    1
    81   163   162    2
    82   190   189    1
    83   190   193    1
    84   194   193    1
    85   194   195    1
    86    93    91   am
    87    93    94    1
    88   184   185    1
    89    91    92    2
    90    94    95    1
    91   162   161    1
    92   185   186    1
    93    65    64    2
    94   160   161    1
    95   133   134    1
    96   133   136    1
    97   188   186   ar
    98   111   110    1
    99   111   114    1
   100   186   187   ar
   101    95    96    2
   102    95    99   am
   103   134   135    2
   104   134   141   am
   105    64    63    1
   106   116   114    1
   107   136   137    1
   108   141   142    1
   109   114   115    1
   110   145   142    1
   111    63    62    1
   112    63    66    1
   113    99   100    1
   114   142   143    1
   115    71    70    1
   116    67    66    1
   117    67    68    1
   118   139   138   ar
   119   137   138    1
   120    23    21   ar
   121    23    22   ar
   122   212   211    1
   123   105   106    2
   124   105   104    1
   125   138   140   ar
   126    70    72    1
   127    70    69    2
   128   213   211    1
   129   102   101    2
   130    68    69    1
   131    21    19   ar
   132   100   101    1
   133    12    11    1
   134   211   210    2
   135   143   144    2
   136   101   103   am
   137    22    20   ar
   138   203   204    1
   139   103   104    1
   140   204   205    1
   141   204   207    1
   142   104   107    1
   143    10    11   ar
   144    10     8   ar
   145    11     9   ar
   146   108   107    1
   147    19    18   ar
   148   208   209    1
   149   208   207    1
   150   210   209    1
   151   205   206    2
   152    20    18   ar
   153    53    52    1
   154    61    59    1
   155   107   109    1
   156     8     6   ar
   157    52    51    1
   158    18    17    1
   159     9     7   ar
   160    49    48    2
   161    35    34    1
   162    50    51    1
   163    50    47    1
   164     6     7   ar
   165     6     5    1
   166    44    42   ar
   167    44    45   ar
   168    33    34   ar
   169    33    31   ar
   170    59    60    1
   171    59    58    1
   172    34    32   ar
   173    17    14    1
   174    42    41   ar
   175    48    47    1
   176    48    54   am
   177    31    29   ar
   178    32    30   ar
   179    55    58    1
   180    55    54    1
   181    55    56    1
   182    47    46    1
   183    57    56    2
   184    29    30   ar
   185    29    28    1
   186     5     2    1
   187    45    43   ar
   188    28    25    1
   189    14    13    1
   190    14    15    1
   191    13     3   am
   192    41    43   ar
   193    41    40    1
   194     3     4    2
   195     3     2    1
   196    27    26    2
   197     2     1    1
   198    39    38    2
   199    40    37    1
   200    15    16    2
   201    25    26    1
   202    25    24    1
   203    37    38    1
   204    37    36    1
