@<TRIPOS>MOLECULE
tmp/5fubA01.pdb
 135 134 0 0 0
SMALL
GASTEIGER

@<TRIPOS>ATOM
      1  N          0.8140   10.5240   54.2230 N.3     8  GLU8       -0.1231
      2  CA         1.5970   11.5110   54.9580 C.3     8  GLU8        0.1699
      3  C          1.9960   12.6860   54.0700 C.2     8  GLU8        0.2592
      4  O          1.9680   13.8410   54.5100 O.2     8  GLU8       -0.2718
      5  CB         2.8360   10.8480   55.5570 C.3     8  GLU8        0.0402
      6  CG         3.8460   11.8270   56.1420 C.3     8  GLU8        0.1161
      7  CD         5.1360   11.1510   56.5670 C.2     8  GLU8        0.3649
      8  OE1        5.1580    9.9030   56.6330 O.co2   8  GLU8       -0.2457
      9  OE2        6.1260   11.8670   56.8370 O.co2   8  GLU8       -0.2457
     10  N          2.3780   12.4120   52.8200 N.am    9  TYR9       -0.1976
     11  CA         2.8190   13.4770   51.9190 C.3     9  TYR9        0.1639
     12  C          1.6980   14.4750   51.6520 C.2     9  TYR9        0.2290
     13  O          1.8650   15.6840   51.8520 O.2     9  TYR9       -0.2864
     14  CB         3.3260   12.8750   50.6050 C.3     9  TYR9        0.0560
     15  CG         3.7300   13.8950   49.5610 C.ar    9  TYR9       -0.0198
     16  CD1        4.9900   14.4790   49.5870 C.ar    9  TYR9       -0.0009
     17  CD2        2.8580   14.2640   48.5410 C.ar    9  TYR9       -0.0009
     18  CE1        5.3700   15.4080   48.6330 C.ar    9  TYR9        0.0417
     19  CE2        3.2290   15.1980   47.5770 C.ar    9  TYR9        0.0417
     20  CZ         4.4860   15.7600   47.6300 C.ar    9  TYR9        0.1957
     21  OH         4.8650   16.6840   46.6860 O.3     9  TYR9       -0.2866
     22  N          0.4320   16.3530   54.7990 N.3    12  ASN12      -0.1225
     23  CA         1.2340   17.5170   55.1720 C.3    12  ASN12       0.1785
     24  C          0.8610   18.7430   54.3450 C.2    12  ASN12       0.2597
     25  O          0.8660   19.8710   54.8560 O.2    12  ASN12      -0.2718
     26  CB         2.7250   17.2110   55.0200 C.3    12  ASN12       0.1169
     27  CG         3.2410   16.2770   56.0970 C.2    12  ASN12       0.2627
     28  OD1        2.7160   16.2490   57.2120 O.2    12  ASN12      -0.2716
     29  ND2        4.2770   15.5080   55.7720 N.am   12  ASN12      -0.0877
     30  N          0.5490   18.5520   53.0630 N.am   13  TYR13      -0.1976
     31  CA         0.1840   19.6810   52.2150 C.3    13  TYR13       0.1639
     32  C         -1.2700   20.1130   52.3830 C.2    13  TYR13       0.2290
     33  O         -1.6930   21.0800   51.7340 O.2    13  TYR13      -0.2864
     34  CB         0.4740   19.3540   50.7460 C.3    13  TYR13       0.0560
     35  CG         1.9280   19.5440   50.3800 C.ar   13  TYR13      -0.0198
     36  CD1        2.5020   20.8110   50.3980 C.ar   13  TYR13      -0.0009
     37  CD2        2.7290   18.4650   50.0230 C.ar   13  TYR13      -0.0009
     38  CE1        3.8270   21.0010   50.0690 C.ar   13  TYR13       0.0417
     39  CE2        4.0610   18.6470   49.6890 C.ar   13  TYR13       0.0417
     40  CZ         4.6020   19.9180   49.7140 C.ar   13  TYR13       0.1957
     41  OH         5.9220   20.1190   49.3870 O.3    13  TYR13      -0.2866
     42  N          0.8270   25.0280   57.2570 N.3    17  ARG17      -0.1231
     43  CA         2.2270   25.1840   57.6480 C.3    17  ARG17       0.1694
     44  C          3.1580   25.1710   56.4380 C.2    17  ARG17       0.2591
     45  O          4.0180   26.0470   56.2960 O.2    17  ARG17      -0.2718
     46  CB         2.6170   24.0810   58.6330 C.3    17  ARG17       0.0321
     47  CG         4.0960   24.0600   58.9820 C.3    17  ARG17       0.0489
     48  CD         4.4430   22.8850   59.8970 C.3    17  ARG17       0.2205
     49  NE         4.1910   21.5870   59.2700 N.pl3  17  ARG17      -0.0865
     50  CZ         5.0870   20.9120   58.5530 C.cat  17  ARG17       0.5346
     51  NH1        6.3030   21.4120   58.3650 N.pl3  17  ARG17       0.1354
     52  NH2        4.7700   19.7350   58.0220 N.pl3  17  ARG17       0.1354
     53  N          3.0170   24.1720   55.5610 N.am   18  LEU18      -0.1980
     54  CA         3.9170   24.0910   54.4130 C.3    18  LEU18       0.1596
     55  C          3.6270   25.1900   53.4000 C.2    18  LEU18       0.2287
     56  O          4.5470   25.6940   52.7480 O.2    18  LEU18      -0.2864
     57  CB         3.8280   22.7150   53.7500 C.3    18  LEU18       0.0297
     58  CG         4.5080   21.5570   54.4870 C.3    18  LEU18       0.0022
     59  CD1        4.4580   20.2910   53.6560 C.3    18  LEU18       0.0001
     60  CD2        5.9460   21.9070   54.8400 C.3    18  LEU18       0.0001
     61  N         10.1640   21.1730   42.6700 N.3   120  MET120     -0.1230
     62  CA        11.5280   20.9050   43.1080 C.3   120  MET120      0.1702
     63  C         11.5730   20.6220   44.6060 C.2   120  MET120      0.2593
     64  O         11.0210   21.3780   45.4100 O.2   120  MET120     -0.2718
     65  CB        12.4410   22.0830   42.7640 C.3   120  MET120      0.0401
     66  CG        12.5670   22.3680   41.2680 C.3   120  MET120      0.0596
     67  SD        11.1980   23.3420   40.6100 S.3   120  MET120     -0.1393
     68  CE        11.5360   24.9580   41.3100 C.3   120  MET120      0.0692
     69  N         12.2330   19.5230   44.9750 N.am  121  GLY121     -0.1942
     70  CA        12.5390   19.2310   46.3560 C.3   121  GLY121      0.2014
     71  C         14.0000   19.5240   46.6830 C.2   121  GLY121      0.2638
     72  O         14.7590   20.0590   45.8790 O.2   121  GLY121     -0.2714
     73  N         14.3800   19.1610   47.9070 N.am  122  ASN122     -0.1972
     74  CA        15.7740   19.2540   48.3210 C.3   122  ASN122      0.1688
     75  C         16.6580   18.4730   47.3600 C.2   122  ASN122      0.2292
     76  O         16.3210   17.3600   46.9500 O.2   122  ASN122     -0.2864
     77  CB        15.9450   18.7170   49.7450 C.3   122  ASN122      0.1181
     78  CG        15.8880   19.8090   50.7920 C.2   122  ASN122      0.2629
     79  OD1       16.9190   20.2720   51.2690 O.2   122  ASN122     -0.2716
     80  ND2       14.6810   20.2280   51.1530 N.am  122  ASN122     -0.0877
     81  N         14.2620   15.3590   45.6400 N.3   126  PHE126     -0.1227
     82  CA        13.6780   14.7460   46.8330 C.3   126  PHE126      0.1736
     83  C         12.1520   14.8190   46.7920 C.2   126  PHE126      0.2595
     84  O         11.5760   15.8680   46.4850 O.2   126  PHE126     -0.2718
     85  CB        14.2230   15.4190   48.0930 C.3   126  PHE126      0.0547
     86  CG        13.6940   14.8340   49.3730 C.ar  126  PHE126     -0.0202
     87  CD1       13.9440   13.5080   49.7010 C.ar  126  PHE126     -0.0042
     88  CD2       12.9510   15.6110   50.2500 C.ar  126  PHE126     -0.0042
     89  CE1       13.4510   12.9620   50.8810 C.ar  126  PHE126     -0.0003
     90  CE2       12.4550   15.0740   51.4340 C.ar  126  PHE126     -0.0003
     91  CZ        12.7080   13.7510   51.7520 C.ar  126  PHE126     -0.0000
     92  N         11.5120   13.6760   47.0540 N.am  127  GLU127     -0.1979
     93  CA        10.0800   13.3880   47.0370 C.3   127  GLU127      0.1602
     94  C          9.5420   13.1120   45.6300 C.2   127  GLU127      0.2287
     95  O          8.4020   12.6580   45.5040 O.2   127  GLU127     -0.2864
     96  CB         9.2330   14.4800   47.7160 C.3   127  GLU127      0.0415
     97  CG         9.2710   14.3040   49.2310 C.3   127  GLU127      0.1163
     98  CD         8.8310   15.5230   49.9880 C.2   127  GLU127      0.3649
     99  OE1        8.6080   16.5750   49.3510 O.co2 127  GLU127     -0.2457
    100  OE2        8.7200   15.4240   51.2290 O.co2 127  GLU127     -0.2457
    101  N         13.5980   28.9910   51.1440 N.3   276  HIS276     -0.1226
    102  CA        13.2070   28.0330   52.1740 C.3   276  HIS276      0.1752
    103  C         13.9210   26.6950   52.0120 C.2   276  HIS276      0.2596
    104  O         13.9980   25.9270   52.9760 O.2   276  HIS276     -0.2718
    105  CB        11.6890   27.8270   52.1650 C.3   276  HIS276      0.0759
    106  CG        11.2180   26.8350   51.1480 C.ar  276  HIS276      0.0818
    107  ND1       11.0190   27.1630   49.8240 N.ar  276  HIS276     -0.2268
    108  CD2       10.9000   25.5220   51.2620 C.ar  276  HIS276      0.1154
    109  CE1       10.6050   26.0950   49.1650 C.ar  276  HIS276      0.1986
    110  NE2       10.5240   25.0860   50.0140 N.ar  276  HIS276     -0.2212
    111  N         14.4480   26.4010   50.8190 N.am  277  TRP277     -0.1976
    112  CA        15.2750   25.2120   50.6490 C.3   277  TRP277      0.1640
    113  C         16.6500   25.3880   51.2800 C.2   277  TRP277      0.2290
    114  O         17.2840   24.3970   51.6590 O.2   277  TRP277     -0.2864
    115  CB        15.4540   24.8830   49.1650 C.3   277  TRP277      0.0576
    116  CG        14.2430   24.3770   48.4520 C.ar  277  TRP277      0.0006
    117  CD1       13.7140   23.1230   48.5240 C.ar  277  TRP277      0.0946
    118  CD2       13.4340   25.1010   47.5170 C.ar  277  TRP277      0.0152
    119  NE1       12.6160   23.0240   47.7040 N.ar  277  TRP277     -0.2442
    120  CE2       12.4210   24.2250   47.0760 C.ar  277  TRP277      0.0810
    121  CE3       13.4600   26.4060   47.0190 C.ar  277  TRP277      0.0012
    122  CZ2       11.4430   24.6120   46.1610 C.ar  277  TRP277      0.0191
    123  CZ3       12.4900   26.7900   46.1130 C.ar  277  TRP277      0.0001
    124  CH2       11.4960   25.8940   45.6910 C.ar  277  TRP277      0.0015
    125  N         14.6320   12.8500   56.1210 N.3   337  ARG337     -0.1245
    126  CA        14.6620   13.9890   57.0380 C.3   337  ARG337      0.1563
    127  C         14.9320   13.5470   58.4740 C.2   337  ARG337      0.2260
    128  O         15.3210   14.3550   59.3190 O.2   337  ARG337     -0.2867
    129  CB        13.3480   14.7720   56.9690 C.3   337  ARG337      0.0307
    130  CG        13.1440   15.5100   55.6580 C.3   337  ARG337      0.0489
    131  CD        11.9070   16.3870   55.6940 C.3   337  ARG337      0.2205
    132  NE        11.9070   17.3510   54.5990 N.pl3 337  ARG337     -0.0865
    133  CZ        12.4800   18.5490   54.6630 C.cat 337  ARG337      0.5346
    134  NH1       13.1010   18.9320   55.7710 N.pl3 337  ARG337      0.1354
    135  NH2       12.4360   19.3650   53.6190 N.pl3 337  ARG337      0.1354
@<TRIPOS>BOND
     1    67    66    1
     2    67    68    1
     3    66    65    1
     4    61    62    1
     5    65    62    1
     6    62    63    1
     7    63    69   am
     8    63    64    2
     9    69    70    1
    10    95    94    2
    11    94    93    1
    12    81    82    1
    13   124   123   ar
    14   124   122   ar
    15    72    71    2
    16   123   121   ar
    17   122   120   ar
    18    70    71    1
    19    84    83    2
    20    71    73   am
    21    21    20    1
    22    83    82    1
    23    83    92   am
    24    82    85    1
    25    76    75    2
    26   121   118   ar
    27    93    92    1
    28    93    96    1
    29   120   118   ar
    30   120   119   ar
    31    75    74    1
    32   118   116   ar
    33    19    20   ar
    34    19    17   ar
    35    20    18   ar
    36   119   117   ar
    37    96    97    1
    38    73    74    1
    39    85    86    1
    40    74    77    1
    41   116   117   ar
    42   116   115    1
    43    17    15   ar
    44    18    16   ar
    45   109   107   ar
    46   109   110   ar
    47   115   112    1
    48    97    98    1
    49    99    98   ar
    50    86    87   ar
    51    86    88   ar
    52    41    40    1
    53    15    16   ar
    54    15    14    1
    55    39    40   ar
    56    39    37   ar
    57    87    89   ar
    58    40    38   ar
    59    77    78    1
    60   107   106   ar
    61    98   100   ar
    62   110   108   ar
    63    37    35   ar
    64    38    36   ar
    65    88    90   ar
    66    35    36   ar
    67    35    34    1
    68    14    11    1
    69   112   111    1
    70   112   113    1
    71    34    31    1
    72    78    80   am
    73    78    79    2
    74   111   103   am
    75    89    91   ar
    76   101   102    1
    77   106   108   ar
    78   106   105    1
    79   113   114    2
    80    90    91   ar
    81    12    13    2
    82    12    11    1
    83    33    32    2
    84    11    10    1
    85   103   102    1
    86   103   104    2
    87   105   102    1
    88    31    32    1
    89    31    30    1
    90    56    55    2
    91    10     3   am
    92    30    24   am
    93    55    54    1
    94   135   133    1
    95    59    58    1
    96    57    54    1
    97    57    58    1
    98     3     4    2
    99     3     2    1
   100     1     2    1
   101    24    25    2
   102    24    23    1
   103    54    53    1
   104    58    60    1
   105   132   133    2
   106   132   131    1
   107   133   134    1
   108    22    23    1
   109     2     5    1
   110    26    23    1
   111    26    27    1
   112     5     6    1
   113    53    44   am
   114   130   131    1
   115   130   129    1
   116    29    27   am
   117    27    28    2
   118   125   126    1
   119     6     7    1
   120    45    44    2
   121    44    43    1
   122     7     8   ar
   123     7     9   ar
   124   129   126    1
   125   126   127    1
   126    42    43    1
   127    43    46    1
   128    52    50    1
   129    51    50    1
   130   127   128    2
   131    50    49    2
   132    46    47    1
   133    47    48    1
   134    49    48    1
