@<TRIPOS>MOLECULE
tmp/5fudB00.pdb
 92 88 0 0 0
SMALL
GASTEIGER

@<TRIPOS>ATOM
      1  N         15.9870  -13.4490  -24.5770 N.3    33  ALA33      -0.1231
      2  CA        16.4610  -13.9550  -25.8490 C.3    33  ALA33       0.1694
      3  C         17.8600  -13.3830  -26.0990 C.2    33  ALA33       0.2592
      4  O         18.0210  -12.2660  -26.6000 O.2    33  ALA33      -0.2718
      5  CB        15.4970  -13.5870  -26.9680 C.3    33  ALA33       0.0304
      6  N         18.8730  -14.1660  -25.7460 N.am   34  ALA34      -0.1966
      7  CA        20.2530  -13.7020  -25.7440 C.3    34  ALA34       0.1728
      8  C         21.0410  -14.1850  -26.9560 C.2    34  ALA34       0.2616
      9  O         20.5260  -14.9090  -27.7970 O.2    34  ALA34      -0.2715
     10  CB        20.9270  -14.1430  -24.4740 C.3    34  ALA34       0.0334
     11  N         22.3070  -13.7790  -27.0370 N.am   35  ASN35      -0.1972
     12  CA        23.2190  -14.3770  -27.9920 C.3    35  ASN35       0.1688
     13  C         24.1480  -15.3230  -27.2420 C.2    35  ASN35       0.2292
     14  O         24.1870  -15.3240  -26.0160 O.2    35  ASN35      -0.2864
     15  CB        24.0150  -13.3200  -28.7640 C.3    35  ASN35       0.1181
     16  CG        24.7900  -12.3960  -27.8630 C.2    35  ASN35       0.2629
     17  OD1       25.7180  -12.8160  -27.1820 O.2    35  ASN35      -0.2716
     18  ND2       24.4420  -11.1220  -27.8880 N.am   35  ASN35      -0.0877
     19  N         23.0100   -6.7020  -26.8440 N.3    41  GLY41      -0.1210
     20  CA        22.6320   -6.2610  -28.1800 C.3    41  GLY41       0.1956
     21  C         21.4500   -5.3220  -28.0880 C.2    41  GLY41       0.2612
     22  O         21.2380   -4.6760  -27.0590 O.2    41  GLY41      -0.2717
     23  N         20.6940   -5.2490  -29.1740 N.am   42  GLY42      -0.1942
     24  CA        19.4840   -4.4400  -29.2550 C.3    42  GLY42       0.2014
     25  C         18.3220   -5.3740  -29.0560 C.2    42  GLY42       0.2639
     26  O         18.4940   -6.4610  -28.4900 O.2    42  GLY42      -0.2714
     27  N         17.1420   -4.9510  -29.4880 N.am   43  GLY43      -0.1939
     28  CA        15.9510   -5.7560  -29.3610 C.3    43  GLY43       0.2014
     29  C         15.5480   -5.9670  -27.9190 C.2    43  GLY43       0.2639
     30  O         15.8250   -5.1410  -27.0490 O.2    43  GLY43      -0.2714
     31  N         14.9320   -7.1080  -27.6530 N.am   44  VAL44      -0.1963
     32  CA        14.4590   -7.4200  -26.3070 C.3    44  VAL44       0.1727
     33  C         15.6320   -7.5290  -25.3300 C.2    44  VAL44       0.2616
     34  O         15.5780   -7.0350  -24.1930 O.2    44  VAL44      -0.2715
     35  CB        13.6290   -8.7110  -26.3010 C.3    44  VAL44       0.0290
     36  CG1       13.5700   -9.2850  -24.9040 C.3    44  VAL44       0.0023
     37  CG2       12.2300   -8.4310  -26.8680 C.3    44  VAL44       0.0023
     38  N         16.7050   -8.1580  -25.7850 N.am   45  ASP45      -0.1971
     39  CA        17.9360   -8.2430  -24.9980 C.3    45  ASP45       0.1709
     40  C         18.4630   -6.8680  -24.5430 C.2    45  ASP45       0.2293
     41  O         18.8910   -6.7140  -23.3950 O.2    45  ASP45      -0.2864
     42  CB        18.9980   -9.0000  -25.7980 C.3    45  ASP45       0.1436
     43  CG        20.3440   -9.0230  -25.1170 C.2    45  ASP45       0.3671
     44  OD1       21.0840   -8.0030  -25.2310 O.co2  45  ASP45      -0.2456
     45  OD2       20.6810  -10.0480  -24.4880 O.co2  45  ASP45      -0.2456
     46  N         18.1330  -18.5980  -28.8960 N.3    96  GLY96      -0.1225
     47  CA        17.2980  -19.1320  -29.9530 C.3    96  GLY96       0.1811
     48  C         18.1140  -19.4180  -31.2160 C.2    96  GLY96       0.2280
     49  O         19.1900  -18.8600  -31.3930 O.2    96  GLY96      -0.2866
     50  N          9.0400  -13.1160  -27.4160 N.3   133  SER133     -0.1202
     51  CA         9.1620  -13.9010  -28.6540 C.3   133  SER133      0.2020
     52  C         10.6490  -14.1550  -28.9070 C.2   133  SER133      0.2619
     53  O         11.4340  -13.2040  -28.9970 O.2   133  SER133     -0.2717
     54  CB         8.4920  -13.1890  -29.8360 C.3   133  SER133      0.2103
     55  OG         8.5120  -14.0050  -31.0020 O.3   133  SER133     -0.2182
     56  N         11.0460  -15.4290  -28.9670 N.am  134  ILE134     -0.1965
     57  CA        12.4540  -15.8220  -29.1230 C.3   134  ILE134      0.1727
     58  C         12.7510  -16.0900  -30.5930 C.2   134  ILE134      0.2616
     59  O         11.9580  -16.7450  -31.2880 O.2   134  ILE134     -0.2715
     60  CB        12.7560  -17.1170  -28.3190 C.3   134  ILE134      0.0290
     61  CG1       12.5830  -16.8530  -26.8220 C.3   134  ILE134      0.0022
     62  CG2       14.1580  -17.6540  -28.6260 C.3   134  ILE134      0.0023
     63  CD1       12.6490  -18.0980  -25.9680 C.3   134  ILE134      0.0001
     64  N         13.8620  -15.5390  -31.0720 N.am  135  SER135     -0.1950
     65  CA        14.3510  -15.7440  -32.4540 C.3   135  SER135      0.1924
     66  C         13.6560  -14.9490  -33.5600 C.2   135  SER135      0.2314
     67  O         14.0990  -15.0000  -34.7170 O.2   135  SER135     -0.2863
     68  CB        14.4000  -17.2360  -32.8410 C.3   135  SER135      0.2116
     69  OG        15.4690  -17.8590  -32.1900 O.3   135  SER135     -0.2180
     70  N         13.3930  -11.5840  -33.7190 N.3   137  GLY137     -0.1210
     71  CA        14.0760  -10.3120  -33.9630 C.3   137  GLY137      0.1956
     72  C         15.0950  -10.4920  -35.0790 C.2   137  GLY137      0.2612
     73  O         14.8100  -11.0770  -36.1110 O.2   137  GLY137     -0.2717
     74  N         16.3150  -10.0240  -34.8530 N.am  138  VAL138     -0.1965
     75  CA        17.3620  -10.1290  -35.8630 C.3   138  VAL138      0.1727
     76  C         17.7070  -11.5830  -36.2420 C.2   138  VAL138      0.2616
     77  O         18.3220  -11.8060  -37.2820 O.2   138  VAL138     -0.2715
     78  CB        18.6080   -9.3270  -35.4690 C.3   138  VAL138      0.0290
     79  CG1       18.2730   -7.8380  -35.3430 C.3   138  VAL138      0.0023
     80  CG2       19.2210   -9.8790  -34.1950 C.3   138  VAL138      0.0023
     81  N         17.2550  -12.5660  -35.4600 N.am  139  TYR139     -0.1974
     82  CA        17.4330  -13.9800  -35.8430 C.3   139  TYR139      0.1639
     83  C         16.5050  -14.4670  -36.9760 C.2   139  TYR139      0.2290
     84  O         16.7360  -15.5430  -37.5550 O.2   139  TYR139     -0.2864
     85  CB        17.3920  -14.8890  -34.6050 C.3   139  TYR139      0.0560
     86  CG        18.6590  -14.8490  -33.7350 C.ar  139  TYR139     -0.0198
     87  CD1       19.7770  -14.0860  -34.0910 C.ar  139  TYR139     -0.0009
     88  CD2       18.7390  -15.6010  -32.5730 C.ar  139  TYR139     -0.0009
     89  CE1       20.9230  -14.0590  -33.3070 C.ar  139  TYR139      0.0417
     90  CE2       19.8810  -15.6020  -31.7900 C.ar  139  TYR139      0.0417
     91  CZ        20.9770  -14.8400  -32.1590 C.ar  139  TYR139      0.1957
     92  OH        22.1040  -14.8260  -31.3670 O.3   139  TYR139     -0.2866
@<TRIPOS>BOND
     1    84    83    2
     2    77    76    2
     3    83    82    1
     4    76    75    1
     5    76    81   am
     6    73    72    2
     7    75    78    1
     8    75    74    1
     9    82    81    1
    10    82    85    1
    11    78    79    1
    12    78    80    1
    13    72    74   am
    14    72    71    1
    15    67    66    2
    16    85    86    1
    17    87    86   ar
    18    87    89   ar
    19    71    70    1
    20    86    88   ar
    21    66    65    1
    22    89    91   ar
    23    68    65    1
    24    68    69    1
    25    88    90   ar
    26    65    64    1
    27    91    90   ar
    28    91    92    1
    29    49    48    2
    30    59    58    2
    31    48    47    1
    32    64    58   am
    33    55    54    1
    34    58    57    1
    35    47    46    1
    36    54    51    1
    37    27    28    1
    38    27    25   am
    39    28    29    1
    40    24    23    1
    41    24    25    1
    42    23    21   am
    43    57    56    1
    44    57    60    1
    45    25    26    2
    46    53    52    2
    47    56    52   am
    48    52    51    1
    49    15    12    1
    50    15    16    1
    51    51    50    1
    52    62    60    1
    53    60    61    1
    54    20    21    1
    55    20    19    1
    56    21    22    2
    57    12    13    1
    58    12    11    1
    59    29    31   am
    60    29    30    2
    61    18    16   am
    62    16    17    2
    63     9     8    2
    64    31    32    1
    65    13    14    2
    66    11     8   am
    67     5     2    1
    68     8     7    1
    69    37    35    1
    70    61    63    1
    71     4     3    2
    72    32    35    1
    73    32    33    1
    74    35    36    1
    75     3     2    1
    76     3     6   am
    77     2     1    1
    78    42    43    1
    79    42    39    1
    80    38    33   am
    81    38    39    1
    82     6     7    1
    83     7    10    1
    84    33    34    2
    85    44    43   ar
    86    43    45   ar
    87    39    40    1
    88    40    41    2
