@<TRIPOS>MOLECULE
tmp/5fufA01.pdb
 112 110 0 0 0
SMALL
GASTEIGER

@<TRIPOS>ATOM
      1  N        -17.4570   34.3340   40.2800 N.3   198  TRP198     -0.1227
      2  CA       -16.7040   33.1530   40.6940 C.3   198  TRP198      0.1737
      3  C        -15.6380   33.4360   41.7390 C.2   198  TRP198      0.2595
      4  O        -15.4200   32.6000   42.6180 O.2   198  TRP198     -0.2718
      5  CB       -16.0340   32.4870   39.4910 C.3   198  TRP198      0.0564
      6  CG       -17.0020   31.8640   38.5600 C.ar  198  TRP198      0.0003
      7  CD1      -17.2500   32.2310   37.2610 C.ar  198  TRP198      0.0946
      8  CD2      -17.8620   30.7570   38.8360 C.ar  198  TRP198      0.0152
      9  NE1      -18.2150   31.4180   36.7190 N.ar  198  TRP198     -0.2442
     10  CE2      -18.6050   30.5030   37.6640 C.ar  198  TRP198      0.0810
     11  CE3      -18.0780   29.9500   39.9630 C.ar  198  TRP198      0.0012
     12  CZ2      -19.5440   29.4790   37.5850 C.ar  198  TRP198      0.0191
     13  CZ3      -19.0140   28.9310   39.8800 C.ar  198  TRP198      0.0001
     14  CH2      -19.7360   28.7070   38.7000 C.ar  198  TRP198      0.0015
     15  N        -14.9390   34.5740   41.6570 N.am  199  LEU199     -0.1966
     16  CA       -13.8350   34.8560   42.5720 C.3   199  LEU199      0.1728
     17  C        -14.0340   36.0890   43.4450 C.2   199  LEU199      0.2616
     18  O        -13.2930   36.2530   44.4260 O.2   199  LEU199     -0.2715
     19  CB       -12.5170   35.0150   41.7930 C.3   199  LEU199      0.0311
     20  CG       -11.6610   33.7820   41.4660 C.3   199  LEU199      0.0022
     21  CD1      -12.4690   32.7230   40.7600 C.3   199  LEU199      0.0001
     22  CD2      -10.4590   34.1700   40.6060 C.3   199  LEU199      0.0001
     23  N        -14.9930   36.9550   43.1280 N.am  200  GLY200     -0.1955
     24  CA       -15.1640   38.1620   43.9120 C.3   200  GLY200      0.1869
     25  C        -15.6400   37.8520   45.3180 C.2   200  GLY200      0.2309
     26  O        -16.2800   36.8280   45.5740 O.2   200  GLY200     -0.2863
     27  N        -14.1440   29.3470   32.7250 N.3   398  ILE398     -0.1245
     28  CA       -13.3860   28.1000   32.6730 C.3   398  ILE398      0.1561
     29  C        -11.9270   28.3350   33.0420 C.2   398  ILE398      0.2260
     30  O        -11.3380   27.5650   33.8140 O.2   398  ILE398     -0.2867
     31  CB       -13.5190   27.4570   31.2810 C.3   398  ILE398      0.0252
     32  CG1      -14.9600   27.0130   31.0350 C.3   398  ILE398      0.0019
     33  CG2      -12.5590   26.2960   31.1420 C.3   398  ILE398      0.0019
     34  CD1      -15.1830   26.4490   29.6350 C.3   398  ILE398      0.0001
     35  N        -11.6530   29.0530   36.8800 N.3   401  LEU401     -0.1231
     36  CA       -11.9080   27.8630   37.6910 C.3   401  LEU401      0.1693
     37  C        -10.7850   26.8400   37.5540 C.2   401  LEU401      0.2591
     38  O        -10.4070   26.1900   38.5360 O.2   401  LEU401     -0.2718
     39  CB       -13.2530   27.2450   37.3080 C.3   401  LEU401      0.0284
     40  CG       -14.4960   28.0950   37.6000 C.3   401  LEU401      0.0019
     41  CD1      -15.7430   27.4900   36.9660 C.3   401  LEU401      0.0001
     42  CD2      -14.6860   28.2700   39.1020 C.3   401  LEU401      0.0001
     43  N        -10.2430   26.6770   36.3460 N.am  402  ALA402     -0.1980
     44  CA        -9.1260   25.7600   36.1460 C.3   402  ALA402      0.1597
     45  C         -7.8990   26.2090   36.9340 C.2   402  ALA402      0.2287
     46  O         -7.2790   25.4080   37.6480 O.2   402  ALA402     -0.2864
     47  CB        -8.8000   25.6480   34.6580 C.3   402  ALA402      0.0319
     48  N         -7.8600   28.0970   39.5250 N.3   404  ASP404     -0.1225
     49  CA        -8.1530   28.0470   40.9510 C.3   404  ASP404      0.1805
     50  C         -7.8880   26.6720   41.5510 C.2   404  ASP404      0.2597
     51  O         -7.6580   26.5730   42.7620 O.2   404  ASP404     -0.2718
     52  CB        -9.6040   28.4600   41.2070 C.3   404  ASP404      0.1424
     53  CG        -9.9210   28.5910   42.6940 C.2   404  ASP404      0.3668
     54  OD1       -9.5240   29.6050   43.3060 O.co2 404  ASP404     -0.2456
     55  OD2      -10.5750   27.6870   43.2490 O.co2 404  ASP404     -0.2456
     56  N         -7.9040   25.6170   40.7370 N.am  405  ARG405     -0.1979
     57  CA        -7.6440   24.2590   41.1970 C.3   405  ARG405      0.1597
     58  C         -6.1740   23.8660   41.0950 C.2   405  ARG405      0.2287
     59  O         -5.8230   22.7320   41.4410 O.2   405  ARG405     -0.2864
     60  CB        -8.5070   23.2660   40.4110 C.3   405  ARG405      0.0334
     61  CG        -9.9110   23.1340   40.9770 C.3   405  ARG405      0.0492
     62  CD       -10.9910   23.2190   39.9160 C.3   405  ARG405      0.2205
     63  NE       -12.3200   23.1970   40.5250 N.pl3 405  ARG405     -0.0865
     64  CZ       -13.0010   24.2860   40.8740 C.cat 405  ARG405      0.5346
     65  NH1      -12.4770   25.4890   40.6690 N.pl3 405  ARG405      0.1354
     66  NH2      -14.2010   24.1750   41.4330 N.pl3 405  ARG405      0.1354
     67  N         -6.2160   34.0420   43.0850 N.3   412  ARG412     -0.1231
     68  CA        -6.6770   34.6770   44.3070 C.3   412  ARG412      0.1694
     69  C         -6.7550   33.6010   45.3760 C.2   412  ARG412      0.2592
     70  O         -7.4860   32.6200   45.2150 O.2   412  ARG412     -0.2718
     71  CB        -8.0300   35.3580   44.0860 C.3   412  ARG412      0.0321
     72  CG        -8.6970   35.8490   45.3470 C.3   412  ARG412      0.0489
     73  CD        -9.7900   36.8120   45.0270 C.3   412  ARG412      0.2205
     74  NE       -10.2600   37.4670   46.2470 N.pl3 412  ARG412     -0.0865
     75  CZ       -11.0430   38.5300   46.3070 C.cat 412  ARG412      0.5346
     76  NH1      -11.4550   39.0850   45.1890 N.pl3 412  ARG412      0.1354
     77  NH2      -11.4060   39.0030   47.4850 N.pl3 412  ARG412      0.1354
     78  N         -5.9920   33.7770   46.4580 N.am  413  LEU413     -0.1966
     79  CA        -5.9490   32.7730   47.5140 C.3   413  LEU413      0.1728
     80  C         -7.3010   32.6570   48.2070 C.2   413  LEU413      0.2616
     81  O         -8.0350   33.6390   48.3600 O.2   413  LEU413     -0.2715
     82  CB        -4.8680   33.1120   48.5360 C.3   413  LEU413      0.0311
     83  CG        -3.3970   33.0170   48.1080 C.3   413  LEU413      0.0022
     84  CD1       -2.4660   33.3270   49.2880 C.3   413  LEU413      0.0001
     85  CD2       -3.0860   31.6480   47.5020 C.3   413  LEU413      0.0001
     86  N         -7.6270   31.4430   48.6280 N.am  414  HIS414     -0.1959
     87  CA        -8.8300   31.2370   49.4160 C.3   414  HIS414      0.1787
     88  C         -8.6350   31.8260   50.8110 C.2   414  HIS414      0.2620
     89  O         -7.5170   31.9060   51.3260 O.2   414  HIS414     -0.2715
     90  CB        -9.1720   29.7470   49.4910 C.3   414  HIS414      0.0785
     91  CG        -9.4320   29.1270   48.1510 C.ar  414  HIS414      0.0821
     92  ND1       -9.4560   27.7630   47.9480 N.ar  414  HIS414     -0.2267
     93  CD2       -9.6790   29.6910   46.9430 C.ar  414  HIS414      0.1154
     94  CE1       -9.7050   27.5140   46.6740 C.ar  414  HIS414      0.1986
     95  NE2       -9.8480   28.6660   46.0440 N.ar  414  HIS414     -0.2212
     96  N         -9.7450   32.2650   51.4090 N.am  415  GLU415     -0.1963
     97  CA        -9.6870   32.9810   52.6810 C.3   415  GLU415      0.1733
     98  C         -9.0300   32.1540   53.7860 C.2   415  GLU415      0.2616
     99  O         -8.3040   32.7100   54.6180 O.2   415  GLU415     -0.2715
    100  CB       -11.0900   33.4130   53.0960 C.3   415  GLU415      0.0429
    101  CG       -11.1540   34.7300   53.8550 C.3   415  GLU415      0.1163
    102  CD       -10.1840   35.7720   53.3100 C.2   415  GLU415      0.3649
    103  OE1      -10.5640   36.5260   52.3850 O.co2 415  GLU415     -0.2457
    104  OE2       -9.0280   35.8230   53.7890 O.co2 415  GLU415     -0.2457
    105  N         -9.2540   30.8370   53.8050 N.am  416  ASP416     -0.1971
    106  CA        -8.6960   29.9940   54.8610 C.3   416  ASP416      0.1709
    107  C         -7.1800   29.8480   54.7750 C.2   416  ASP416      0.2293
    108  O         -6.5530   29.4950   55.7790 O.2   416  ASP416     -0.2864
    109  CB        -9.3490   28.6100   54.8230 C.3   416  ASP416      0.1436
    110  CG        -9.4390   28.0510   53.4150 C.2   416  ASP416      0.3671
    111  OD1       -8.4000   27.6250   52.8630 O.co2 416  ASP416     -0.2456
    112  OD2      -10.5530   28.0560   52.8490 O.co2 416  ASP416     -0.2456
@<TRIPOS>BOND
     1    34    32    1
     2    32    31    1
     3    33    31    1
     4    31    28    1
     5    28    27    1
     6    28    29    1
     7    29    30    2
     8    47    44    1
     9    44    43    1
    10    44    45    1
    11    43    37   am
    12     9     7   ar
    13     9    10   ar
    14    35    36    1
    15    45    46    2
    16    41    40    1
    17     7     6   ar
    18    39    40    1
    19    39    36    1
    20    37    36    1
    21    37    38    2
    22    12    10   ar
    23    12    14   ar
    24    40    42    1
    25    10     8   ar
    26     6     8   ar
    27     6     5    1
    28    14    13   ar
    29     8    11   ar
    30     5     2    1
    31    48    49    1
    32    13    11   ar
    33    62    63    1
    34    62    61    1
    35     1     2    1
    36    60    61    1
    37    60    57    1
    38    63    64    2
    39    22    20    1
    40    65    64    1
    41     2     3    1
    42    56    57    1
    43    56    50   am
    44    21    20    1
    45    64    66    1
    46    49    52    1
    47    49    50    1
    48    58    57    1
    49    58    59    2
    50    52    53    1
    51    20    19    1
    52    50    51    2
    53    15     3   am
    54    15    16    1
    55     3     4    2
    56    19    16    1
    57    16    17    1
    58    53    55   ar
    59    53    54   ar
    60    67    68    1
    61    23    17   am
    62    23    24    1
    63    17    18    2
    64    24    25    1
    65    71    68    1
    66    71    72    1
    67    68    69    1
    68    73    72    1
    69    73    74    1
    70    76    75    1
    71    70    69    2
    72    25    26    2
    73    69    78   am
    74    95    94   ar
    75    95    93   ar
    76    74    75    2
    77    75    77    1
    78    78    79    1
    79    94    92   ar
    80    93    91   ar
    81    85    83    1
    82    79    80    1
    83    79    82    1
    84    92    91   ar
    85    83    82    1
    86    83    84    1
    87    91    90    1
    88    80    81    2
    89    80    86   am
    90    86    87    1
    91    87    90    1
    92    87    88    1
    93    88    89    2
    94    88    96   am
    95    96    97    1
    96   103   102   ar
    97    97   100    1
    98    97    98    1
    99   112   110   ar
   100   111   110   ar
   101   100   101    1
   102   102   104   ar
   103   102   101    1
   104   110   109    1
   105    98   105   am
   106    98    99    2
   107   105   106    1
   108   107   106    1
   109   107   108    2
   110   109   106    1
