@<TRIPOS>MOLECULE
tmp/5fuiA00.pdb
 86 84 0 0 0
SMALL
GASTEIGER

@<TRIPOS>ATOM
      1  N         20.6620    8.0100   21.3390 N.3    12  TYR12      -0.1241
      2  CA        19.5200    8.9140   21.2260 C.3    12  TYR12       0.1605
      3  C         18.6270    8.3670   20.1590 C.2    12  TYR12       0.2264
      4  O         19.1010    7.7610   19.2430 O.2    12  TYR12      -0.2867
      5  CB        19.9270   10.3120   20.8510 C.3    12  TYR12       0.0534
      6  CG        21.0510   10.8970   21.7470 C.ar   12  TYR12      -0.0201
      7  CD1       20.8030   11.3380   23.0340 C.ar   12  TYR12      -0.0009
      8  CD2       22.3230   11.0150   21.2160 C.ar   12  TYR12      -0.0009
      9  CE1       21.8520   11.8980   23.7970 C.ar   12  TYR12       0.0417
     10  CE2       23.3660   11.5500   21.9010 C.ar   12  TYR12       0.0417
     11  CZ        23.1410   11.9970   23.1830 C.ar   12  TYR12       0.1957
     12  OH        24.2570   12.5190   23.8360 O.3    12  TYR12      -0.2866
     13  N         14.2220    8.4890   14.1010 N.3    36  TRP36      -0.1227
     14  CA        15.6130    8.2550   13.8770 C.3    36  TRP36       0.1737
     15  C         16.2940    7.6640   15.0640 C.2    36  TRP36       0.2595
     16  O         15.7240    7.6460   16.1940 O.2    36  TRP36      -0.2718
     17  CB        16.3620    9.5460   13.4200 C.3    36  TRP36       0.0564
     18  CG        16.1480   10.7360   14.3720 C.ar   36  TRP36       0.0003
     19  CD1       15.1890   11.7360   14.3100 C.ar   36  TRP36       0.0946
     20  CD2       16.8900   10.9740   15.6300 C.ar   36  TRP36       0.0152
     21  NE1       15.3000   12.5940   15.3940 N.ar   36  TRP36      -0.2442
     22  CE2       16.2970   12.1410   16.2510 C.ar   36  TRP36       0.0810
     23  CE3       17.9150   10.2670   16.3280 C.ar   36  TRP36       0.0012
     24  CZ2       16.7310   12.6160   17.4580 C.ar   36  TRP36       0.0191
     25  CZ3       18.3860   10.8280   17.5530 C.ar   36  TRP36       0.0001
     26  CH2       17.7980   11.9700   18.0710 C.ar   36  TRP36       0.0015
     27  N         17.5200    7.1890   14.8490 N.am   37  MET37      -0.1965
     28  CA        18.3260    6.6210   15.9380 C.3    37  MET37       0.1736
     29  C         19.7470    7.0580   15.7130 C.2    37  MET37       0.2617
     30  O         20.2030    7.1000   14.5540 O.2    37  MET37      -0.2715
     31  CB        18.2580    5.1100   15.9430 C.3    37  MET37       0.0427
     32  CG        16.8830    4.5120   16.1520 C.3    37  MET37       0.0599
     33  SD        15.9410    4.2900   14.5460 S.3    37  MET37      -0.1393
     34  CE        16.6930    2.8290   13.9590 C.3    37  MET37       0.0692
     35  N         20.4980    7.2680   16.7750 N.am   38  SER38      -0.1950
     36  CA        21.8830    7.7190   16.6480 C.3    38  SER38       0.1924
     37  C         22.7970    6.8390   17.5310 C.2    38  SER38       0.2314
     38  O         22.5020    6.6420   18.7030 O.2    38  SER38      -0.2863
     39  CB        21.9540    9.1940   17.0960 C.3    38  SER38       0.2116
     40  OG        23.2230    9.7720   17.0860 O.3    38  SER38      -0.2180
     41  N         24.0090    8.1640    7.9100 N.3    68  ASP68      -0.1239
     42  CA        24.9210    9.3080    7.8450 C.3    68  ASP68       0.1674
     43  C         25.9130    9.2970    8.9690 C.2    68  ASP68       0.2266
     44  O         25.7130    8.5730    9.9660 O.2    68  ASP68      -0.2867
     45  CB        24.1100   10.6220    7.8830 C.3    68  ASP68       0.1410
     46  CG        23.5840   10.9340    9.2350 C.2    68  ASP68       0.3668
     47  OD1       24.3120   11.4600   10.0700 O.co2  68  ASP68      -0.2456
     48  OD2       22.4120   10.5730    9.5630 O.co2  68  ASP68      -0.2456
     49  N         25.7970   13.6520   12.1170 N.3    71  ALA71      -0.1245
     50  CA        24.5910   14.4720   11.9130 C.3    71  ALA71       0.1562
     51  C         24.4810   15.1020   10.5090 C.2    71  ALA71       0.2260
     52  O         24.1880   16.3220   10.2950 O.2    71  ALA71      -0.2867
     53  CB        24.4160   15.5050   13.0770 C.3    71  ALA71       0.0290
     54  N         29.7470    9.5520   14.9600 N.3   105  GLN105     -0.1245
     55  CA        28.3620    9.3260   15.3520 C.3   105  GLN105      0.1566
     56  C         27.6430    8.8280   14.0900 C.2   105  GLN105      0.2260
     57  O         27.6070    9.5360   13.0730 O.2   105  GLN105     -0.2867
     58  CB        27.7390   10.6220   15.9030 C.3   105  GLN105      0.0367
     59  CG        26.2830   10.5510   16.2940 C.3   105  GLN105      0.0905
     60  CD        25.8040   11.8600   16.9580 C.2   105  GLN105      0.2608
     61  OE1       26.0390   12.0630   18.1500 O.2   105  GLN105     -0.2717
     62  NE2       25.1120   12.7510   16.1810 N.am  105  GLN105     -0.0878
     63  N         24.1420    7.7240   12.1830 N.3   107  GLY107     -0.1210
     64  CA        22.7460    8.0190   12.3140 C.3   107  GLY107      0.1956
     65  C         21.9140    7.2820   11.2640 C.2   107  GLY107      0.2612
     66  O         22.3410    7.1730   10.1090 O.2   107  GLY107     -0.2717
     67  N         20.7280    6.8100   11.6750 N.am  108  LEU108     -0.1965
     68  CA        19.7240    6.2470   10.7450 C.3   108  LEU108      0.1728
     69  C         18.4700    7.0880   10.8420 C.2   108  LEU108      0.2616
     70  O         18.0260    7.3550   11.9620 O.2   108  LEU108     -0.2715
     71  CB        19.3610    4.7610   11.1490 C.3   108  LEU108      0.0311
     72  CG        20.5900    3.8490   11.0850 C.3   108  LEU108      0.0022
     73  CD1       20.1260    2.4350   11.4350 C.3   108  LEU108      0.0001
     74  CD2       21.2100    3.9370    9.7120 C.3   108  LEU108      0.0001
     75  N         17.9800    7.5480    9.6970 N.am  109  TYR109     -0.1974
     76  CA        16.8620    8.4650    9.7410 C.3   109  TYR109      0.1639
     77  C         15.7660    7.9070    8.8640 C.2   109  TYR109      0.2290
     78  O         15.9730    7.6530    7.6620 O.2   109  TYR109     -0.2864
     79  CB        17.3560    9.8300    9.1570 C.3   109  TYR109      0.0560
     80  CG        16.6180   11.0410    9.6870 C.ar  109  TYR109     -0.0198
     81  CD1       15.2660   11.2080    9.4420 C.ar  109  TYR109     -0.0009
     82  CD2       17.2770   12.0040   10.5080 C.ar  109  TYR109     -0.0009
     83  CE1       14.5620   12.3270    9.9300 C.ar  109  TYR109      0.0417
     84  CE2       16.6210   13.1040   10.9880 C.ar  109  TYR109      0.0417
     85  CZ        15.2910   13.3020   10.6630 C.ar  109  TYR109      0.1957
     86  OH        14.6600   14.4130   11.2170 O.3   109  TYR109     -0.2866
@<TRIPOS>BOND
     1    78    77    2
     2    42    45    1
     3    42    41    1
     4    42    43    1
     5    45    46    1
     6    77    76    1
     7    43    44    2
     8    79    80    1
     9    79    76    1
    10    46    48   ar
    11    46    47   ar
    12    81    80   ar
    13    81    83   ar
    14    80    82   ar
    15    75    76    1
    16    75    69   am
    17    74    72    1
    18    83    85   ar
    19    66    65    2
    20    52    51    2
    21    82    84   ar
    22    51    50    1
    23    85    84   ar
    24    85    86    1
    25    68    69    1
    26    68    71    1
    27    68    67    1
    28    69    70    2
    29    72    71    1
    30    72    73    1
    31    65    67   am
    32    65    64    1
    33    50    49    1
    34    50    53    1
    35    63    64    1
    36    57    56    2
    37    17    14    1
    38    17    18    1
    39    14    13    1
    40    14    15    1
    41    34    33    1
    42    56    55    1
    43    19    18   ar
    44    19    21   ar
    45    18    20   ar
    46    33    32    1
    47    30    29    2
    48    27    15   am
    49    27    28    1
    50    54    55    1
    51    15    16    2
    52    55    58    1
    53    21    22   ar
    54    20    22   ar
    55    20    23   ar
    56    29    28    1
    57    29    35   am
    58    58    59    1
    59    28    31    1
    60    31    32    1
    61    62    60   am
    62    22    24   ar
    63    59    60    1
    64    23    25   ar
    65    36    35    1
    66    36    39    1
    67    36    37    1
    68    60    61    2
    69    40    39    1
    70    24    26   ar
    71    37    38    2
    72    25    26   ar
    73     4     3    2
    74     3     2    1
    75     5     2    1
    76     5     6    1
    77     8     6   ar
    78     8    10   ar
    79     2     1    1
    80     6     7   ar
    81    10    11   ar
    82     7     9   ar
    83    11     9   ar
    84    11    12    1
