@<TRIPOS>MOLECULE
tmp/5fujA02.pdb
 77 71 0 0 0
SMALL
GASTEIGER

@<TRIPOS>ATOM
      1  N         23.6070   -2.6540   -3.7510 N.3   115  ASN115     -0.1226
      2  CA        23.9080   -1.4320   -2.9840 C.3   115  ASN115      0.1770
      3  C         24.8570   -1.6670   -1.7990 C.2   115  ASN115      0.2439
      4  O         24.5260   -1.3900   -0.6390 O.2   115  ASN115     -0.2733
      5  CB        22.6210   -0.7070   -2.5340 C.3   115  ASN115      0.1168
      6  CG        22.6670    0.7920   -2.8170 C.2   115  ASN115      0.2627
      7  OD1       23.3820    1.2310   -3.7190 O.2   115  ASN115     -0.2716
      8  ND2       21.9160    1.5780   -2.0540 N.am  115  ASN115     -0.0877
      9  N         26.0290   -2.2400   -2.0850 N.am  116  PRO116     -0.2729
     10  CA        26.9210   -2.6210   -0.9940 C.3   116  PRO116      0.1401
     11  C         27.3190   -1.4000   -0.1700 C.2   116  PRO116      0.2269
     12  O         27.5430   -0.3260   -0.7210 O.2   116  PRO116     -0.2865
     13  CB        28.1330   -3.2270   -1.7220 C.3   116  PRO116      0.0296
     14  CG        28.0840   -2.6400   -3.0990 C.3   116  PRO116      0.0237
     15  CD        26.6100   -2.5270   -3.4090 C.3   116  PRO116      0.0939
     16  N         25.3870    0.3410    1.8210 N.3   118  ALA118     -0.1245
     17  CA        24.2320    1.1650    2.1960 C.3   118  ALA118      0.1562
     18  C         23.2250    0.3340    2.9950 C.2   118  ALA118      0.2260
     19  O         23.2620   -0.8870    2.9410 O.2   118  ALA118     -0.2867
     20  CB        23.5770    1.7400    0.9490 C.3   118  ALA118      0.0290
     21  N         19.9280    0.8350    2.5070 N.3   120  VAL120     -0.1245
     22  CA        18.6980    0.8600    1.6720 C.3   120  VAL120      0.1561
     23  C         18.9660    0.2510    0.3040 C.2   120  VAL120      0.2260
     24  O         20.1120    0.2540   -0.1690 O.2   120  VAL120     -0.2867
     25  CB        18.1490    2.2980    1.4710 C.3   120  VAL120      0.0252
     26  CG1       17.8000    2.9430    2.7980 C.3   120  VAL120      0.0019
     27  CG2       19.1350    3.1660    0.6800 C.3   120  VAL120      0.0019
     28  N         17.8780    1.1760   -3.6620 N.3   122  ASN122     -0.1225
     29  CA        17.3750    2.4010   -4.2750 C.3   122  ASN122      0.1785
     30  C         17.3230    2.2530   -5.7840 C.2   122  ASN122      0.2597
     31  O         17.4330    1.1540   -6.2920 O.2   122  ASN122     -0.2718
     32  CB        18.2000    3.6140   -3.8150 C.3   122  ASN122      0.1169
     33  CG        19.6280    3.5810   -4.3140 C.2   122  ASN122      0.2627
     34  OD1       19.9600    2.8300   -5.2290 O.2   122  ASN122     -0.2716
     35  ND2       20.4920    4.4200   -3.7130 N.am  122  ASN122     -0.0877
     36  N         17.0340    3.3380   -6.4980 N.am  123  ILE123     -0.1966
     37  CA        16.7380    3.2130   -7.9220 C.3   123  ILE123      0.1727
     38  C         17.9560    2.6980   -8.7040 C.2   123  ILE123      0.2616
     39  O         17.8350    1.8360   -9.5790 O.2   123  ILE123     -0.2715
     40  CB        16.1980    4.5510   -8.4880 C.3   123  ILE123      0.0290
     41  CG1       14.7190    4.7160   -8.0970 C.3   123  ILE123      0.0022
     42  CG2       16.3580    4.6040  -10.0060 C.3   123  ILE123      0.0023
     43  CD1       14.1620    6.1050   -8.4130 C.3   123  ILE123      0.0001
     44  N         19.1530    3.1720   -8.3670 N.am  124  SER124     -0.1950
     45  CA        20.3040    2.6680   -9.0990 C.3   124  SER124      0.1924
     46  C         20.6690    1.2220   -8.7930 C.2   124  SER124      0.2314
     47  O         21.0470    0.4910   -9.6980 O.2   124  SER124     -0.2863
     48  CB        21.5190    3.6120   -9.0640 C.3   124  SER124      0.2116
     49  OG        21.7890    4.0880   -7.7770 O.3   124  SER124     -0.2180
     50  N         13.3850    4.6330   -2.4880 N.3   174  GLU174     -0.1245
     51  CA        14.3560    3.8520   -1.7120 C.3   174  GLU174      0.1567
     52  C         13.6830    3.1880   -0.5260 C.2   174  GLU174      0.2260
     53  O         12.6940    3.7110    0.0160 O.2   174  GLU174     -0.2867
     54  CB        15.5660    4.6960   -1.2690 C.3   174  GLU174      0.0388
     55  CG        15.3830    5.4260    0.0430 C.3   174  GLU174      0.1160
     56  CD        16.6150    6.2270    0.4720 C.2   174  GLU174      0.3649
     57  OE1       17.4810    6.5590   -0.3710 O.co2 174  GLU174     -0.2457
     58  OE2       16.7130    6.5270    1.6770 O.co2 174  GLU174     -0.2457
     59  N         13.1070    5.6050  -14.6960 N.3   213  ARG213     -0.1245
     60  CA        14.4930    5.8510  -14.2920 C.3   213  ARG213      0.1563
     61  C         15.2060    4.5090  -14.0970 C.2   213  ARG213      0.2260
     62  O         16.3800    4.3670  -14.4350 O.2   213  ARG213     -0.2867
     63  CB        14.4850    6.6440  -12.9930 C.3   213  ARG213      0.0307
     64  CG        15.8190    7.1350  -12.4960 C.3   213  ARG213      0.0489
     65  CD        16.3250    8.2680  -13.3880 C.3   213  ARG213      0.2205
     66  NE        17.5670    8.7550  -12.8270 N.pl3 213  ARG213     -0.0865
     67  CZ        18.7120    8.8350  -13.4880 C.cat 213  ARG213      0.5346
     68  NH1       18.7530    8.6790  -14.8140 N.pl3 213  ARG213      0.1354
     69  NH2       19.7940    9.1790  -12.8230 N.pl3 213  ARG213      0.1354
     70  N         18.5800    3.3470  -16.2400 N.3   217  LEU217     -0.1245
     71  CA        19.8480    2.9950  -15.6000 C.3   217  LEU217      0.1561
     72  C         20.2500    1.5160  -15.7730 C.2   217  LEU217      0.2260
     73  O         21.3530    1.1160  -15.3900 O.2   217  LEU217     -0.2867
     74  CB        19.7940    3.3630  -14.1170 C.3   217  LEU217      0.0270
     75  CG        19.7360    4.8700  -13.8020 C.3   217  LEU217      0.0019
     76  CD1       19.4740    5.1080  -12.3200 C.3   217  LEU217      0.0001
     77  CD2       21.0560    5.5220  -14.2250 C.3   217  LEU217      0.0001
@<TRIPOS>BOND
     1    70    71    1
     2    72    71    1
     3    72    73    2
     4    71    74    1
     5    68    67    1
     6    59    60    1
     7    62    61    2
     8    60    61    1
     9    60    63    1
    10    77    75    1
    11    74    75    1
    12    75    76    1
    13    67    66    2
    14    67    69    1
    15    65    66    1
    16    65    64    1
    17    63    64    1
    18    42    40    1
    19    47    46    2
    20    39    38    2
    21    45    48    1
    22    45    46    1
    23    45    44    1
    24    48    49    1
    25    38    44   am
    26    38    37    1
    27    40    41    1
    28    40    37    1
    29    43    41    1
    30    37    36    1
    31    36    30   am
    32    31    30    2
    33    30    29    1
    34    34    33    2
    35    33    32    1
    36    33    35   am
    37    29    32    1
    38    29    28    1
    39     1     2    1
    40     7     6    2
    41    15    14    1
    42    15     9    1
    43    14    13    1
    44     2     5    1
    45     2     3    1
    46     6     5    1
    47     6     8   am
    48    50    51    1
    49     9     3   am
    50     9    10    1
    51     3     4    2
    52    13    10    1
    53    51    54    1
    54    51    52    1
    55    54    55    1
    56    10    11    1
    57    12    11    2
    58    52    53    2
    59    57    56   ar
    60    24    23    2
    61    55    56    1
    62    23    22    1
    63    56    58   ar
    64    27    25    1
    65    20    17    1
    66    25    22    1
    67    25    26    1
    68    22    21    1
    69    16    17    1
    70    17    18    1
    71    19    18    2
