@<TRIPOS>MOLECULE
tmp/5fukB02.pdb
 109 99 0 0 0
SMALL
GASTEIGER

@<TRIPOS>ATOM
      1  N         -0.5240  -15.4750   49.9710 N.3    17  CYS17      -0.1235
      2  CA        -0.6380  -14.0500   50.3310 C.3    17  CYS17       0.1677
      3  C         -0.8670  -13.9150   51.8440 C.2    17  CYS17       0.2270
      4  O         -1.9620  -14.2840   52.3290 O.2    17  CYS17      -0.2867
      5  CB        -1.8260  -13.4620   49.5850 C.3    17  CYS17       0.0956
      6  SG        -2.0750  -11.7100   50.1100 S.3    17  CYS17      -0.0801
      7  N         -7.0860   -0.5690   44.5920 N.3    55  ILE55      -0.1245
      8  CA        -6.1060   -1.6200   44.4450 C.3    55  ILE55       0.1561
      9  C         -6.7190   -3.0340   44.5660 C.2    55  ILE55       0.2260
     10  O         -6.2380   -4.0160   43.9840 O.2    55  ILE55      -0.2867
     11  CB        -4.9910   -1.3900   45.4460 C.3    55  ILE55       0.0252
     12  CG1       -3.7820   -2.3050   45.1800 C.3    55  ILE55       0.0019
     13  CG2       -5.4410   -1.5570   46.8490 C.3    55  ILE55       0.0019
     14  CD1       -3.1530   -2.1860   43.8170 C.3    55  ILE55       0.0001
     15  N         -8.4200   -4.1640   41.3230 N.3    58  LEU58      -0.1231
     16  CA        -7.4280   -4.4330   40.3040 C.3    58  LEU58       0.1693
     17  C         -6.7830   -5.8020   40.5610 C.2    58  LEU58       0.2591
     18  O         -6.8360   -6.6840   39.7140 O.2    58  LEU58      -0.2718
     19  CB        -6.4000   -3.3090   40.2730 C.3    58  LEU58       0.0284
     20  CG        -5.4580   -3.3400   39.0090 C.3    58  LEU58       0.0019
     21  CD1       -4.8960   -1.9440   38.8030 C.3    58  LEU58       0.0001
     22  CD2       -4.3600   -4.3110   39.2080 C.3    58  LEU58       0.0001
     23  N         -6.2890   -6.0290   41.7750 N.am   59  ALA59      -0.1980
     24  CA        -5.6040   -7.2710   42.0660 C.3    59  ALA59       0.1597
     25  C         -6.5900   -8.4180   42.1960 C.2    59  ALA59       0.2287
     26  O         -6.3150   -9.5580   41.7600 O.2    59  ALA59      -0.2864
     27  CB        -4.8020   -7.1010   43.3640 C.3    59  ALA59       0.0319
     28  N         -7.6730  -10.0240   38.8880 N.3    62  ILE62      -0.1245
     29  CA        -6.5640  -10.8420   38.3570 C.3    62  ILE62       0.1561
     30  C         -6.5270  -12.1790   39.1340 C.2    62  ILE62       0.2260
     31  O         -6.4190  -13.2350   38.5700 O.2    62  ILE62      -0.2867
     32  CB        -5.2490  -10.1040   38.4180 C.3    62  ILE62       0.0252
     33  CG1       -5.3520   -8.8200   37.5850 C.3    62  ILE62       0.0019
     34  CG2       -4.0950  -10.9910   37.9690 C.3    62  ILE62       0.0019
     35  CD1       -4.1440   -7.9220   37.7590 C.3    62  ILE62       0.0001
     36  N         -0.4630  -14.2390   39.4890 N.3    84  ILE84      -0.1245
     37  CA         0.1920  -13.2910   40.3730 C.3    84  ILE84       0.1561
     38  C          1.4260  -13.9040   41.0300 C.2    84  ILE84       0.2260
     39  O          2.4410  -13.3080   41.1020 O.2    84  ILE84      -0.2867
     40  CB        -0.7580  -12.7570   41.4530 C.3    84  ILE84       0.0252
     41  CG1       -1.8950  -11.9730   40.8170 C.3    84  ILE84       0.0019
     42  CG2       -0.0120  -11.8800   42.4400 C.3    84  ILE84       0.0019
     43  CD1       -3.0340  -11.6730   41.7590 C.3    84  ILE84       0.0001
     44  N          6.8760   -6.8870   35.0100 N.3   149  LEU149     -0.1245
     45  CA         5.6300   -7.1360   35.6870 C.3   149  LEU149      0.1561
     46  C          5.9070   -7.7790   37.0750 C.2   149  LEU149      0.2260
     47  O          5.3570   -7.3490   38.0800 O.2   149  LEU149     -0.2867
     48  CB         4.7290   -8.0470   34.9130 C.3   149  LEU149      0.0270
     49  CG         3.4450   -8.5090   35.5760 C.3   149  LEU149      0.0019
     50  CD1        2.5860   -7.3180   35.9690 C.3   149  LEU149      0.0001
     51  CD2        2.6360   -9.4040   34.6550 C.3   149  LEU149      0.0001
     52  N          7.3160   -5.2690   39.4390 N.3   152  THR152     -0.1203
     53  CA         6.3310   -4.3280   39.9220 C.3   152  THR152      0.1994
     54  C          5.4560   -4.9310   41.0060 C.2   152  THR152      0.2617
     55  O          5.1460   -4.2880   42.0430 O.2   152  THR152     -0.2717
     56  CB         5.4080   -3.8350   38.7760 C.3   152  THR152      0.1784
     57  OG1        6.2650   -3.2010   37.8290 O.3   152  THR152     -0.2211
     58  CG2        4.4190   -2.8600   39.2930 C.3   152  THR152      0.0376
     59  N          5.0420   -6.1660   40.7580 N.am  153  ILE153     -0.1979
     60  CA         4.2310   -6.8640   41.7360 C.3   153  ILE153      0.1595
     61  C          5.0170   -7.0120   43.0820 C.2   153  ILE153      0.2287
     62  O          4.4450   -6.7720   44.1630 O.2   153  ILE153     -0.2864
     63  CB         3.7970   -8.2740   41.1970 C.3   153  ILE153      0.0276
     64  CG1        2.7510   -8.0790   40.0610 C.3   153  ILE153      0.0022
     65  CG2        3.1780   -9.0940   42.3120 C.3   153  ILE153      0.0022
     66  CD1        2.5040   -9.3830   39.3360 C.3   153  ILE153      0.0001
     67  N          5.1270   -3.8020   44.8650 N.3   156  SER156     -0.1202
     68  CA         3.7830   -3.5490   45.3750 C.3   156  SER156      0.2020
     69  C          3.5550   -4.2710   46.6940 C.2   156  SER156      0.2618
     70  O          2.9370   -3.7670   47.6280 O.2   156  SER156     -0.2717
     71  CB         2.6990   -3.9230   44.3580 C.3   156  SER156      0.2103
     72  OG         2.8350   -3.1420   43.1250 O.3   156  SER156     -0.2182
     73  N          4.0030   -5.5410   46.7400 N.am  157  GLU157     -0.1979
     74  CA         3.8080   -6.3670   47.8980 C.3   157  GLU157      0.1602
     75  C          4.6510   -5.8210   49.0600 C.2   157  GLU157      0.2287
     76  O          4.1920   -5.8180   50.1790 O.2   157  GLU157     -0.2864
     77  CB         4.0960   -7.8460   47.5610 C.3   157  GLU157      0.0415
     78  CG         2.9450   -8.4320   46.7300 C.3   157  GLU157      0.1163
     79  CD         3.2830   -9.6730   45.8730 C.2   157  GLU157      0.3649
     80  OE1        4.4480  -10.0930   45.8460 O.co2 157  GLU157     -0.2457
     81  OE2        2.3450  -10.1780   45.1860 O.co2 157  GLU157     -0.2457
     82  N          2.7740   -2.9140   50.3460 N.3   160  PHE160     -0.1241
     83  CA         1.6520   -3.3590   51.1160 C.3   160  PHE160      0.1605
     84  C          2.0140   -3.7210   52.5450 C.2   160  PHE160      0.2264
     85  O          1.2740   -3.3240   53.4620 O.2   160  PHE160     -0.2867
     86  CB         0.9950   -4.5890   50.4620 C.3   160  PHE160      0.0534
     87  CG        -0.2880   -4.3380   49.7970 C.ar  160  PHE160     -0.0203
     88  CD1       -1.1810   -3.3710   50.2220 C.ar  160  PHE160     -0.0042
     89  CD2       -0.6790   -5.2430   48.8030 C.ar  160  PHE160     -0.0042
     90  CE1       -2.4140   -3.2390   49.5670 C.ar  160  PHE160     -0.0003
     91  CE2       -1.8670   -5.1020   48.1360 C.ar  160  PHE160     -0.0003
     92  CZ        -2.7620   -4.1170   48.5470 C.ar  160  PHE160     -0.0000
     93  N         -4.1370    3.6000   45.7310 N.3   204  ILE204     -0.1245
     94  CA        -3.1490    3.5380   44.6510 C.3   204  ILE204      0.1561
     95  C         -2.2590    4.7500   44.6600 C.2   204  ILE204      0.2260
     96  O         -1.0440    4.6070   44.5870 O.2   204  ILE204     -0.2867
     97  CB        -3.8370    3.2450   43.2760 C.3   204  ILE204      0.0252
     98  CG1       -4.2820    1.8230   43.2250 C.3   204  ILE204      0.0019
     99  CG2       -2.7930    3.4510   42.1550 C.3   204  ILE204      0.0019
    100  CD1       -5.0650    1.4430   41.9860 C.3   204  ILE204      0.0001
    101  N          7.5600    2.8870   43.5370 N.3   212  GLU212     -0.1245
    102  CA         8.5990    3.3710   42.6040 C.3   212  GLU212      0.1567
    103  C          9.9210    3.5670   43.2800 C.2   212  GLU212      0.2260
    104  O         10.9730    3.2890   42.6800 O.2   212  GLU212     -0.2867
    105  CB         8.1710    4.6980   41.9750 C.3   212  GLU212      0.0388
    106  CG         7.0320    4.5690   40.9750 C.3   212  GLU212      0.1160
    107  CD         6.6420    5.9170   40.3450 C.2   212  GLU212      0.3649
    108  OE1        7.3550    6.9380   40.5540 O.co2 212  GLU212     -0.2457
    109  OE2        5.5820    5.9480   39.6460 O.co2 212  GLU212     -0.2457
@<TRIPOS>BOND
     1    51    49    1
     2    48    49    1
     3    48    45    1
     4    44    45    1
     5    49    50    1
     6    45    46    1
     7    46    47    2
     8    33    35    1
     9    33    32    1
    10    57    56    1
    11    34    32    1
    12    29    32    1
    13    29    28    1
    14    29    30    1
    15    31    30    2
    16    56    58    1
    17    56    53    1
    18    21    20    1
    19    20    22    1
    20    20    19    1
    21    66    64    1
    22    52    53    1
    23    36    37    1
    24   109   107   ar
    25    18    17    2
    26    53    54    1
    27    64    63    1
    28    19    16    1
    29    16    17    1
    30    16    15    1
    31   107   108   ar
    32   107   106    1
    33    37    38    1
    34    37    40    1
    35    17    23   am
    36    59    54   am
    37    59    60    1
    38    41    40    1
    39    41    43    1
    40   106   105    1
    41    54    55    2
    42    38    39    2
    43    63    60    1
    44    63    65    1
    45    40    42    1
    46    60    61    1
    47    26    25    2
    48    23    24    1
    49   105   102    1
    50   100    98    1
    51    24    25    1
    52    24    27    1
    53    99    97    1
    54   102   103    1
    55   102   101    1
    56   104   103    2
    57    61    62    2
    58    72    71    1
    59    98    97    1
    60    97    94    1
    61    14    12    1
    62    10     9    2
    63    71    68    1
    64     8     9    1
    65     8     7    1
    66     8    11    1
    67    96    95    2
    68    94    95    1
    69    94    93    1
    70    67    68    1
    71    12    11    1
    72    81    79   ar
    73    68    69    1
    74    11    13    1
    75    80    79   ar
    76    79    78    1
    77    69    73   am
    78    69    70    2
    79    78    77    1
    80    73    74    1
    81    77    74    1
    82    74    75    1
    83    91    92   ar
    84    91    89   ar
    85    92    90   ar
    86    89    87   ar
    87    75    76    2
    88    90    88   ar
    89     5     6    1
    90     5     2    1
    91    87    88   ar
    92    87    86    1
    93     1     2    1
    94     2     3    1
    95    82    83    1
    96    86    83    1
    97    83    84    1
    98     3     4    2
    99    84    85    2
