@<TRIPOS>MOLECULE
tmp/5fukB01.pdb
 101 93 0 0 0
SMALL
GASTEIGER

@<TRIPOS>ATOM
      1  N         -7.0860   -0.5690   44.5920 N.3    55  ILE55      -0.1245
      2  CA        -6.1060   -1.6200   44.4450 C.3    55  ILE55       0.1561
      3  C         -6.7190   -3.0340   44.5660 C.2    55  ILE55       0.2260
      4  O         -6.2380   -4.0160   43.9840 O.2    55  ILE55      -0.2867
      5  CB        -4.9910   -1.3900   45.4460 C.3    55  ILE55       0.0252
      6  CG1       -3.7820   -2.3050   45.1800 C.3    55  ILE55       0.0019
      7  CG2       -5.4410   -1.5570   46.8490 C.3    55  ILE55       0.0019
      8  CD1       -3.1530   -2.1860   43.8170 C.3    55  ILE55       0.0001
      9  N         -8.4200   -4.1640   41.3230 N.3    58  LEU58      -0.1231
     10  CA        -7.4280   -4.4330   40.3040 C.3    58  LEU58       0.1693
     11  C         -6.7830   -5.8020   40.5610 C.2    58  LEU58       0.2591
     12  O         -6.8360   -6.6840   39.7140 O.2    58  LEU58      -0.2718
     13  CB        -6.4000   -3.3090   40.2730 C.3    58  LEU58       0.0284
     14  CG        -5.4580   -3.3400   39.0090 C.3    58  LEU58       0.0019
     15  CD1       -4.8960   -1.9440   38.8030 C.3    58  LEU58       0.0001
     16  CD2       -4.3600   -4.3110   39.2080 C.3    58  LEU58       0.0001
     17  N         -6.2890   -6.0290   41.7750 N.am   59  ALA59      -0.1980
     18  CA        -5.6040   -7.2710   42.0660 C.3    59  ALA59       0.1597
     19  C         -6.5900   -8.4180   42.1960 C.2    59  ALA59       0.2287
     20  O         -6.3150   -9.5580   41.7600 O.2    59  ALA59      -0.2864
     21  CB        -4.8020   -7.1010   43.3640 C.3    59  ALA59       0.0319
     22  N         -7.6730  -10.0240   38.8880 N.3    62  ILE62      -0.1245
     23  CA        -6.5640  -10.8420   38.3570 C.3    62  ILE62       0.1561
     24  C         -6.5270  -12.1790   39.1340 C.2    62  ILE62       0.2260
     25  O         -6.4190  -13.2350   38.5700 O.2    62  ILE62      -0.2867
     26  CB        -5.2490  -10.1040   38.4180 C.3    62  ILE62       0.0252
     27  CG1       -5.3520   -8.8200   37.5850 C.3    62  ILE62       0.0019
     28  CG2       -4.0950  -10.9910   37.9690 C.3    62  ILE62       0.0019
     29  CD1       -4.1440   -7.9220   37.7590 C.3    62  ILE62       0.0001
     30  N          0.2840  -16.2480   37.3530 N.3    83  THR83      -0.1203
     31  CA        -0.7990  -15.3090   37.3090 C.3    83  THR83       0.1994
     32  C         -0.3640  -14.1150   38.1830 C.2    83  THR83       0.2617
     33  O          0.0880  -13.1670   37.6800 O.2    83  THR83      -0.2717
     34  CB        -2.1240  -15.9250   37.7810 C.3    83  THR83       0.1784
     35  OG1       -2.4270  -17.0710   37.0020 O.3    83  THR83      -0.2211
     36  CG2       -3.2800  -14.9290   37.6770 C.3    83  THR83       0.0376
     37  N         -0.4630  -14.2390   39.4890 N.am   84  ILE84      -0.1979
     38  CA         0.1920  -13.2910   40.3730 C.3    84  ILE84       0.1595
     39  C          1.4260  -13.9040   41.0300 C.2    84  ILE84       0.2287
     40  O          2.4410  -13.3080   41.1020 O.2    84  ILE84      -0.2864
     41  CB        -0.7580  -12.7570   41.4530 C.3    84  ILE84       0.0276
     42  CG1       -1.8950  -11.9730   40.8170 C.3    84  ILE84       0.0022
     43  CG2       -0.0120  -11.8800   42.4400 C.3    84  ILE84       0.0022
     44  CD1       -3.0340  -11.6730   41.7590 C.3    84  ILE84       0.0001
     45  N          6.8760   -6.8870   35.0100 N.3   149  LEU149     -0.1245
     46  CA         5.6300   -7.1360   35.6870 C.3   149  LEU149      0.1561
     47  C          5.9070   -7.7790   37.0750 C.2   149  LEU149      0.2260
     48  O          5.3570   -7.3490   38.0800 O.2   149  LEU149     -0.2867
     49  CB         4.7290   -8.0470   34.9130 C.3   149  LEU149      0.0270
     50  CG         3.4450   -8.5090   35.5760 C.3   149  LEU149      0.0019
     51  CD1        2.5860   -7.3180   35.9690 C.3   149  LEU149      0.0001
     52  CD2        2.6360   -9.4040   34.6550 C.3   149  LEU149      0.0001
     53  N          7.3160   -5.2690   39.4390 N.3   152  THR152     -0.1203
     54  CA         6.3310   -4.3280   39.9220 C.3   152  THR152      0.1994
     55  C          5.4560   -4.9310   41.0060 C.2   152  THR152      0.2617
     56  O          5.1460   -4.2880   42.0430 O.2   152  THR152     -0.2717
     57  CB         5.4080   -3.8350   38.7760 C.3   152  THR152      0.1784
     58  OG1        6.2650   -3.2010   37.8290 O.3   152  THR152     -0.2211
     59  CG2        4.4190   -2.8600   39.2930 C.3   152  THR152      0.0376
     60  N          5.0420   -6.1660   40.7580 N.am  153  ILE153     -0.1979
     61  CA         4.2310   -6.8640   41.7360 C.3   153  ILE153      0.1595
     62  C          5.0170   -7.0120   43.0820 C.2   153  ILE153      0.2287
     63  O          4.4450   -6.7720   44.1630 O.2   153  ILE153     -0.2864
     64  CB         3.7970   -8.2740   41.1970 C.3   153  ILE153      0.0276
     65  CG1        2.7510   -8.0790   40.0610 C.3   153  ILE153      0.0022
     66  CG2        3.1780   -9.0940   42.3120 C.3   153  ILE153      0.0022
     67  CD1        2.5040   -9.3830   39.3360 C.3   153  ILE153      0.0001
     68  N          5.1270   -3.8020   44.8650 N.3   156  SER156     -0.1202
     69  CA         3.7830   -3.5490   45.3750 C.3   156  SER156      0.2020
     70  C          3.5550   -4.2710   46.6940 C.2   156  SER156      0.2618
     71  O          2.9370   -3.7670   47.6280 O.2   156  SER156     -0.2717
     72  CB         2.6990   -3.9230   44.3580 C.3   156  SER156      0.2103
     73  OG         2.8350   -3.1420   43.1250 O.3   156  SER156     -0.2182
     74  N          4.0030   -5.5410   46.7400 N.am  157  GLU157     -0.1979
     75  CA         3.8080   -6.3670   47.8980 C.3   157  GLU157      0.1602
     76  C          4.6510   -5.8210   49.0600 C.2   157  GLU157      0.2287
     77  O          4.1920   -5.8180   50.1790 O.2   157  GLU157     -0.2864
     78  CB         4.0960   -7.8460   47.5610 C.3   157  GLU157      0.0415
     79  CG         2.9450   -8.4320   46.7300 C.3   157  GLU157      0.1163
     80  CD         3.2830   -9.6730   45.8730 C.2   157  GLU157      0.3649
     81  OE1        4.4480  -10.0930   45.8460 O.co2 157  GLU157     -0.2457
     82  OE2        2.3450  -10.1780   45.1860 O.co2 157  GLU157     -0.2457
     83  N          2.7740   -2.9140   50.3460 N.3   160  PHE160     -0.1241
     84  CA         1.6520   -3.3590   51.1160 C.3   160  PHE160      0.1605
     85  C          2.0140   -3.7210   52.5450 C.2   160  PHE160      0.2264
     86  O          1.2740   -3.3240   53.4620 O.2   160  PHE160     -0.2867
     87  CB         0.9950   -4.5890   50.4620 C.3   160  PHE160      0.0534
     88  CG        -0.2880   -4.3380   49.7970 C.ar  160  PHE160     -0.0203
     89  CD1       -1.1810   -3.3710   50.2220 C.ar  160  PHE160     -0.0042
     90  CD2       -0.6790   -5.2430   48.8030 C.ar  160  PHE160     -0.0042
     91  CE1       -2.4140   -3.2390   49.5670 C.ar  160  PHE160     -0.0003
     92  CE2       -1.8670   -5.1020   48.1360 C.ar  160  PHE160     -0.0003
     93  CZ        -2.7620   -4.1170   48.5470 C.ar  160  PHE160     -0.0000
     94  N          6.1630    2.3410   45.9560 N.3   211  ILE211     -0.1245
     95  CA         6.5150    1.2790   45.0240 C.3   211  ILE211      0.1561
     96  C          7.6760    1.6940   44.1350 C.2   211  ILE211      0.2260
     97  O          8.6060    0.9420   43.9110 O.2   211  ILE211     -0.2867
     98  CB         5.2910    0.8780   44.2140 C.3   211  ILE211      0.0252
     99  CG1        4.2230    0.2630   45.1410 C.3   211  ILE211      0.0019
    100  CG2        5.6320   -0.0300   43.0950 C.3   211  ILE211      0.0019
    101  CD1        2.8810    0.0280   44.4810 C.3   211  ILE211      0.0001
@<TRIPOS>BOND
     1    52    50    1
     2    49    50    1
     3    49    46    1
     4    45    46    1
     5    50    51    1
     6    46    47    1
     7    35    34    1
     8    47    48    2
     9    31    30    1
    10    31    34    1
    11    31    32    1
    12    27    29    1
    13    27    26    1
    14    36    34    1
    15    33    32    2
    16    58    57    1
    17    28    26    1
    18    32    37   am
    19    23    26    1
    20    23    22    1
    21    23    24    1
    22    25    24    2
    23    57    59    1
    24    57    54    1
    25    15    14    1
    26    14    16    1
    27    14    13    1
    28    67    65    1
    29    53    54    1
    30    37    38    1
    31    12    11    2
    32    54    55    1
    33    65    64    1
    34    13    10    1
    35    10    11    1
    36    10     9    1
    37    38    39    1
    38    38    41    1
    39    11    17   am
    40    60    55   am
    41    60    61    1
    42    42    41    1
    43    42    44    1
    44    55    56    2
    45    39    40    2
    46    64    61    1
    47    64    66    1
    48    41    43    1
    49    61    62    1
    50    20    19    2
    51    17    18    1
    52    18    19    1
    53    18    21    1
    54    62    63    2
    55   100    98    1
    56    73    72    1
    57     8     6    1
    58    97    96    2
    59     4     3    2
    60    96    95    1
    61    98    95    1
    62    98    99    1
    63    72    69    1
    64     2     3    1
    65     2     1    1
    66     2     5    1
    67   101    99    1
    68    68    69    1
    69    95    94    1
    70     6     5    1
    71    82    80   ar
    72    69    70    1
    73     5     7    1
    74    81    80   ar
    75    80    79    1
    76    70    74   am
    77    70    71    2
    78    79    78    1
    79    74    75    1
    80    78    75    1
    81    75    76    1
    82    92    93   ar
    83    92    90   ar
    84    93    91   ar
    85    90    88   ar
    86    76    77    2
    87    91    89   ar
    88    88    89   ar
    89    88    87    1
    90    83    84    1
    91    87    84    1
    92    84    85    1
    93    85    86    2
