@<TRIPOS>MOLECULE
tmp/5fukA04.pdb
 77 71 0 0 0
SMALL
GASTEIGER

@<TRIPOS>ATOM
      1  N        -15.0290  -18.9250    1.0930 N.3   115  ASN115     -0.1226
      2  CA       -15.6390  -20.2170    0.6030 C.3   115  ASN115      0.1770
      3  C        -16.4900  -20.0570   -0.6790 C.2   115  ASN115      0.2439
      4  O        -17.6850  -20.3410   -0.6580 O.2   115  ASN115     -0.2733
      5  CB       -16.4760  -20.8960    1.6770 C.3   115  ASN115      0.1168
      6  CG       -16.2240  -22.4180    1.6940 C.2   115  ASN115      0.2627
      7  OD1      -15.1830  -22.8600    1.1580 O.2   115  ASN115     -0.2716
      8  ND2      -17.0510  -23.1200    2.3350 N.am  115  ASN115     -0.0877
      9  N        -15.9160  -19.4130   -1.6730 N.am  116  PRO116     -0.2729
     10  CA       -16.6850  -19.0890   -2.9280 C.3   116  PRO116      0.1401
     11  C        -17.3060  -20.3550   -3.5440 C.2   116  PRO116      0.2269
     12  O        -16.7000  -21.4350   -3.4740 O.2   116  PRO116     -0.2865
     13  CB       -15.6240  -18.4720   -3.8370 C.3   116  PRO116      0.0296
     14  CG       -14.3210  -18.9540   -3.3240 C.3   116  PRO116      0.0237
     15  CD       -14.4840  -19.1240   -1.7960 C.3   116  PRO116      0.0939
     16  N        -19.7480  -22.0480   -2.3080 N.3   118  ALA118     -0.1245
     17  CA       -20.5510  -22.7660   -1.3100 C.3   118  ALA118      0.1562
     18  C        -21.5070  -21.8680   -0.5330 C.2   118  ALA118      0.2260
     19  O        -21.3850  -20.6220   -0.5620 O.2   118  ALA118     -0.2867
     20  CB       -19.5930  -23.4880   -0.3480 C.3   118  ALA118      0.0290
     21  N        -21.9760  -22.3300    2.7730 N.3   120  VAL120     -0.1245
     22  CA       -21.5060  -22.3750    4.1710 C.3   120  VAL120      0.1561
     23  C        -20.1080  -21.8420    4.2830 C.2   120  VAL120      0.2260
     24  O        -19.3330  -21.7910    3.3190 O.2   120  VAL120     -0.2867
     25  CB       -21.5150  -23.8050    4.7810 C.3   120  VAL120      0.0252
     26  CG1      -22.9340  -24.3120    4.8440 C.3   120  VAL120      0.0019
     27  CG2      -20.5320  -24.7280    4.0710 C.3   120  VAL120      0.0019
     28  N        -16.7180  -22.7450    6.4850 N.3   122  ASN122     -0.1225
     29  CA       -16.2550  -23.9480    7.1930 C.3   122  ASN122      0.1785
     30  C        -14.8590  -23.7960    7.7270 C.2   122  ASN122      0.2597
     31  O        -14.3350  -22.7120    7.7530 O.2   122  ASN122     -0.2718
     32  CB       -16.4830  -25.1560    6.2930 C.3   122  ASN122      0.1169
     33  CG       -15.5880  -25.1390    5.0890 C.2   122  ASN122      0.2627
     34  OD1      -14.5800  -24.3870    4.9780 O.2   122  ASN122     -0.2716
     35  ND2      -15.9500  -26.0020    4.0870 N.am  122  ASN122     -0.0877
     36  N        -14.2830  -24.8710    8.2530 N.am  123  ILE123     -0.1966
     37  CA       -12.9960  -24.7310    8.9070 C.3   123  ILE123      0.1727
     38  C        -11.9420  -24.2610    7.9420 C.2   123  ILE123      0.2616
     39  O        -11.0800  -23.4130    8.2830 O.2   123  ILE123     -0.2715
     40  CB       -12.6180  -26.0780    9.5570 C.3   123  ILE123      0.0290
     41  CG1      -13.4200  -26.2690   10.8500 C.3   123  ILE123      0.0022
     42  CG2      -11.1290  -26.1610    9.8110 C.3   123  ILE123      0.0023
     43  CD1      -13.3780  -27.6610   11.4810 C.3   123  ILE123      0.0001
     44  N        -11.9060  -24.8150    6.6920 N.am  124  SER124     -0.1950
     45  CA       -10.8380  -24.3700    5.8100 C.3   124  SER124      0.1924
     46  C        -11.0100  -22.8990    5.3360 C.2   124  SER124      0.2314
     47  O         -9.9990  -22.1920    5.2100 O.2   124  SER124     -0.2863
     48  CB       -10.6410  -25.2830    4.6120 C.3   124  SER124      0.2116
     49  OG       -11.7990  -25.4140    3.9470 O.3   124  SER124     -0.2180
     50  N        -19.1610  -26.0990   10.4440 N.3   174  GLU174     -0.1245
     51  CA       -19.6530  -25.3050    9.3270 C.3   174  GLU174      0.1567
     52  C        -20.9400  -24.5870    9.6650 C.2   174  GLU174      0.2260
     53  O        -21.7100  -25.0080   10.4990 O.2   174  GLU174     -0.2867
     54  CB       -19.7290  -26.0850    8.0270 C.3   174  GLU174      0.0388
     55  CG       -20.8630  -27.0130    7.9830 C.3   174  GLU174      0.1160
     56  CD       -20.9530  -27.8250    6.6430 C.2   174  GLU174      0.3649
     57  OE1      -19.9380  -28.1750    5.9740 O.co2 174  GLU174     -0.2457
     58  OE2      -22.1130  -28.0200    6.2380 O.co2 174  GLU174     -0.2457
     59  N         -7.6650  -27.0440   14.3570 N.3   213  ARG213     -0.1245
     60  CA        -7.7000  -27.2470   12.9010 C.3   213  ARG213      0.1563
     61  C         -7.6760  -25.9340   12.1240 C.2   213  ARG213      0.2260
     62  O         -6.9810  -25.7970   11.1150 O.2   213  ARG213     -0.2867
     63  CB        -8.9160  -28.0880   12.4730 C.3   213  ARG213      0.0307
     64  CG        -8.8400  -29.5580   12.7740 C.3   213  ARG213      0.0489
     65  CD        -7.8560  -30.2430   11.8670 C.3   213  ARG213      0.2205
     66  NE        -8.2940  -30.4120   10.4960 N.pl3 213  ARG213     -0.0865
     67  CZ        -7.4600  -30.4830    9.4240 C.cat 213  ARG213      0.5346
     68  NH1       -6.1630  -30.3790    9.5510 N.pl3 213  ARG213      0.1354
     69  NH2       -7.9670  -30.6480    8.2370 N.pl3 213  ARG213      0.1354
     70  N         -4.5920  -24.8850    9.4910 N.3   217  LEU217     -0.1245
     71  CA        -4.8610  -24.6250    8.0910 C.3   217  LEU217      0.1561
     72  C         -4.5630  -23.1510    7.6490 C.2   217  LEU217      0.2260
     73  O         -4.6010  -22.8270    6.4470 O.2   217  LEU217     -0.2867
     74  CB        -6.2640  -25.0270    7.7470 C.3   217  LEU217      0.0270
     75  CG        -6.5050  -26.5340    7.8140 C.3   217  LEU217      0.0019
     76  CD1       -7.9780  -26.7830    7.5240 C.3   217  LEU217      0.0001
     77  CD2       -5.6340  -27.2680    6.8290 C.3   217  LEU217      0.0001
@<TRIPOS>BOND
     1    13    14    1
     2    13    10    1
     3    11    12    2
     4    11    10    1
     5    14    15    1
     6    10     9    1
     7    16    17    1
     8    15     9    1
     9     9     3   am
    10    17    18    1
    11    17    20    1
    12     3     4    2
    13     3     2    1
    14    19    18    2
    15     2     1    1
    16     2     5    1
    17     7     6    2
    18     5     6    1
    19     6     8   am
    20    21    22    1
    21    24    23    2
    22    49    48    1
    23    27    25    1
    24    35    33   am
    25    22    23    1
    26    22    25    1
    27    48    45    1
    28    25    26    1
    29    34    33    2
    30    33    32    1
    31    47    46    2
    32    46    45    1
    33    45    44    1
    34    57    56   ar
    35    58    56   ar
    36    32    29    1
    37    73    72    2
    38    28    29    1
    39    56    55    1
    40    44    38   am
    41    77    75    1
    42    29    30    1
    43    76    75    1
    44    72    71    1
    45    30    31    2
    46    30    36   am
    47    74    75    1
    48    74    71    1
    49    38    39    2
    50    38    37    1
    51    55    54    1
    52    54    51    1
    53    71    70    1
    54    69    67    1
    55    36    37    1
    56    37    40    1
    57    51    52    1
    58    51    50    1
    59    67    68    1
    60    67    66    2
    61    40    42    1
    62    40    41    1
    63    52    53    2
    64    66    65    1
    65    41    43    1
    66    62    61    2
    67    65    64    1
    68    61    60    1
    69    63    64    1
    70    63    60    1
    71    60    59    1
