@<TRIPOS>MOLECULE
tmp/5fukB05.pdb
 88 81 0 0 0
SMALL
GASTEIGER

@<TRIPOS>ATOM
      1  N         17.7060   -4.3330   57.4990 N.3   115  ASN115     -0.1226
      2  CA        17.7730   -3.0520   58.2420 C.3   115  ASN115      0.1770
      3  C         18.4610   -3.2600   59.6310 C.2   115  ASN115      0.2439
      4  O         17.9140   -2.9020   60.6800 O.2   115  ASN115     -0.2733
      5  CB        16.4010   -2.3810   58.3840 C.3   115  ASN115      0.1168
      6  CG        16.4920   -0.8640   58.1970 C.2   115  ASN115      0.2627
      7  OD1       17.4800   -0.4100   57.6310 O.2   115  ASN115     -0.2716
      8  ND2       15.5410   -0.1330   58.7040 N.am  115  ASN115     -0.0877
      9  N         19.6640   -3.7900   59.5720 N.am  116  PRO116     -0.2729
     10  CA        20.3040   -4.1390   60.9020 C.3   116  PRO116      0.1401
     11  C         20.5110   -2.8790   61.7550 C.2   116  PRO116      0.2269
     12  O         20.8730   -1.8200   61.2220 O.2   116  PRO116     -0.2865
     13  CB        21.6020   -4.7660   60.4890 C.3   116  PRO116      0.0296
     14  CG        21.8150   -4.3940   59.0610 C.3   116  PRO116      0.0237
     15  CD        20.4660   -4.1850   58.4290 C.3   116  PRO116      0.0939
     16  N         18.2360   -1.1860   63.2600 N.3   118  ALA118     -0.1245
     17  CA        16.9650   -0.4670   63.4040 C.3   118  ALA118      0.1562
     18  C         15.8170   -1.2760   63.9260 C.2   118  ALA118      0.2260
     19  O         15.8850   -2.4980   63.8670 O.2   118  ALA118     -0.2867
     20  CB        16.5910    0.0640   62.0090 C.3   118  ALA118      0.0290
     21  N         12.6540   -0.9270   62.6960 N.3   120  VAL120     -0.1245
     22  CA        11.6610   -0.8950   61.5730 C.3   120  VAL120      0.1561
     23  C         12.3290   -1.4450   60.3370 C.2   120  VAL120      0.2260
     24  O         13.5750   -1.4580   60.1660 O.2   120  VAL120     -0.2867
     25  CB        11.1770    0.5470   61.2560 C.3   120  VAL120      0.0252
     26  CG1       10.3830    1.1010   62.4500 C.3   120  VAL120      0.0019
     27  CG2       12.3360    1.4720   60.9050 C.3   120  VAL120      0.0019
     28  N         12.0300   -0.4670   56.3420 N.3   122  ASN122     -0.1225
     29  CA        11.6440    0.7320   55.6080 C.3   122  ASN122      0.1785
     30  C         11.9040    0.6150   54.1110 C.2   122  ASN122      0.2597
     31  O         12.2180   -0.4470   53.6010 O.2   122  ASN122     -0.2718
     32  CB        12.3880    1.9280   56.2560 C.3   122  ASN122      0.1169
     33  CG        13.8540    1.9220   56.0430 C.2   122  ASN122      0.2627
     34  OD1       14.4480    1.2350   55.1890 O.2   122  ASN122     -0.2716
     35  ND2       14.5130    2.7850   56.8880 N.am  122  ASN122     -0.0877
     36  N         11.7450    1.7240   53.3810 N.am  123  ILE123     -0.1966
     37  CA        11.8720    1.6020   51.9150 C.3   123  ILE123      0.1727
     38  C         13.2400    1.1330   51.4450 C.2   123  ILE123      0.2616
     39  O         13.3450    0.3010   50.5280 O.2   123  ILE123     -0.2715
     40  CB        11.4980    2.9640   51.2280 C.3   123  ILE123      0.0290
     41  CG1        9.9660    3.1470   51.2710 C.3   123  ILE123      0.0022
     42  CG2       12.0850    3.0720   49.8590 C.3   123  ILE123      0.0023
     43  CD1        9.5020    4.5720   50.9490 C.3   123  ILE123      0.0001
     44  N         14.3050    1.6510   52.0870 N.am  124  SER124     -0.1950
     45  CA        15.6050    1.2350   51.6170 C.3   124  SER124      0.1924
     46  C         15.9110   -0.2110   52.0120 C.2   124  SER124      0.2314
     47  O         16.5140   -0.9330   51.1710 O.2   124  SER124     -0.2863
     48  CB        16.7280    2.1960   52.0310 C.3   124  SER124      0.2116
     49  OG        16.6440    2.4480   53.4090 O.3   124  SER124     -0.2180
     50  N          4.8370    7.0930   55.6160 N.3   172  ARG172     -0.1245
     51  CA         6.2660    7.0760   55.9710 C.3   172  ARG172      0.1563
     52  C          6.9700    5.9080   55.2430 C.2   172  ARG172      0.2260
     53  O          8.1900    5.9460   55.0480 O.2   172  ARG172     -0.2867
     54  CB         6.4050    6.8880   57.4750 C.3   172  ARG172      0.0307
     55  CG         7.4090    7.7050   58.2490 C.3   172  ARG172      0.0489
     56  CD         7.3840    7.3480   59.7610 C.3   172  ARG172      0.2205
     57  NE         8.6440    7.7500   60.4240 N.pl3 172  ARG172     -0.0865
     58  CZ         8.9100    8.9610   60.9430 C.cat 172  ARG172      0.5346
     59  NH1        7.9830    9.9280   60.9260 N.pl3 172  ARG172      0.1354
     60  NH2       10.1170    9.2110   61.4960 N.pl3 172  ARG172      0.1354
     61  N          7.3300    2.8170   56.4020 N.3   174  GLU174     -0.1245
     62  CA         8.1460    2.0610   57.3710 C.3   174  GLU174      0.1567
     63  C          7.1880    1.3690   58.3330 C.2   174  GLU174      0.2260
     64  O          6.0990    1.8800   58.5920 O.2   174  GLU174     -0.2867
     65  CB         9.1940    2.9110   58.0620 C.3   174  GLU174      0.0388
     66  CG         8.7080    3.7070   59.1630 C.3   174  GLU174      0.1160
     67  CD         9.7840    4.5060   59.8940 C.2   174  GLU174      0.3649
     68  OE1       10.7820    4.9430   59.2960 O.co2 174  GLU174     -0.2457
     69  OE2        9.5370    4.6940   61.0900 O.co2 174  GLU174     -0.2457
     70  N          9.9060    4.0880   44.5290 N.3   213  ARG213     -0.1245
     71  CA        11.1310    4.2900   45.2810 C.3   213  ARG213      0.1563
     72  C         11.8050    2.9650   45.6380 C.2   213  ARG213      0.2260
     73  O         13.0110    2.8430   45.5080 O.2   213  ARG213     -0.2867
     74  CB        10.7630    5.0680   46.5260 C.3   213  ARG213      0.0307
     75  CG        11.9300    5.5760   47.1510 C.3   213  ARG213      0.0489
     76  CD        12.3870    6.9050   46.4150 C.3   213  ARG213      0.2205
     77  NE        13.4220    7.2830   47.3450 N.pl3 213  ARG213     -0.0865
     78  CZ        14.7140    7.3690   47.0730 C.cat 213  ARG213      0.5346
     79  NH1       15.2270    7.2700   45.8660 N.pl3 213  ARG213      0.1354
     80  NH2       15.4950    7.6310   48.0700 N.pl3 213  ARG213      0.1354
     81  N         15.6260    1.8640   44.2440 N.3   217  LEU217     -0.1245
     82  CA        16.6840    1.5760   45.2020 C.3   217  LEU217      0.1561
     83  C         17.1880    0.1140   45.1300 C.2   217  LEU217      0.2260
     84  O         18.1520   -0.2240   45.7980 O.2   217  LEU217     -0.2867
     85  CB        16.2620    1.9250   46.5990 C.3   217  LEU217      0.0270
     86  CG        16.1020    3.4200   46.8720 C.3   217  LEU217      0.0019
     87  CD1       15.3710    3.6260   48.1730 C.3   217  LEU217      0.0001
     88  CD2       17.4290    4.0970   46.9500 C.3   217  LEU217      0.0001
@<TRIPOS>BOND
     1    81    82    1
     2    70    71    1
     3    83    82    1
     4    83    84    2
     5    82    85    1
     6    71    72    1
     7    71    74    1
     8    73    72    2
     9    79    78    1
    10    76    75    1
    11    76    77    1
    12    74    75    1
    13    85    86    1
    14    86    88    1
    15    86    87    1
    16    78    77    2
    17    78    80    1
    18    42    40    1
    19    39    38    2
    20    43    41    1
    21    47    46    2
    22    40    41    1
    23    40    37    1
    24    38    37    1
    25    38    44   am
    26    45    46    1
    27    45    48    1
    28    45    44    1
    29    37    36    1
    30    48    49    1
    31    36    30   am
    32    31    30    2
    33    30    29    1
    34    53    52    2
    35    34    33    2
    36    52    51    1
    37    29    32    1
    38    29    28    1
    39    50    51    1
    40    51    54    1
    41    33    32    1
    42    33    35   am
    43    61    62    1
    44    62    65    1
    45    62    63    1
    46    54    55    1
    47     1     2    1
    48     7     6    2
    49    65    66    1
    50     6     5    1
    51     6     8   am
    52     2     5    1
    53     2     3    1
    54    55    56    1
    55    63    64    2
    56    15    14    1
    57    15     9    1
    58    14    13    1
    59    66    67    1
    60    68    67   ar
    61     9     3   am
    62     9    10    1
    63     3     4    2
    64    56    57    1
    65    67    69   ar
    66    24    23    2
    67    23    22    1
    68    57    58    2
    69    13    10    1
    70    10    11    1
    71    27    25    1
    72    59    58    1
    73    58    60    1
    74    12    11    2
    75    25    22    1
    76    25    26    1
    77    22    21    1
    78    20    17    1
    79    16    17    1
    80    17    18    1
    81    19    18    2
