@<TRIPOS>MOLECULE
tmp/5fumA00.pdb
 215 216 0 0 0
SMALL
GASTEIGER

@<TRIPOS>ATOM
      1  N         39.6060   22.6760   17.5150 N.3    72  TYR72      -0.1241
      2  CA        39.2750   23.8410   16.7010 C.3    72  TYR72       0.1605
      3  C         37.9150   24.4030   17.1070 C.2    72  TYR72       0.2264
      4  O         37.0070   23.6490   17.4580 O.2    72  TYR72      -0.2867
      5  CB        39.2700   23.4620   15.2120 C.3    72  TYR72       0.0534
      6  CG        38.6800   24.5160   14.2940 C.ar   72  TYR72      -0.0201
      7  CD1       37.3040   24.6230   14.1170 C.ar   72  TYR72      -0.0009
      8  CD2       39.4990   25.3940   13.5920 C.ar   72  TYR72      -0.0009
      9  CE1       36.7600   25.5810   13.2820 C.ar   72  TYR72       0.0417
     10  CE2       38.9620   26.3560   12.7500 C.ar   72  TYR72       0.0417
     11  CZ        37.5910   26.4430   12.6000 C.ar   72  TYR72       0.1957
     12  OH        37.0430   27.3940   11.7660 O.3    72  TYR72      -0.2866
     13  N         34.7420   27.0490   15.8260 N.3    74  ASP74      -0.1239
     14  CA        34.1300   27.7170   14.6850 C.3    74  ASP74       0.1674
     15  C         34.1970   29.2340   14.8230 C.2    74  ASP74       0.2266
     16  O         33.8800   29.7780   15.8810 O.2    74  ASP74      -0.2867
     17  CB        32.6730   27.2770   14.5410 C.3    74  ASP74       0.1410
     18  CG        32.1310   27.5120   13.1500 C.2    74  ASP74       0.3668
     19  OD1       31.6290   28.6250   12.8790 O.co2  74  ASP74      -0.2456
     20  OD2       32.2110   26.5770   12.3270 O.co2  74  ASP74      -0.2456
     21  N         27.0890   25.0150   19.5320 N.3    86  TRP86      -0.1241
     22  CA        27.9170   23.8300   19.3200 C.3    86  TRP86       0.1605
     23  C         29.3490   24.0540   19.7990 C.2    86  TRP86       0.2264
     24  O         30.1240   23.1050   19.9120 O.2    86  TRP86      -0.2867
     25  CB        27.9280   23.4370   17.8390 C.3    86  TRP86       0.0550
     26  CG        26.5660   23.2490   17.2510 C.ar   86  TRP86       0.0003
     27  CD1       25.9220   24.0920   16.3950 C.ar   86  TRP86       0.0946
     28  CD2       25.6750   22.1480   17.4750 C.ar   86  TRP86       0.0152
     29  NE1       24.6870   23.5850   16.0700 N.ar   86  TRP86      -0.2442
     30  CE2       24.5120   22.3930   16.7210 C.ar   86  TRP86       0.0810
     31  CE3       25.7510   20.9800   18.2370 C.ar   86  TRP86       0.0012
     32  CZ2       23.4330   21.5140   16.7080 C.ar   86  TRP86       0.0191
     33  CZ3       24.6780   20.1100   18.2230 C.ar   86  TRP86       0.0001
     34  CH2       23.5360   20.3810   17.4650 C.ar   86  TRP86       0.0015
     35  N         28.7680   14.2030   18.4940 N.3   120  GLY120     -0.1210
     36  CA        29.3880   14.3060   17.1860 C.3   120  GLY120      0.1956
     37  C         30.2420   15.5550   17.0930 C.2   120  GLY120      0.2612
     38  O         30.5470   16.1800   18.1100 O.2   120  GLY120     -0.2717
     39  N         30.6130   15.9220   15.8710 N.am  121  GLY121     -0.1942
     40  CA        31.4670   17.0730   15.6330 C.3   121  GLY121      0.2014
     41  C         32.5990   16.7470   14.6790 C.2   121  GLY121      0.2639
     42  O         33.7070   17.2640   14.8240 O.2   121  GLY121     -0.2714
     43  N         32.3150   15.8800   13.7100 N.am  122  GLY122     -0.1954
     44  CA        33.2680   15.5210   12.6710 C.3   122  GLY122      0.1869
     45  C         34.5830   14.9580   13.1830 C.2   122  GLY122      0.2309
     46  O         35.6050   15.0470   12.5010 O.2   122  GLY122     -0.2863
     47  N         36.4650   16.1820   15.1660 N.3   124  TYR124     -0.1227
     48  CA        37.4220   17.2700   15.3700 C.3   124  TYR124      0.1736
     49  C         36.9150   18.2730   16.4040 C.2   124  TYR124      0.2596
     50  O         37.6480   19.1730   16.8120 O.2   124  TYR124     -0.2718
     51  CB        37.7080   17.9930   14.0480 C.3   124  TYR124      0.0548
     52  CG        36.5580   18.8430   13.5720 C.ar  124  TYR124     -0.0200
     53  CD1       36.3860   20.1380   14.0410 C.ar  124  TYR124     -0.0009
     54  CD2       35.6370   18.3460   12.6630 C.ar  124  TYR124     -0.0009
     55  CE1       35.3320   20.9120   13.6200 C.ar  124  TYR124      0.0417
     56  CE2       34.5800   19.1150   12.2320 C.ar  124  TYR124      0.0417
     57  CZ        34.4340   20.3950   12.7160 C.ar  124  TYR124      0.1957
     58  OH        33.3830   21.1610   12.2930 O.3   124  TYR124     -0.2866
     59  N         35.6560   18.1270   16.8070 N.am  125  SER125     -0.1952
     60  CA        35.0530   19.0220   17.7890 C.3   125  SER125      0.1924
     61  C         34.0130   18.2740   18.6190 C.2   125  SER125      0.2314
     62  O         33.7260   17.1050   18.3550 O.2   125  SER125     -0.2863
     63  CB        34.4120   20.2300   17.0950 C.3   125  SER125      0.2116
     64  OG        33.2210   19.8700   16.4110 O.3   125  SER125     -0.2180
     65  N         22.9410   18.6100   25.0260 N.3   133  TYR133     -0.1241
     66  CA        23.1280   17.2310   25.4820 C.3   133  TYR133      0.1605
     67  C         22.7400   17.0470   26.9600 C.2   133  TYR133      0.2264
     68  O         23.1630   16.0830   27.6030 O.2   133  TYR133     -0.2867
     69  CB        24.5850   16.8000   25.2780 C.3   133  TYR133      0.0534
     70  CG        25.0910   16.9310   23.8570 C.ar  133  TYR133     -0.0201
     71  CD1       24.2380   16.7740   22.7720 C.ar  133  TYR133     -0.0009
     72  CD2       26.4270   17.2090   23.6030 C.ar  133  TYR133     -0.0009
     73  CE1       24.7030   16.8960   21.4740 C.ar  133  TYR133      0.0417
     74  CE2       26.8980   17.3330   22.3120 C.ar  133  TYR133      0.0417
     75  CZ        26.0340   17.1760   21.2520 C.ar  133  TYR133      0.1957
     76  OH        26.5070   17.2980   19.9680 O.3   133  TYR133     -0.2866
     77  N         25.1320   11.1430   17.5080 N.3   202  GLU202     -0.1231
     78  CA        24.7780   11.8470   16.2850 C.3   202  GLU202      0.1699
     79  C         26.0310   12.2270   15.4850 C.2   202  GLU202      0.2592
     80  O         27.0740   12.5310   16.0650 O.2   202  GLU202     -0.2718
     81  CB        23.9380   13.0800   16.6350 C.3   202  GLU202      0.0402
     82  CG        23.3440   13.8160   15.4430 C.3   202  GLU202      0.1161
     83  CD        24.2550   14.8930   14.8800 C.2   202  GLU202      0.3649
     84  OE1       25.3210   15.1650   15.4760 O.co2 202  GLU202     -0.2457
     85  OE2       23.8960   15.4770   13.8350 O.co2 202  GLU202     -0.2457
     86  N         25.9230   12.1780   14.1560 N.am  203  SER203     -0.1952
     87  CA        27.0290   12.5170   13.2530 C.3   203  SER203      0.1924
     88  C         28.2380   11.6110   13.5110 C.2   203  SER203      0.2314
     89  O         28.1290   10.3880   13.4250 O.2   203  SER203     -0.2863
     90  CB        27.4080   13.9960   13.4020 C.3   203  SER203      0.2116
     91  OG        28.5690   14.3140   12.6520 O.3   203  SER203     -0.2180
     92  N         45.9460   24.5730   14.9170 N.3   276  ASP276     -0.1239
     93  CA        46.1170   25.6380   13.9310 C.3   276  ASP276      0.1674
     94  C         46.4630   25.0990   12.5430 C.2   276  ASP276      0.2266
     95  O         46.3860   25.8330   11.5570 O.2   276  ASP276     -0.2867
     96  CB        47.2170   26.6140   14.3740 C.3   276  ASP276      0.1410
     97  CG        46.7600   27.5770   15.4620 C.2   276  ASP276      0.3668
     98  OD1       45.5460   27.6490   15.7460 O.co2 276  ASP276     -0.2456
     99  OD2       47.6270   28.2780   16.0260 O.co2 276  ASP276     -0.2456
    100  N         43.6930   21.3550    9.6940 N.3   279  TRP279     -0.1227
    101  CA        42.8090   21.4790    8.5380 C.3   279  TRP279      0.1737
    102  C         43.5740   21.5700    7.2160 C.2   279  TRP279      0.2595
    103  O         42.9960   21.3770    6.1460 O.2   279  TRP279     -0.2718
    104  CB        41.9060   22.7040    8.6970 C.3   279  TRP279      0.0564
    105  CG        40.7190   22.4530    9.5820 C.ar  279  TRP279      0.0003
    106  CD1       40.5330   22.9000   10.8620 C.ar  279  TRP279      0.0946
    107  CD2       39.5540   21.6880    9.2530 C.ar  279  TRP279      0.0152
    108  NE1       39.3230   22.4620   11.3440 N.ar  279  TRP279     -0.2442
    109  CE2       38.7030   21.7150   10.3770 C.ar  279  TRP279      0.0810
    110  CE3       39.1480   20.9810    8.1160 C.ar  279  TRP279      0.0012
    111  CZ2       37.4710   21.0650   10.3950 C.ar  279  TRP279      0.0191
    112  CZ3       37.9260   20.3360    8.1360 C.ar  279  TRP279      0.0001
    113  CH2       37.1000   20.3830    9.2680 C.ar  279  TRP279      0.0015
    114  N         44.8740   21.8400    7.2960 N.am  280  HIS280     -0.1975
    115  CA        45.6860   22.0970    6.1080 C.3   280  HIS280      0.1656
    116  C         46.2320   20.8290    5.4550 C.2   280  HIS280      0.2291
    117  O         47.0770   20.9120    4.5640 O.2   280  HIS280     -0.2864
    118  CB        46.8590   23.0160    6.4640 C.3   280  HIS280      0.0771
    119  CG        46.4430   24.3420    7.0190 C.ar  280  HIS280      0.0820
    120  ND1       45.2090   24.9030    6.7640 N.ar  280  HIS280     -0.2267
    121  CD2       47.0960   25.2190    7.8180 C.ar  280  HIS280      0.1154
    122  CE1       45.1220   26.0680    7.3820 C.ar  280  HIS280      0.1986
    123  NE2       46.2530   26.2820    8.0290 N.ar  280  HIS280     -0.2212
    124  N         37.3450   20.5710    0.1960 N.3   286  SER286     -0.1202
    125  CA        36.1990   19.7070    0.4560 C.3   286  SER286      0.2020
    126  C         35.3340   20.1770    1.6190 C.2   286  SER286      0.2619
    127  O         35.7850   20.9300    2.4830 O.2   286  SER286     -0.2717
    128  CB        36.6860   18.2800    0.7290 C.3   286  SER286      0.2103
    129  OG        37.7250   18.2770    1.6960 O.3   286  SER286     -0.2182
    130  N         34.0820   19.7280    1.6110 N.am  287  ILE287     -0.1965
    131  CA        33.1860   19.8770    2.7500 C.3   287  ILE287      0.1727
    132  C         32.7910   18.4900    3.2450 C.2   287  ILE287      0.2616
    133  O         32.8250   17.5190    2.4850 O.2   287  ILE287     -0.2715
    134  CB        31.9240   20.6870    2.3930 C.3   287  ILE287      0.0290
    135  CG1       31.1650   20.0260    1.2380 C.3   287  ILE287      0.0022
    136  CG2       32.3080   22.1110    2.0320 C.3   287  ILE287      0.0023
    137  CD1       29.8180   20.6490    0.9600 C.3   287  ILE287      0.0001
    138  N         32.4190   18.4070    4.5180 N.am  288  PHE288     -0.1960
    139  CA        32.0640   17.1360    5.1410 C.3   288  PHE288      0.1771
    140  C         33.2510   16.1800    5.0540 C.2   288  PHE288      0.2619
    141  O         33.0920   14.9750    4.8500 O.2   288  PHE288     -0.2715
    142  CB        30.8190   16.5370    4.4770 C.3   288  PHE288      0.0574
    143  CG        29.9150   15.8020    5.4320 C.ar  288  PHE288     -0.0200
    144  CD1       30.4320   14.9120    6.3620 C.ar  288  PHE288     -0.0042
    145  CD2       28.5440   16.0020    5.3980 C.ar  288  PHE288     -0.0042
    146  CE1       29.5980   14.2380    7.2380 C.ar  288  PHE288     -0.0003
    147  CE2       27.7060   15.3300    6.2730 C.ar  288  PHE288     -0.0003
    148  CZ        28.2330   14.4490    7.1930 C.ar  288  PHE288     -0.0000
    149  N         34.4460   16.7440    5.1970 N.am  289  ARG289     -0.1963
    150  CA        35.6770   15.9700    5.2410 C.3   289  ARG289      0.1729
    151  C         36.5170   16.4750    6.3940 C.2   289  ARG289      0.2616
    152  O         36.6110   17.6800    6.6290 O.2   289  ARG289     -0.2715
    153  CB        36.4540   16.0740    3.9280 C.3   289  ARG289      0.0348
    154  CG        35.7670   15.4230    2.7430 C.3   289  ARG289      0.0492
    155  CD        35.6420   13.9150    2.9150 C.3   289  ARG289      0.2205
    156  NE        35.1330   13.2740    1.7040 N.pl3 289  ARG289     -0.0865
    157  CZ        33.8530   12.9910    1.4700 C.cat 289  ARG289      0.5346
    158  NH1       32.9150   13.2770    2.3670 N.pl3 289  ARG289      0.1354
    159  NH2       33.5120   12.4100    0.3280 N.pl3 289  ARG289      0.1354
    160  N         37.1170   15.5390    7.1170 N.am  290  PHE290     -0.1974
    161  CA        37.8600   15.8610    8.3200 C.3   290  PHE290      0.1639
    162  C         39.2110   15.1620    8.2830 C.2   290  PHE290      0.2290
    163  O         39.3190   14.0130    7.8540 O.2   290  PHE290     -0.2864
    164  CB        37.0410   15.4610    9.5450 C.3   290  PHE290      0.0560
    165  CG        35.5560   15.6380    9.3510 C.ar  290  PHE290     -0.0200
    166  CD1       34.9980   16.9060    9.3040 C.ar  290  PHE290     -0.0042
    167  CD2       34.7230   14.5400    9.1970 C.ar  290  PHE290     -0.0042
    168  CE1       33.6350   17.0780    9.1160 C.ar  290  PHE290     -0.0003
    169  CE2       33.3580   14.7070    9.0110 C.ar  290  PHE290     -0.0003
    170  CZ        32.8150   15.9780    8.9700 C.ar  290  PHE290     -0.0000
    171  N         23.5860   22.3700    5.9710 N.3   330  TYR330     -0.1227
    172  CA        24.5060   22.9590    6.9420 C.3   330  TYR330      0.1736
    173  C         25.9170   23.1060    6.3760 C.2   330  TYR330      0.2595
    174  O         26.6060   24.0910    6.6300 O.2   330  TYR330     -0.2718
    175  CB        24.5410   22.0950    8.2070 C.3   330  TYR330      0.0548
    176  CG        24.8210   22.8430    9.4920 C.ar  330  TYR330     -0.0200
    177  CD1       25.7220   23.8980    9.5340 C.ar  330  TYR330     -0.0009
    178  CD2       24.1780   22.4880   10.6680 C.ar  330  TYR330     -0.0009
    179  CE1       25.9700   24.5770   10.7050 C.ar  330  TYR330      0.0417
    180  CE2       24.4240   23.1600   11.8460 C.ar  330  TYR330      0.0417
    181  CZ        25.3180   24.2050   11.8590 C.ar  330  TYR330      0.1957
    182  OH        25.5710   24.8750   13.0350 O.3   330  TYR330     -0.2866
    183  N         26.3340   22.1230    5.5900 N.am  331  PHE331     -0.1976
    184  CA        27.7180   22.0430    5.1410 C.3   331  PHE331      0.1639
    185  C         28.0450   22.9630    3.9640 C.2   331  PHE331      0.2290
    186  O         29.2130   23.2710    3.7230 O.2   331  PHE331     -0.2864
    187  CB        28.0410   20.5930    4.7800 C.3   331  PHE331      0.0560
    188  CG        27.9620   19.6610    5.9520 C.ar  331  PHE331     -0.0200
    189  CD1       26.7550   19.0930    6.3210 C.ar  331  PHE331     -0.0042
    190  CD2       29.0900   19.3710    6.7020 C.ar  331  PHE331     -0.0042
    191  CE1       26.6780   18.2440    7.4090 C.ar  331  PHE331     -0.0003
    192  CE2       29.0180   18.5260    7.7900 C.ar  331  PHE331     -0.0003
    193  CZ        27.8100   17.9620    8.1440 C.ar  331  PHE331     -0.0000
    194  N         29.8170   26.3150    4.5750 N.3   334  TYR334     -0.1241
    195  CA        31.1860   26.1480    5.0610 C.3   334  TYR334      0.1605
    196  C         32.1440   25.6950    3.9520 C.2   334  TYR334      0.2264
    197  O         33.0550   24.9050    4.2030 O.2   334  TYR334     -0.2867
    198  CB        31.2230   25.1430    6.2250 C.3   334  TYR334      0.0534
    199  CG        30.7430   25.7080    7.5410 C.ar  334  TYR334     -0.0201
    200  CD1       31.6200   26.3590    8.3940 C.ar  334  TYR334     -0.0009
    201  CD2       29.4170   25.5910    7.9310 C.ar  334  TYR334     -0.0009
    202  CE1       31.1920   26.8850    9.5920 C.ar  334  TYR334      0.0417
    203  CE2       28.9780   26.1130    9.1330 C.ar  334  TYR334      0.0417
    204  CZ        29.8720   26.7590    9.9610 C.ar  334  TYR334      0.1957
    205  OH        29.4460   27.2810   11.1630 O.3   334  TYR334     -0.2866
    206  N         21.4430   19.2300    9.6870 N.3   440  HIS440     -0.1241
    207  CA        22.2450   18.2970   10.4640 C.3   440  HIS440      0.1621
    208  C         22.3450   18.7040   11.9350 C.2   440  HIS440      0.2264
    209  O         22.8940   19.7590   12.2580 O.2   440  HIS440     -0.2867
    210  CB        23.6410   18.2160    9.8370 C.3   440  HIS440      0.0745
    211  CG        24.4450   17.0320   10.2680 C.ar  440  HIS440      0.0817
    212  ND1       24.0500   15.7330   10.0250 N.ar  440  HIS440     -0.2268
    213  CD2       25.6410   16.9500   10.8950 C.ar  440  HIS440      0.1154
    214  CE1       24.9610   14.9040   10.4990 C.ar  440  HIS440      0.1986
    215  NE2       25.9390   15.6160   11.0300 N.ar  440  HIS440     -0.2212
@<TRIPOS>BOND
     1   124   125    1
     2   159   157    1
     3   125   128    1
     4   125   126    1
     5   128   129    1
     6   137   135    1
     7   135   134    1
     8   157   156    2
     9   157   158    1
    10   130   126   am
    11   130   131    1
    12   126   127    2
    13   156   155    1
    14   136   134    1
    15   134   131    1
    16   133   132    2
    17   154   155    1
    18   154   153    1
    19   131   132    1
    20   132   138   am
    21   186   185    2
    22   153   150    1
    23   196   197    2
    24   196   195    1
    25   185   184    1
    26   142   139    1
    27   142   143    1
    28   138   139    1
    29   117   116    2
    30   194   195    1
    31   187   184    1
    32   187   188    1
    33   141   140    2
    34   140   139    1
    35   140   149   am
    36   195   198    1
    37   184   183    1
    38   149   150    1
    39   150   151    1
    40   145   143   ar
    41   145   147   ar
    42   143   144   ar
    43   116   115    1
    44   183   173   am
    45   188   189   ar
    46   188   190   ar
    47   171   172    1
    48   115   118    1
    49   115   114    1
    50   103   102    2
    51   198   199    1
    52   147   148   ar
    53   189   191   ar
    54   144   146   ar
    55   173   174    2
    56   173   172    1
    57   151   152    2
    58   151   160   am
    59   118   119    1
    60   190   192   ar
    61   120   119   ar
    62   120   122   ar
    63   172   175    1
    64   119   121   ar
    65   160   161    1
    66   148   146   ar
    67   102   114   am
    68   102   101    1
    69   122   123   ar
    70   191   193   ar
    71   199   201   ar
    72   199   200   ar
    73   192   193   ar
    74   121   123   ar
    75   163   162    2
    76   201   203   ar
    77   110   112   ar
    78   110   107   ar
    79   112   113   ar
    80   175   176    1
    81   162   161    1
    82   161   164    1
    83   200   202   ar
    84   101   104    1
    85   101   100    1
    86   104   105    1
    87   170   169   ar
    88   170   168   ar
    89   169   167   ar
    90   168   166   ar
    91   203   204   ar
    92   167   165   ar
    93   107   105   ar
    94   107   109   ar
    95   113   111   ar
    96   166   165   ar
    97   165   164    1
    98   176   177   ar
    99   176   178   ar
   100   177   179   ar
   101   105   106   ar
   102   202   204   ar
   103   206   207    1
   104   210   211    1
   105   210   207    1
   106   204   205    1
   107   212   211   ar
   108   212   214   ar
   109   211   213   ar
   110   109   111   ar
   111   109   108   ar
   112   207   208    1
   113   214   215   ar
   114   178   180   ar
   115   179   181   ar
   116   106   108   ar
   117   213   215   ar
   118    95    94    2
   119    12    11    1
   120   180   181   ar
   121   181   182    1
   122   208   209    2
   123    56    54   ar
   124    56    57   ar
   125    58    57    1
   126    20    18   ar
   127    46    45    2
   128    94    93    1
   129    11    10   ar
   130    11     9   ar
   131    91    90    1
   132    54    52   ar
   133    44    45    1
   134    44    43    1
   135    57    55   ar
   136    10     8   ar
   137    19    18   ar
   138    18    17    1
   139    87    90    1
   140    87    88    1
   141    87    86    1
   142     9     7   ar
   143    89    88    2
   144    52    53   ar
   145    52    51    1
   146     8     6   ar
   147    55    53   ar
   148    43    41   am
   149    85    83   ar
   150    93    96    1
   151    93    92    1
   152    51    48    1
   153     7     6   ar
   154    86    79   am
   155     6     5    1
   156    96    97    1
   157    17    14    1
   158    41    42    2
   159    41    40    1
   160    14    15    1
   161    14    13    1
   162    15    16    2
   163    83    82    1
   164    83    84   ar
   165    47    48    1
   166     5     2    1
   167    48    49    1
   168    82    81    1
   169    97    98   ar
   170    97    99   ar
   171    79    80    2
   172    79    78    1
   173    40    39    1
   174    39    37   am
   175    29    27   ar
   176    29    30   ar
   177    78    81    1
   178    78    77    1
   179    27    26   ar
   180    49    59   am
   181    49    50    2
   182    64    63    1
   183     2     3    1
   184     2     1    1
   185    32    30   ar
   186    32    34   ar
   187    30    28   ar
   188    59    60    1
   189    37    36    1
   190    37    38    2
   191    63    60    1
   192     3     4    2
   193    36    35    1
   194    26    28   ar
   195    26    25    1
   196    34    33   ar
   197    28    31   ar
   198    60    61    1
   199    25    22    1
   200    33    31   ar
   201    62    61    2
   202    22    21    1
   203    22    23    1
   204    23    24    2
   205    76    75    1
   206    75    73   ar
   207    75    74   ar
   208    73    71   ar
   209    74    72   ar
   210    71    70   ar
   211    72    70   ar
   212    70    69    1
   213    65    66    1
   214    69    66    1
   215    66    67    1
   216    67    68    2
