@<TRIPOS>MOLECULE
tmp/5funA00.pdb
 190 182 0 0 0
SMALL
GASTEIGER

@<TRIPOS>ATOM
      1  N         91.7250   52.3800   13.5670 N.3    63  ARG63      -0.1245
      2  CA        91.5370   52.4050   12.1230 C.3    63  ARG63       0.1563
      3  C         92.8440   52.7990   11.4370 C.2    63  ARG63       0.2260
      4  O         93.5530   53.6910   11.9010 O.2    63  ARG63      -0.2867
      5  CB        90.4150   53.3700   11.7310 C.3    63  ARG63       0.0307
      6  CG        88.9580   52.8730   11.9500 C.3    63  ARG63       0.0489
      7  CD        88.5000   52.8510   13.4210 C.3    63  ARG63       0.2205
      8  NE        87.0870   52.4770   13.5260 N.pl3  63  ARG63      -0.0865
      9  CZ        86.0650   53.2770   13.1990 C.cat  63  ARG63       0.5346
     10  NH1       86.2960   54.5270   12.7890 N.pl3  63  ARG63       0.1354
     11  NH2       84.8070   52.8530   13.3100 N.pl3  63  ARG63       0.1354
     12  N         95.1910   54.2340    8.2720 N.3    65  GLN65      -0.1245
     13  CA        95.0350   55.3710    7.3750 C.3    65  GLN65       0.1566
     14  C         96.2200   55.5540    6.4320 C.2    65  GLN65       0.2260
     15  O         97.3460   55.7810    6.8760 O.2    65  GLN65      -0.2867
     16  CB        94.8340   56.6460    8.1950 C.3    65  GLN65       0.0367
     17  CG        93.7960   57.5980    7.6410 C.3    65  GLN65       0.0905
     18  CD        93.4910   58.7290    8.6020 C.2    65  GLN65       0.2608
     19  OE1       94.3900   59.2720    9.2450 O.2    65  GLN65      -0.2717
     20  NE2       92.2170   59.0870    8.7090 N.am   65  GLN65      -0.0878
     21  N         86.8290   55.4310    3.3850 N.3    74  THR74      -0.1203
     22  CA        85.5540   55.0520    3.9960 C.3    74  THR74       0.1994
     23  C         85.7450   54.5330    5.4210 C.2    74  THR74       0.2618
     24  O         86.7000   54.9030    6.1030 O.2    74  THR74      -0.2717
     25  CB        84.8240   53.9680    3.1750 C.3    74  THR74       0.1784
     26  OG1       85.7790   53.0390    2.6480 O.3    74  THR74      -0.2211
     27  CG2       84.0470   54.5900    2.0300 C.3    74  THR74       0.0376
     28  N         84.8320   53.6700    5.8610 N.am   75  ARG75      -0.1965
     29  CA        84.9020   53.0860    7.1990 C.3    75  ARG75       0.1729
     30  C         85.3220   51.6180    7.1750 C.2    75  ARG75       0.2616
     31  O         85.9690   51.1650    6.2300 O.2    75  ARG75      -0.2715
     32  CB        83.5580   53.2270    7.9160 C.3    75  ARG75       0.0348
     33  CG        83.3060   54.6120    8.4840 C.3    75  ARG75       0.0492
     34  CD        82.0080   55.2030    7.9680 C.3    75  ARG75       0.2205
     35  NE        81.9120   56.6270    8.2730 N.pl3  75  ARG75      -0.0865
     36  CZ        82.5100   57.5830    7.5710 C.cat  75  ARG75       0.5346
     37  NH1       83.2500   57.2710    6.5140 N.pl3  75  ARG75       0.1354
     38  NH2       82.3690   58.8540    7.9220 N.pl3  75  ARG75       0.1354
     39  N         84.9390   50.8960    8.2290 N.am   76  VAL76      -0.1977
     40  CA        85.3010   49.4920    8.4470 C.3    76  VAL76       0.1596
     41  C         85.2580   48.6350    7.1830 C.2    76  VAL76       0.2287
     42  O         86.2960   48.2000    6.6830 O.2    76  VAL76      -0.2864
     43  CB        84.3740   48.8490    9.5110 C.3    76  VAL76       0.0276
     44  CG1       83.8100   47.5190    9.0190 C.3    76  VAL76       0.0022
     45  CG2       85.1080   48.6800   10.8360 C.3    76  VAL76       0.0022
     46  N         94.5110   55.5990   14.0140 N.3   128  TYR128     -0.1241
     47  CA        93.7910   56.5130   14.8750 C.3   128  TYR128      0.1605
     48  C         92.6750   55.7840   15.5860 C.2   128  TYR128      0.2264
     49  O         92.4270   54.6030   15.3470 O.2   128  TYR128     -0.2867
     50  CB        93.2390   57.6980   14.0790 C.3   128  TYR128      0.0534
     51  CG        92.2570   57.3180   12.9970 C.ar  128  TYR128     -0.0201
     52  CD1       92.6980   56.9040   11.7480 C.ar  128  TYR128     -0.0009
     53  CD2       90.8880   57.3820   13.2210 C.ar  128  TYR128     -0.0009
     54  CE1       91.8030   56.5580   10.7540 C.ar  128  TYR128      0.0417
     55  CE2       89.9860   57.0380   12.2340 C.ar  128  TYR128      0.0417
     56  CZ        90.4490   56.6300   11.0020 C.ar  128  TYR128      0.1957
     57  OH        89.5560   56.2840   10.0150 O.3   128  TYR128     -0.2866
     58  N         88.5990   56.1810   16.4890 N.3   130  ALA130     -0.1245
     59  CA        87.3470   56.8920   16.2510 C.3   130  ALA130      0.1562
     60  C         86.1530   56.0240   16.6280 C.2   130  ALA130      0.2260
     61  O         85.8390   55.0560   15.9350 O.2   130  ALA130     -0.2867
     62  CB        87.2510   57.3300   14.8010 C.3   130  ALA130      0.0290
     63  N         81.4080   61.6070   20.1450 N.3   188  TRP188     -0.1241
     64  CA        82.4240   60.7570   19.5360 C.3   188  TRP188      0.1605
     65  C         83.7710   60.9980   20.2040 C.2   188  TRP188      0.2264
     66  O         84.0640   62.1100   20.6410 O.2   188  TRP188     -0.2867
     67  CB        82.5290   61.0190   18.0320 C.3   188  TRP188      0.0550
     68  CG        81.4240   60.4080   17.2260 C.ar  188  TRP188      0.0003
     69  CD1       80.1320   60.8400   17.1450 C.ar  188  TRP188      0.0946
     70  CD2       81.5190   59.2590   16.3750 C.ar  188  TRP188      0.0152
     71  NE1       79.4150   60.0270   16.3010 N.ar  188  TRP188     -0.2442
     72  CE2       80.2430   59.0500   15.8140 C.ar  188  TRP188      0.0810
     73  CE3       82.5570   58.3870   16.0350 C.ar  188  TRP188      0.0012
     74  CZ2       79.9780   58.0030   14.9340 C.ar  188  TRP188      0.0191
     75  CZ3       82.2910   57.3490   15.1610 C.ar  188  TRP188      0.0001
     76  CH2       81.0120   57.1660   14.6200 C.ar  188  TRP188      0.0015
     77  N         87.9110   60.7790   19.7130 N.3   190  TYR190     -0.1241
     78  CA        88.9880   60.6600   18.7380 C.3   190  TYR190      0.1605
     79  C         90.3580   60.6080   19.4060 C.2   190  TYR190      0.2264
     80  O         90.7890   61.5720   20.0390 O.2   190  TYR190     -0.2867
     81  CB        88.9440   61.8190   17.7390 C.3   190  TYR190      0.0534
     82  CG        87.6150   61.9990   17.0380 C.ar  190  TYR190     -0.0201
     83  CD1       87.1270   61.0340   16.1640 C.ar  190  TYR190     -0.0009
     84  CD2       86.8560   63.1450   17.2360 C.ar  190  TYR190     -0.0009
     85  CE1       85.9130   61.2020   15.5170 C.ar  190  TYR190      0.0417
     86  CE2       85.6460   63.3220   16.5940 C.ar  190  TYR190      0.0417
     87  CZ        85.1780   62.3500   15.7370 C.ar  190  TYR190      0.1957
     88  OH        83.9700   62.5300   15.1010 O.3   190  TYR190     -0.2866
     89  N         94.4340   61.9620   10.2970 N.3   197  SER197     -0.1202
     90  CA        93.6400   63.0410    9.7230 C.3   197  SER197      0.2020
     91  C         92.1620   62.7180    9.5530 C.2   197  SER197      0.2619
     92  O         91.7500   61.5580    9.5830 O.2   197  SER197     -0.2717
     93  CB        94.2170   63.4380    8.3620 C.3   197  SER197      0.2103
     94  OG        94.1570   62.3560    7.4520 O.3   197  SER197     -0.2182
     95  N         91.3680   63.7680    9.3770 N.am  198  PHE198     -0.1961
     96  CA        89.9800   63.6140    8.9780 C.3   198  PHE198      0.1771
     97  C         89.7380   64.3760    7.6790 C.2   198  PHE198      0.2619
     98  O         90.1540   65.5250    7.5270 O.2   198  PHE198     -0.2715
     99  CB        89.0150   64.0700   10.0840 C.3   198  PHE198      0.0574
    100  CG        89.3440   65.4090   10.7020 C.ar  198  PHE198     -0.0200
    101  CD1       90.3520   65.5300   11.6500 C.ar  198  PHE198     -0.0042
    102  CD2       88.6020   66.5350   10.3780 C.ar  198  PHE198     -0.0042
    103  CE1       90.6370   66.7550   12.2340 C.ar  198  PHE198     -0.0003
    104  CE2       88.8780   67.7610   10.9620 C.ar  198  PHE198     -0.0003
    105  CZ        89.9000   67.8720   11.8890 C.ar  198  PHE198     -0.0000
    106  N         89.0760   63.7100    6.7400 N.am  199  CYS199     -0.1968
    107  CA        88.8880   64.2340    5.3940 C.3   199  CYS199      0.1712
    108  C         87.8470   65.3440    5.3350 C.2   199  CYS199      0.2296
    109  O         87.0950   65.5510    6.2880 O.2   199  CYS199     -0.2864
    110  CB        88.4900   63.0990    4.4500 C.3   199  CYS199      0.0983
    111  SG        89.6870   61.7480    4.3860 S.3   199  CYS199     -0.0798
    112  N         84.5740   67.1520    4.8680 N.3   201  HIS201     -0.1241
    113  CA        83.2060   66.6910    5.0510 C.3   201  HIS201      0.1621
    114  C         82.3580   67.7420    5.7460 C.2   201  HIS201      0.2264
    115  O         82.8780   68.6770    6.3590 O.2   201  HIS201     -0.2867
    116  CB        83.1810   65.4040    5.8730 C.3   201  HIS201      0.0745
    117  CG        83.4430   65.6270    7.3320 C.ar  201  HIS201      0.0817
    118  ND1       84.7070   65.8160    7.8330 N.ar  201  HIS201     -0.2268
    119  CD2       82.5940   65.7100    8.3840 C.ar  201  HIS201      0.1154
    120  CE1       84.6320   66.0020    9.1450 C.ar  201  HIS201      0.1986
    121  NE2       83.3660   65.9400    9.5000 N.ar  201  HIS201     -0.2212
    122  N         78.6190   67.8480    8.3130 N.3   203  GLU203     -0.1245
    123  CA        77.8750   66.9780    9.2160 C.3   203  GLU203      0.1567
    124  C         76.5540   66.5320    8.6010 C.2   203  GLU203      0.2260
    125  O         76.0470   67.1630    7.6720 O.2   203  GLU203     -0.2867
    126  CB        77.6290   67.6840   10.5490 C.3   203  GLU203      0.0388
    127  CG        78.9040   68.1590   11.2290 C.3   203  GLU203      0.1160
    128  CD        79.9380   67.0570   11.3630 C.2   203  GLU203      0.3649
    129  OE1       79.5760   65.9470   11.8060 O.co2 203  GLU203     -0.2457
    130  OE2       81.1140   67.2970   11.0160 O.co2 203  GLU203     -0.2457
    131  N         78.6610   71.2440   14.8920 N.3   209  SER209     -0.1217
    132  CA        79.4270   70.3130   15.7010 C.3   209  SER209      0.1889
    133  C         80.3130   71.1170   16.6320 C.2   209  SER209      0.2288
    134  O         80.7770   72.2020   16.2810 O.2   209  SER209     -0.2866
    135  CB        80.2610   69.3620   14.8400 C.3   209  SER209      0.2089
    136  OG        81.3290   70.0390   14.2040 O.3   209  SER209     -0.2183
    137  N         83.7200   70.5900   19.1830 N.3   211  ASN211     -0.1240
    138  CA        84.8190   69.6710   19.4270 C.3   211  ASN211      0.1653
    139  C         85.7090   70.1600   20.5540 C.2   211  ASN211      0.2266
    140  O         86.0920   71.3270   20.5900 O.2   211  ASN211     -0.2867
    141  CB        85.6430   69.4870   18.1520 C.3   211  ASN211      0.1155
    142  CG        84.7820   69.2030   16.9380 C.2   211  ASN211      0.2627
    143  OD1       83.9940   70.0480   16.5110 O.2   211  ASN211     -0.2716
    144  ND2       84.9370   68.0140   16.3670 N.am  211  ASN211     -0.0877
    145  N         95.4790   69.9360   17.4790 N.3   219  LYS219     -0.1245
    146  CA        94.7440   69.4360   16.3290 C.3   219  LYS219      0.1561
    147  C         94.6350   70.5600   15.3070 C.2   219  LYS219      0.2260
    148  O         94.0920   71.6240   15.6050 O.2   219  LYS219     -0.2867
    149  CB        93.3550   68.9400   16.7470 C.3   219  LYS219      0.0271
    150  CG        92.5700   68.2440   15.6460 C.3   219  LYS219      0.0035
    151  CD        91.1610   67.8920   16.1130 C.3   219  LYS219      0.0206
    152  CE        91.1630   66.7120   17.0770 C.3   219  LYS219      0.1093
    153  NZ        91.4460   65.4260   16.3830 N.3   219  LYS219     -0.1314
    154  N         93.1800   72.4040   12.1310 N.3   221  TRP221     -0.1241
    155  CA        91.9020   72.4490   11.4310 C.3   221  TRP221      0.1605
    156  C         91.9640   73.2600   10.1460 C.2   221  TRP221      0.2264
    157  O         92.7360   74.2100   10.0350 O.2   221  TRP221     -0.2867
    158  CB        90.8190   73.0490   12.3300 C.3   221  TRP221      0.0550
    159  CG        90.3800   72.1810   13.4640 C.ar  221  TRP221      0.0003
    160  CD1       91.0730   71.9100   14.6070 C.ar  221  TRP221      0.0946
    161  CD2       89.1270   71.4970   13.5780 C.ar  221  TRP221      0.0152
    162  NE1       90.3340   71.0860   15.4220 N.ar  221  TRP221     -0.2442
    163  CE2       89.1380   70.8190   14.8160 C.ar  221  TRP221      0.0810
    164  CE3       88.0040   71.3870   12.7550 C.ar  221  TRP221      0.0012
    165  CZ2       88.0620   70.0410   15.2460 C.ar  221  TRP221      0.0191
    166  CZ3       86.9390   70.6140   13.1830 C.ar  221  TRP221      0.0001
    167  CH2       86.9750   69.9510   14.4190 C.ar  221  TRP221      0.0015
    168  N         84.9300   70.9850    6.6410 N.3   289  HIS289     -0.1241
    169  CA        86.1430   71.0160    7.4400 C.3   289  HIS289      0.1621
    170  C         86.9640   69.7440    7.2810 C.2   289  HIS289      0.2264
    171  O         86.4450   68.6840    6.9300 O.2   289  HIS289     -0.2867
    172  CB        85.8160   71.2540    8.9200 C.3   289  HIS289      0.0745
    173  CG        84.7840   70.3250    9.4760 C.ar  289  HIS289      0.0817
    174  ND1       83.4350   70.4730    9.2250 N.ar  289  HIS289     -0.2268
    175  CD2       84.8970   69.2440   10.2830 C.ar  289  HIS289      0.1154
    176  CE1       82.7660   69.5210    9.8460 C.ar  289  HIS289      0.1986
    177  NE2       83.6290   68.7600   10.4970 N.ar  289  HIS289     -0.2212
    178  N         96.1600   65.6360   13.1500 N.3   293  ASN293     -0.1240
    179  CA        96.6810   65.7920   14.4990 C.3   293  ASN293      0.1653
    180  C         98.1930   65.9800   14.5020 C.2   293  ASN293      0.2266
    181  O         98.9180   65.3110   13.7630 O.2   293  ASN293     -0.2867
    182  CB        96.2890   64.5910   15.3580 C.3   293  ASN293      0.1155
    183  CG        94.7860   64.4400   15.4870 C.2   293  ASN293      0.2627
    184  OD1       94.1190   65.2700   16.1060 O.2   293  ASN293     -0.2716
    185  ND2       94.2420   63.3850   14.8920 N.am  293  ASN293     -0.0877
    186  N         90.4160   63.7750   21.7950 N.3   299  ALA299     -0.1245
    187  CA        89.3610   64.7450   21.5390 C.3   299  ALA299      0.1562
    188  C         87.9780   64.1300   21.6930 C.2   299  ALA299      0.2260
    189  O         87.8010   62.9200   21.5560 O.2   299  ALA299     -0.2867
    190  CB        89.5180   65.3420   20.1480 C.3   299  ALA299      0.0290
@<TRIPOS>BOND
     1    27    25    1
     2    26    25    1
     3    25    22    1
     4    21    22    1
     5    22    23    1
     6   111   110    1
     7   110   107    1
     8   112   113    1
     9   113   114    1
    10   113   116    1
    11   108   107    1
    12   108   109    2
    13   107   106    1
    14    23    28   am
    15    23    24    2
    16   114   115    2
    17    28    29    1
    18   116   117    1
    19    31    30    2
    20    14    15    2
    21    14    13    1
    22    37    36    1
    23   168   169    1
    24    42    41    2
    25   106    97   am
    26   171   170    2
    27    30    29    1
    28    30    39   am
    29    41    40    1
    30    29    32    1
    31   170   169    1
    32   117   118   ar
    33   117   119   ar
    34    13    16    1
    35    13    12    1
    36   169   172    1
    37    94    93    1
    38    98    97    2
    39    36    38    1
    40    36    35    2
    41    17    16    1
    42    17    18    1
    43   125   124    2
    44    97    96    1
    45   118   120   ar
    46    32    33    1
    47    34    35    1
    48    34    33    1
    49    39    40    1
    50   122   123    1
    51    93    90    1
    52   119   121   ar
    53    40    43    1
    54   124   123    1
    55    18    20   am
    56    18    19    2
    57   172   173    1
    58    96    95    1
    59    96    99    1
    60    44    43    1
    61   120   121   ar
    62   123   126    1
    63   174   173   ar
    64   174   176   ar
    65    95    91   am
    66   173   175   ar
    67    43    45    1
    68    91    92    2
    69    91    90    1
    70    90    89    1
    71   176   177   ar
    72    57    56    1
    73   157   156    2
    74    99   100    1
    75   156   155    1
    76   175   177   ar
    77   102   100   ar
    78   102   104   ar
    79   126   127    1
    80   100   101   ar
    81    54    56   ar
    82    54    52   ar
    83   104   105   ar
    84    56    55   ar
    85   130   128   ar
    86   127   128    1
    87   128   129   ar
    88   155   154    1
    89   155   158    1
    90     3     4    2
    91     3     2    1
    92   101   103   ar
    93     5     6    1
    94     5     2    1
    95    52    51   ar
    96   105   103   ar
    97     6     7    1
    98     2     1    1
    99    55    53   ar
   100   158   159    1
   101   164   166   ar
   102   164   161   ar
   103    10     9    1
   104    51    53   ar
   105    51    50    1
   106   178   179    1
   107   166   167   ar
   108     9    11    1
   109     9     8    2
   110     7     8    1
   111   159   161   ar
   112   159   160   ar
   113   161   163   ar
   114   181   180    2
   115    46    47    1
   116    50    47    1
   117   136   135    1
   118   167   165   ar
   119   179   180    1
   120   179   182    1
   121   160   162   ar
   122    76    74   ar
   123    76    75   ar
   124    62    59    1
   125   163   165   ar
   126   163   162   ar
   127   135   132    1
   128    47    48    1
   129   185   183   am
   130   131   132    1
   131    74    72   ar
   132    88    87    1
   133    75    73   ar
   134   147   148    2
   135   147   146    1
   136    49    48    2
   137   182   183    1
   138   183   184    2
   139    85    87   ar
   140    85    83   ar
   141   150   151    1
   142   150   149    1
   143   132   133    1
   144    87    86   ar
   145    72    71   ar
   146    72    70   ar
   147    61    60    2
   148    73    70   ar
   149   151   152    1
   150    83    82   ar
   151    59    58    1
   152    59    60    1
   153   134   133    2
   154    71    69   ar
   155   146   149    1
   156   146   145    1
   157   144   142   am
   158    70    68   ar
   159   153   152    1
   160   143   142    2
   161    86    84   ar
   162   142   141    1
   163    82    84   ar
   164    82    81    1
   165    69    68   ar
   166    68    67    1
   167    81    78    1
   168    67    64    1
   169   141   138    1
   170    78    79    1
   171    78    77    1
   172   137   138    1
   173    79    80    2
   174   138   139    1
   175    64    63    1
   176    64    65    1
   177   190   187    1
   178    65    66    2
   179   139   140    2
   180   187   188    1
   181   187   186    1
   182   189   188    2
