@<TRIPOS>MOLECULE
tmp/5fupA01.pdb
 106 102 0 0 0
SMALL
GASTEIGER

@<TRIPOS>ATOM
      1  N         93.9890   55.6910   14.0060 N.3   127  TYR127     -0.1241
      2  CA        93.1190   56.7150   14.5670 C.3   127  TYR127      0.1605
      3  C         91.9750   56.0180   15.2940 C.2   127  TYR127      0.2264
      4  O         91.3270   55.1530   14.7120 O.2   127  TYR127     -0.2867
      5  CB        92.5950   57.6330   13.4270 C.3   127  TYR127      0.0534
      6  CG        92.0420   58.9970   13.8490 C.ar  127  TYR127     -0.0201
      7  CD1       92.1920   59.4710   15.1510 C.ar  127  TYR127     -0.0009
      8  CD2       91.4370   59.8410   12.9220 C.ar  127  TYR127     -0.0009
      9  CE1       91.7090   60.7280   15.5260 C.ar  127  TYR127      0.0417
     10  CE2       90.9650   61.0980   13.2820 C.ar  127  TYR127      0.0417
     11  CZ        91.1070   61.5400   14.5890 C.ar  127  TYR127      0.1957
     12  OH        90.6430   62.7930   14.9770 O.3   127  TYR127     -0.2866
     13  N         87.5920   60.7220   19.9440 N.3   188  TYR188     -0.1241
     14  CA        88.6690   60.5820   18.9520 C.3   188  TYR188      0.1605
     15  C         90.0580   60.5340   19.5890 C.2   188  TYR188      0.2264
     16  O         90.5050   61.5120   20.1890 O.2   188  TYR188     -0.2867
     17  CB        88.6100   61.7300   17.9430 C.3   188  TYR188      0.0534
     18  CG        87.2690   61.8540   17.2300 C.ar  188  TYR188     -0.0201
     19  CD1       87.0090   61.1420   16.0600 C.ar  188  TYR188     -0.0009
     20  CD2       86.2730   62.6810   17.7280 C.ar  188  TYR188     -0.0009
     21  CE1       85.7860   61.2520   15.4060 C.ar  188  TYR188      0.0417
     22  CE2       85.0500   62.8080   17.0800 C.ar  188  TYR188      0.0417
     23  CZ        84.8110   62.0880   15.9250 C.ar  188  TYR188      0.1957
     24  OH        83.5910   62.2190   15.3090 O.3   188  TYR188     -0.2866
     25  N         90.9890   63.7700    9.4320 N.3   196  PHE196     -0.1241
     26  CA        89.5890   63.6190    9.0780 C.3   196  PHE196      0.1605
     27  C         89.3540   64.2790    7.7330 C.2   196  PHE196      0.2264
     28  O         89.7900   65.4130    7.5040 O.2   196  PHE196     -0.2867
     29  CB        88.6500   64.1690   10.1840 C.3   196  PHE196      0.0534
     30  CG        89.0340   65.5180   10.7500 C.ar  196  PHE196     -0.0203
     31  CD1       90.0900   65.6460   11.6470 C.ar  196  PHE196     -0.0042
     32  CD2       88.2700   66.6420   10.4590 C.ar  196  PHE196     -0.0042
     33  CE1       90.4110   66.8870   12.2020 C.ar  196  PHE196     -0.0003
     34  CE2       88.5830   67.8720   11.0070 C.ar  196  PHE196     -0.0003
     35  CZ        89.6710   67.9930   11.8820 C.ar  196  PHE196     -0.0000
     36  N         84.2110   67.0570    5.0050 N.3   199  HIS199     -0.1241
     37  CA        82.8110   66.6350    5.1270 C.3   199  HIS199      0.1621
     38  C         81.9940   67.7320    5.7520 C.2   199  HIS199      0.2264
     39  O         82.5360   68.7180    6.2700 O.2   199  HIS199     -0.2867
     40  CB        82.6840   65.3700    5.9720 C.3   199  HIS199      0.0745
     41  CG        82.9960   65.5990    7.4170 C.ar  199  HIS199      0.0817
     42  ND1       84.2870   65.7080    7.8890 N.ar  199  HIS199     -0.2268
     43  CD2       82.1850   65.8010    8.4880 C.ar  199  HIS199      0.1154
     44  CE1       84.2620   65.9380    9.1900 C.ar  199  HIS199      0.1986
     45  NE2       82.9960   65.9990    9.5770 N.ar  199  HIS199     -0.2212
     46  N         78.2200   67.9020    8.2870 N.3   201  GLU201     -0.1245
     47  CA        77.5400   67.0250    9.2370 C.3   201  GLU201      0.1567
     48  C         76.2100   66.5310    8.6670 C.2   201  GLU201      0.2260
     49  O         75.6240   67.1590    7.7820 O.2   201  GLU201     -0.2867
     50  CB        77.2870   67.7350   10.5720 C.3   201  GLU201      0.0388
     51  CG        78.5240   68.2960   11.2670 C.3   201  GLU201      0.1160
     52  CD        79.6360   67.2850   11.4240 C.2   201  GLU201      0.3649
     53  OE1       79.3740   66.1490   11.8550 O.co2 201  GLU201     -0.2457
     54  OE2       80.7820   67.6370   11.1030 O.co2 201  GLU201     -0.2457
     55  N         78.4380   71.0460   14.6020 N.3   207  SER207     -0.1217
     56  CA        79.1600   70.1820   15.5220 C.3   207  SER207      0.1889
     57  C         79.9810   71.0500   16.4860 C.2   207  SER207      0.2288
     58  O         80.2500   72.2150   16.2190 O.2   207  SER207     -0.2866
     59  CB        80.0600   69.1880   14.7810 C.3   207  SER207      0.2089
     60  OG        81.0600   69.8670   14.0400 O.3   207  SER207     -0.2183
     61  N         83.4410   70.4460   19.1790 N.3   209  ASN209     -0.1240
     62  CA        84.5260   69.5110   19.4070 C.3   209  ASN209      0.1653
     63  C         85.4260   70.0670   20.5220 C.2   209  ASN209      0.2266
     64  O         85.8590   71.2230   20.4730 O.2   209  ASN209     -0.2867
     65  CB        85.3070   69.3070   18.0840 C.3   209  ASN209      0.1155
     66  CG        86.4370   68.3020   18.2050 C.2   209  ASN209      0.2627
     67  OD1       87.3220   68.4300   19.0650 O.2   209  ASN209     -0.2716
     68  ND2       86.4180   67.2910   17.3390 N.am  209  ASN209     -0.0877
     69  N         94.9950   69.7800   17.4340 N.3   217  LYS217     -0.1245
     70  CA        94.2630   69.3070   16.2710 C.3   217  LYS217      0.1561
     71  C         94.2290   70.4560   15.2790 C.2   217  LYS217      0.2260
     72  O         93.7590   71.5310   15.6140 O.2   217  LYS217     -0.2867
     73  CB        92.8290   68.8660   16.6580 C.3   217  LYS217      0.0271
     74  CG        92.0440   68.2280   15.4940 C.3   217  LYS217      0.0035
     75  CD        90.5710   67.8770   15.8430 C.3   217  LYS217      0.0206
     76  CE        90.4360   66.9550   17.0520 C.3   217  LYS217      0.1093
     77  NZ        90.9410   65.5770   16.7800 N.3   217  LYS217     -0.1314
     78  N         92.7480   72.2860   11.9540 N.3   219  TRP219     -0.1241
     79  CA        91.4770   72.3340   11.2180 C.3   219  TRP219      0.1605
     80  C         91.5690   73.2080    9.9890 C.2   219  TRP219      0.2264
     81  O         92.2790   74.2190   10.0050 O.2   219  TRP219     -0.2867
     82  CB        90.3390   72.9070   12.0860 C.3   219  TRP219      0.0550
     83  CG        89.9340   72.0880   13.2700 C.ar  219  TRP219      0.0003
     84  CD1       90.6490   71.8850   14.4240 C.ar  219  TRP219      0.0946
     85  CD2       88.6760   71.4170   13.4500 C.ar  219  TRP219      0.0152
     86  NE1       89.9300   71.0880   15.2930 N.ar  219  TRP219     -0.2442
     87  CE2       88.7060   70.7990   14.7190 C.ar  219  TRP219      0.0810
     88  CE3       87.5290   71.2660   12.6450 C.ar  219  TRP219      0.0012
     89  CZ2       87.6300   70.0460   15.2180 C.ar  219  TRP219      0.0191
     90  CZ3       86.4580   70.5060   13.1330 C.ar  219  TRP219      0.0001
     91  CH2       86.5200   69.9050   14.4100 C.ar  219  TRP219      0.0015
     92  N         84.6840   70.8620    6.5240 N.3   287  HIS287     -0.1241
     93  CA        85.8840   70.9460    7.3300 C.3   287  HIS287      0.1621
     94  C         86.6530   69.6590    7.2260 C.2   287  HIS287      0.2264
     95  O         86.0900   68.6000    6.9440 O.2   287  HIS287     -0.2867
     96  CB        85.5640   71.2740    8.8190 C.3   287  HIS287      0.0745
     97  CG        84.5560   70.3520    9.4490 C.ar  287  HIS287      0.0817
     98  ND1       83.1950   70.5170    9.2710 N.ar  287  HIS287     -0.2268
     99  CD2       84.7060   69.2650   10.2410 C.ar  287  HIS287      0.1154
    100  CE1       82.5520   69.5710    9.9380 C.ar  287  HIS287      0.1986
    101  NE2       83.4390   68.7930   10.5290 N.ar  287  HIS287     -0.2212
    102  N         83.4070   65.0820   20.5500 N.3   299  ALA299     -0.1245
    103  CA        82.5950   65.9340   19.6990 C.3   299  ALA299      0.1562
    104  C         81.1290   65.4730   19.6560 C.2   299  ALA299      0.2260
    105  O         80.8420   64.2990   19.8140 O.2   299  ALA299     -0.2867
    106  CB        83.1850   65.9560   18.2660 C.3   299  ALA299      0.0290
@<TRIPOS>BOND
     1    36    37    1
     2    37    38    1
     3    37    40    1
     4    38    39    2
     5    40    41    1
     6    92    93    1
     7    95    94    2
     8    94    93    1
     9    93    96    1
    10    41    42   ar
    11    41    43   ar
    12    28    27    2
    13    27    26    1
    14    49    48    2
    15    42    44   ar
    16    46    47    1
    17    43    45   ar
    18    48    47    1
    19    96    97    1
    20    26    25    1
    21    26    29    1
    22    44    45   ar
    23    47    50    1
    24    98    97   ar
    25    98   100   ar
    26    97    99   ar
    27   100   101   ar
    28    80    81    2
    29    80    79    1
    30    29    30    1
    31    99   101   ar
    32    32    30   ar
    33    32    34   ar
    34    50    51    1
    35    30    31   ar
    36    34    35   ar
    37    54    52   ar
    38    79    78    1
    39    79    82    1
    40    51    52    1
    41    52    53   ar
    42    31    33   ar
    43    35    33   ar
    44    82    83    1
    45    88    90   ar
    46    88    85   ar
    47     8    10   ar
    48     8     6   ar
    49    90    91   ar
    50    83    85   ar
    51    83    84   ar
    52    10    11   ar
    53     5     6    1
    54     5     2    1
    55    85    87   ar
    56     6     7   ar
    57     1     2    1
    58    60    59    1
    59    91    89   ar
    60    84    86   ar
    61     2     3    1
    62    11    12    1
    63    11     9   ar
    64    55    56    1
    65     4     3    2
    66    87    89   ar
    67    87    86   ar
    68    59    56    1
    69     7     9   ar
    70    71    72    2
    71    71    70    1
    72    24    23    1
    73    21    23   ar
    74    21    19   ar
    75    74    75    1
    76    74    73    1
    77    56    57    1
    78    75    76    1
    79    23    22   ar
    80    19    18   ar
    81    58    57    2
    82    70    73    1
    83    70    69    1
    84    77    76    1
    85    22    20   ar
    86    18    20   ar
    87    18    17    1
    88    68    66   am
    89    17    14    1
    90    65    66    1
    91    65    62    1
    92    66    67    2
    93   106   103    1
    94    14    15    1
    95    14    13    1
    96    61    62    1
    97    62    63    1
    98    15    16    2
    99   104   103    1
   100   104   105    2
   101   103   102    1
   102    64    63    2
