@<TRIPOS>MOLECULE
tmp/5futA00.pdb
 210 208 0 0 0
SMALL
GASTEIGER

@<TRIPOS>ATOM
      1  N          2.9140  -10.1750   18.3930 N.3   146  TRP146     -0.1241
      2  CA         3.2670  -11.0940   17.3160 C.3   146  TRP146      0.1605
      3  C          4.0220  -12.3140   17.8230 C.2   146  TRP146      0.2264
      4  O          3.7080  -13.4510   17.4480 O.2   146  TRP146     -0.2867
      5  CB         4.1100  -10.3620   16.2740 C.3   146  TRP146      0.0550
      6  CG         4.5340  -11.2280   15.1250 C.ar  146  TRP146      0.0003
      7  CD1        3.8190  -11.4830   13.9830 C.ar  146  TRP146      0.0946
      8  CD2        5.7690  -11.9500   14.9880 C.ar  146  TRP146      0.0152
      9  NE1        4.5310  -12.3130   13.1540 N.ar  146  TRP146     -0.2442
     10  CE2        5.7290  -12.6160   13.7470 C.ar  146  TRP146      0.0810
     11  CE3        6.9070  -12.0850   15.7850 C.ar  146  TRP146      0.0012
     12  CZ2        6.7760  -13.4160   13.2980 C.ar  146  TRP146      0.0191
     13  CZ3        7.9410  -12.8890   15.3370 C.ar  146  TRP146      0.0001
     14  CH2        7.8700  -13.5370   14.1070 C.ar  146  TRP146      0.0015
     15  N          2.1340  -15.7640   17.9150 N.3   150  THR150     -0.1218
     16  CA         2.4670  -16.7620   16.9090 C.3   150  THR150      0.1862
     17  C          2.9180  -18.0660   17.5660 C.2   150  THR150      0.2287
     18  O          2.5170  -19.1510   17.1320 O.2   150  THR150     -0.2866
     19  CB         3.5320  -16.2160   15.9580 C.3   150  THR150      0.1770
     20  OG1        3.0570  -15.0080   15.3230 O.3   150  THR150     -0.2211
     21  CG2        3.8520  -17.2420   14.9010 C.3   150  THR150      0.0375
     22  N          1.1030  -21.6550   16.9800 N.3   154  TYR154     -0.1241
     23  CA         1.8040  -22.8380   16.4990 C.3   154  TYR154      0.1605
     24  C          1.7500  -23.9620   17.5220 C.2   154  TYR154      0.2264
     25  O          1.6330  -25.1400   17.1540 O.2   154  TYR154     -0.2867
     26  CB         3.2620  -22.5100   16.1780 C.3   154  TYR154      0.0534
     27  CG         3.5280  -21.6600   14.9500 C.ar  154  TYR154     -0.0201
     28  CD1        2.5870  -21.5100   13.9440 C.ar  154  TYR154     -0.0009
     29  CD2        4.7510  -21.0290   14.8040 C.ar  154  TYR154     -0.0009
     30  CE1        2.8670  -20.7290   12.8160 C.ar  154  TYR154      0.0417
     31  CE2        5.0400  -20.2530   13.6940 C.ar  154  TYR154      0.0417
     32  CZ         4.0960  -20.1030   12.7080 C.ar  154  TYR154      0.1957
     33  OH         4.4050  -19.3230   11.6100 O.3   154  TYR154     -0.2866
     34  N         12.0840   -9.9550   11.0990 N.3   203  ASN203     -0.1225
     35  CA        11.7160  -11.2520   11.6730 C.3   203  ASN203      0.1785
     36  C         12.2720  -12.4380   10.9080 C.2   203  ASN203      0.2597
     37  O         11.9840  -13.5770   11.2780 O.2   203  ASN203     -0.2718
     38  CB        10.2010  -11.4210   11.8350 C.3   203  ASN203      0.1169
     39  CG         9.6150  -10.4690   12.8770 C.2   203  ASN203      0.2627
     40  OD1       10.2430  -10.1910   13.9050 O.2   203  ASN203     -0.2716
     41  ND2        8.4300   -9.9460   12.5950 N.am  203  ASN203     -0.0877
     42  N         13.1130  -12.2140    9.9000 N.am  204  ASP204     -0.1974
     43  CA        13.6290  -13.3210    9.1080 C.3   204  ASP204      0.1709
     44  C         14.9590  -12.9390    8.4620 C.2   204  ASP204      0.2293
     45  O         15.1710  -13.1840    7.2700 O.2   204  ASP204     -0.2864
     46  CB        12.5900  -13.7280    8.0600 C.3   204  ASP204      0.1436
     47  CG        12.9270  -15.0350    7.3700 C.2   204  ASP204      0.3671
     48  OD1       13.6870  -15.8480    7.9380 O.co2 204  ASP204     -0.2456
     49  OD2       12.4210  -15.2430    6.2480 O.co2 204  ASP204     -0.2456
     50  N         17.8440  -13.9150    7.6320 N.3   206  GLN206     -0.1245
     51  CA        18.7210  -15.0060    7.2220 C.3   206  GLN206      0.1566
     52  C         19.4460  -14.6330    5.9320 C.2   206  GLN206      0.2260
     53  O         19.0190  -13.7440    5.1890 O.2   206  GLN206     -0.2867
     54  CB        17.9380  -16.3060    6.9990 C.3   206  GLN206      0.0367
     55  CG        17.3110  -16.4170    5.5950 C.3   206  GLN206      0.0905
     56  CD        17.5230  -17.7760    4.9150 C.2   206  GLN206      0.2608
     57  OE1       18.6380  -18.1360    4.5030 O.2   206  GLN206     -0.2717
     58  NE2       16.4390  -18.5400    4.7960 N.am  206  GLN206     -0.0878
     59  N          7.2630  -11.3800    6.5370 N.3   231  TYR231     -0.1241
     60  CA         6.9880  -11.7410    7.9230 C.3   231  TYR231      0.1605
     61  C          7.2220  -10.5860    8.8810 C.2   231  TYR231      0.2264
     62  O          7.1480  -10.7760   10.0970 O.2   231  TYR231     -0.2867
     63  CB         7.8370  -12.9500    8.3220 C.3   231  TYR231      0.0534
     64  CG         7.3420  -14.2150    7.6720 C.ar  231  TYR231     -0.0201
     65  CD1        7.5990  -14.4770    6.3410 C.ar  231  TYR231     -0.0009
     66  CD2        6.5910  -15.1290    8.3930 C.ar  231  TYR231     -0.0009
     67  CE1        7.1220  -15.6250    5.7350 C.ar  231  TYR231      0.0417
     68  CE2        6.1180  -16.2810    7.8060 C.ar  231  TYR231      0.0417
     69  CZ         6.3880  -16.5260    6.4780 C.ar  231  TYR231      0.1957
     70  OH         5.9180  -17.6790    5.8900 O.3   231  TYR231     -0.2866
     71  N         14.3530   -9.8350   19.4680 N.3   239  PHE239     -0.1241
     72  CA        14.0620  -10.9780   18.6120 C.3   239  PHE239      0.1605
     73  C         14.7350  -10.8520   17.2550 C.2   239  PHE239      0.2264
     74  O         15.3010  -11.8290   16.7470 O.2   239  PHE239     -0.2867
     75  CB        12.5580  -11.1760   18.4230 C.3   239  PHE239      0.0534
     76  CG        12.2370  -12.3550   17.5370 C.ar  239  PHE239     -0.0203
     77  CD1       12.1230  -13.6330   18.0770 C.ar  239  PHE239     -0.0042
     78  CD2       12.1060  -12.2050   16.1620 C.ar  239  PHE239     -0.0042
     79  CE1       11.8550  -14.7380   17.2500 C.ar  239  PHE239     -0.0003
     80  CE2       11.8550  -13.2960   15.3380 C.ar  239  PHE239     -0.0003
     81  CZ        11.7300  -14.5630   15.8730 C.ar  239  PHE239     -0.0000
     82  N         20.7520  -17.5640   13.0140 N.3   247  GLU247     -0.1245
     83  CA        20.8990  -18.0110   11.6390 C.3   247  GLU247      0.1567
     84  C         22.3530  -18.2540   11.2360 C.2   247  GLU247      0.2260
     85  O         22.5800  -18.9350   10.2200 O.2   247  GLU247     -0.2867
     86  CB        20.2280  -17.0030   10.7050 C.3   247  GLU247      0.0388
     87  CG        18.7010  -17.0820   10.7520 C.3   247  GLU247      0.1160
     88  CD        18.1270  -18.3660   10.1770 C.2   247  GLU247      0.3649
     89  OE1       18.8910  -19.1670    9.5780 O.co2 247  GLU247     -0.2457
     90  OE2       16.9080  -18.5670   10.3270 O.co2 247  GLU247     -0.2457
     91  N         21.3930  -23.9290    4.8720 N.3   252  TYR252     -0.1241
     92  CA        20.2790  -24.5650    4.1890 C.3   252  TYR252      0.1605
     93  C         20.6290  -24.9950    2.7740 C.2   252  TYR252      0.2264
     94  O         19.7280  -25.3590    2.0100 O.2   252  TYR252     -0.2867
     95  CB        19.0750  -23.6250    4.1720 C.3   252  TYR252      0.0534
     96  CG        18.6950  -23.1130    5.5340 C.ar  252  TYR252     -0.0201
     97  CD1       18.2780  -23.9860    6.5390 C.ar  252  TYR252     -0.0009
     98  CD2       18.7640  -21.7580    5.8300 C.ar  252  TYR252     -0.0009
     99  CE1       17.9440  -23.5170    7.7980 C.ar  252  TYR252      0.0417
    100  CE2       18.4330  -21.2840    7.0970 C.ar  252  TYR252      0.0417
    101  CZ        18.0130  -22.1750    8.0690 C.ar  252  TYR252      0.1957
    102  OH        17.6880  -21.7340    9.3390 O.3   252  TYR252     -0.2866
    103  N         18.7320  -31.7410    4.3750 N.3   259  PHE259     -0.1241
    104  CA        18.8320  -30.5410    3.5440 C.3   259  PHE259      0.1605
    105  C         19.1720  -29.2940    4.3460 C.2   259  PHE259      0.2264
    106  O         18.9350  -28.1660    3.8950 O.2   259  PHE259     -0.2867
    107  CB        17.5650  -30.3330    2.7080 C.3   259  PHE259      0.0534
    108  CG        17.2730  -31.4810    1.7840 C.ar  259  PHE259     -0.0203
    109  CD1       17.9900  -31.6410    0.6110 C.ar  259  PHE259     -0.0042
    110  CD2       16.3030  -32.4140    2.1070 C.ar  259  PHE259     -0.0042
    111  CE1       17.7300  -32.7050   -0.2320 C.ar  259  PHE259     -0.0003
    112  CE2       16.0400  -33.4830    1.2620 C.ar  259  PHE259     -0.0003
    113  CZ        16.7540  -33.6240    0.0990 C.ar  259  PHE259     -0.0000
    114  N         10.2230  -20.5380   18.4600 N.3   317  LEU317     -0.1231
    115  CA         9.2790  -20.2270   17.3920 C.3   317  LEU317      0.1693
    116  C          9.5620  -21.0450   16.1420 C.2   317  LEU317      0.2592
    117  O          8.6480  -21.6520   15.5680 O.2   317  LEU317     -0.2718
    118  CB         9.3290  -18.7330   17.0750 C.3   317  LEU317      0.0284
    119  CG         8.3940  -18.2720   15.9570 C.3   317  LEU317      0.0019
    120  CD1        6.9720  -18.7130   16.2010 C.3   317  LEU317      0.0001
    121  CD2        8.4560  -16.7540   15.8730 C.3   317  LEU317      0.0001
    122  N         10.8160  -21.0480   15.6850 N.am  318  TRP318     -0.1976
    123  CA        11.1400  -21.7770   14.4610 C.3   318  TRP318      0.1640
    124  C         11.0160  -23.2850   14.6520 C.2   318  TRP318      0.2290
    125  O         10.6580  -24.0020   13.7050 O.2   318  TRP318     -0.2864
    126  CB        12.5510  -21.4360   13.9990 C.3   318  TRP318      0.0576
    127  CG        12.6910  -20.1780   13.2390 C.ar  318  TRP318      0.0006
    128  CD1       13.1910  -18.9890   13.6920 C.ar  318  TRP318      0.0946
    129  CD2       12.3800  -19.9900   11.8620 C.ar  318  TRP318      0.0152
    130  NE1       13.2020  -18.0660   12.6690 N.ar  318  TRP318     -0.2442
    131  CE2       12.6990  -18.6560   11.5380 C.ar  318  TRP318      0.0810
    132  CE3       11.8430  -20.8180   10.8720 C.ar  318  TRP318      0.0012
    133  CZ2       12.5100  -18.1320   10.2520 C.ar  318  TRP318      0.0191
    134  CZ3       11.6400  -20.2920    9.6080 C.ar  318  TRP318      0.0001
    135  CH2       11.9830  -18.9630    9.3120 C.ar  318  TRP318      0.0015
    136  N          7.2620  -23.8150   14.3360 N.3   321  TRP321     -0.1241
    137  CA         6.9580  -23.6220   12.9210 C.3   321  TRP321      0.1605
    138  C          7.3390  -24.8420   12.0950 C.2   321  TRP321      0.2264
    139  O          6.5940  -25.2600   11.2060 O.2   321  TRP321     -0.2867
    140  CB         7.6970  -22.3870   12.4010 C.3   321  TRP321      0.0550
    141  CG         7.6060  -22.1830   10.9070 C.ar  321  TRP321      0.0003
    142  CD1        6.6650  -21.4530   10.2350 C.ar  321  TRP321      0.0946
    143  CD2        8.5040  -22.6930    9.9180 C.ar  321  TRP321      0.0152
    144  NE1        6.9170  -21.4920    8.8770 N.ar  321  TRP321     -0.2442
    145  CE2        8.0430  -22.2450    8.6610 C.ar  321  TRP321      0.0810
    146  CE3        9.6520  -23.4910    9.9720 C.ar  321  TRP321      0.0012
    147  CZ2        8.6970  -22.5650    7.4640 C.ar  321  TRP321      0.0191
    148  CZ3       10.2980  -23.8110    8.7800 C.ar  321  TRP321      0.0001
    149  CH2        9.8150  -23.3480    7.5450 C.ar  321  TRP321      0.0015
    150  N          5.1690  -27.3110    9.6910 N.3   325  GLN325     -0.1245
    151  CA         5.4840  -27.5600    8.2840 C.3   325  GLN325      0.1566
    152  C          5.6020  -29.0480    7.9910 C.2   325  GLN325      0.2260
    153  O          5.2140  -29.5070    6.9110 O.2   325  GLN325     -0.2867
    154  CB         6.7770  -26.8510    7.8710 C.3   325  GLN325      0.0367
    155  CG         6.7420  -25.3540    7.9720 C.3   325  GLN325      0.0905
    156  CD         5.5000  -24.7640    7.3670 C.2   325  GLN325      0.2608
    157  OE1        5.2450  -24.9260    6.1850 O.2   325  GLN325     -0.2717
    158  NE2        4.7050  -24.0880    8.1910 N.am  325  GLN325     -0.0878
    159  N          6.7620  -29.5840    0.6040 N.3   331  ILE331     -0.1231
    160  CA         8.1330  -29.3800    0.1520 C.3   331  ILE331      0.1692
    161  C          9.0740  -30.3530    0.8510 C.2   331  ILE331      0.2592
    162  O          8.9130  -30.6440    2.0420 O.2   331  ILE331     -0.2718
    163  CB         8.6010  -27.9370    0.3990 C.3   331  ILE331      0.0266
    164  CG1        7.6800  -26.9420   -0.3080 C.3   331  ILE331      0.0019
    165  CG2        9.9830  -27.8090   -0.1270 C.3   331  ILE331      0.0020
    166  CD1        7.7640  -25.5380    0.2460 C.3   331  ILE331      0.0001
    167  N         10.0850  -30.8140    0.1160 N.am  332  GLU332     -0.1966
    168  CA        11.0590  -31.7840    0.6110 C.3   332  GLU332      0.1733
    169  C         12.1220  -31.0610    1.4330 C.2   332  GLU332      0.2616
    170  O         13.0920  -30.5210    0.8960 O.2   332  GLU332     -0.2715
    171  CB        11.6780  -32.5460   -0.5540 C.3   332  GLU332      0.0429
    172  CG        12.4220  -33.8040   -0.1480 C.3   332  GLU332      0.1163
    173  CD        13.1030  -34.4810   -1.3210 C.2   332  GLU332      0.3649
    174  OE1       13.0840  -33.9110   -2.4340 O.co2 332  GLU332     -0.2457
    175  OE2       13.6560  -35.5860   -1.1320 O.co2 332  GLU332     -0.2457
    176  N         11.9380  -31.0580    2.7490 N.am  333  PHE333     -0.1974
    177  CA        12.9150  -30.5380    3.6920 C.3   333  PHE333      0.1639
    178  C         12.7750  -31.3670    4.9570 C.2   333  PHE333      0.2290
    179  O         11.6920  -31.8850    5.2390 O.2   333  PHE333     -0.2864
    180  CB        12.6910  -29.0500    3.9760 C.3   333  PHE333      0.0560
    181  CG        13.6980  -28.4470    4.9170 C.ar  333  PHE333     -0.0200
    182  CD1       14.9630  -28.1120    4.4720 C.ar  333  PHE333     -0.0042
    183  CD2       13.3740  -28.1830    6.2390 C.ar  333  PHE333     -0.0042
    184  CE1       15.8970  -27.5490    5.3310 C.ar  333  PHE333     -0.0003
    185  CE2       14.3090  -27.6040    7.1100 C.ar  333  PHE333     -0.0003
    186  CZ        15.5690  -27.2900    6.6570 C.ar  333  PHE333     -0.0000
    187  N         11.9650  -31.3150    8.0830 N.3   335  TYR335     -0.1241
    188  CA        11.3540  -30.4030    9.0460 C.3   335  TYR335      0.1605
    189  C         11.4420  -30.9290   10.4740 C.2   335  TYR335      0.2264
    190  O         11.6930  -30.1540   11.4110 O.2   335  TYR335     -0.2867
    191  CB         9.8920  -30.1450    8.6730 C.3   335  TYR335      0.0534
    192  CG         9.7030  -29.2840    7.4450 C.ar  335  TYR335     -0.0201
    193  CD1       10.0040  -27.9340    7.4640 C.ar  335  TYR335     -0.0009
    194  CD2        9.2050  -29.8340    6.2690 C.ar  335  TYR335     -0.0009
    195  CE1        9.8250  -27.1450    6.3320 C.ar  335  TYR335      0.0417
    196  CE2        9.0170  -29.0620    5.1480 C.ar  335  TYR335      0.0417
    197  CZ         9.3230  -27.7280    5.1840 C.ar  335  TYR335      0.1957
    198  OH         9.1290  -26.9830    4.0410 O.3   335  TYR335     -0.2866
    199  N         14.9520  -30.5430   11.6570 N.3   338  TYR338     -0.1241
    200  CA        15.2380  -29.1380   11.9160 C.3   338  TYR338      0.1605
    201  C         14.5960  -28.6770   13.2230 C.2   338  TYR338      0.2264
    202  O         15.2260  -27.9590   14.0080 O.2   338  TYR338     -0.2867
    203  CB        14.7710  -28.2890   10.7350 C.3   338  TYR338      0.0534
    204  CG        15.1380  -26.8410   10.8860 C.ar  338  TYR338     -0.0201
    205  CD1       16.4690  -26.4280   10.8400 C.ar  338  TYR338     -0.0009
    206  CD2       14.1570  -25.8830   11.0910 C.ar  338  TYR338     -0.0009
    207  CE1       16.8030  -25.0880   10.9870 C.ar  338  TYR338      0.0417
    208  CE2       14.4810  -24.5600   11.2350 C.ar  338  TYR338      0.0417
    209  CZ        15.8030  -24.1660   11.1750 C.ar  338  TYR338      0.1957
    210  OH        16.1020  -22.8390   11.3240 O.3   338  TYR338     -0.2866
@<TRIPOS>BOND
     1   174   173   ar
     2   173   175   ar
     3   173   172    1
     4   171   172    1
     5   171   168    1
     6   164   166    1
     7   164   163    1
     8   111   113   ar
     9   111   109   ar
    10   165   163    1
    11   113   112   ar
    12   167   168    1
    13   167   161   am
    14   160   163    1
    15   160   159    1
    16   160   161    1
    17   109   108   ar
    18   168   169    1
    19   161   162    2
    20   170   169    2
    21   112   110   ar
    22   169   176   am
    23   108   110   ar
    24   108   107    1
    25    94    93    2
    26   107   104    1
    27   176   177    1
    28    93    92    1
    29   104   105    1
    30   104   103    1
    31   177   180    1
    32   177   178    1
    33   106   105    2
    34   180   181    1
    35   198   197    1
    36    95    92    1
    37    95    96    1
    38    92    91    1
    39   182   181   ar
    40   182   184   ar
    41    57    56    2
    42    58    56   am
    43    56    55    1
    44   181   183   ar
    45   178   179    2
    46   196   197   ar
    47   196   194   ar
    48   197   195   ar
    49    53    52    2
    50   184   186   ar
    51    96    98   ar
    52    96    97   ar
    53    55    54    1
    54    67    65   ar
    55    67    69   ar
    56    98   100   ar
    57    70    69    1
    58    52    51    1
    59   157   156    2
    60   183   185   ar
    61    49    47   ar
    62   194   192   ar
    63   195   193   ar
    64    65    64   ar
    65    69    68   ar
    66    59    60    1
    67    97    99   ar
    68   186   185   ar
    69   153   152    2
    70    54    51    1
    71   100   101   ar
    72    51    50    1
    73    45    44    2
    74   156   155    1
    75   156   158   am
    76    47    48   ar
    77    47    46    1
    78   192   193   ar
    79   192   191    1
    80   147   149   ar
    81   147   145   ar
    82   149   148   ar
    83    64    63    1
    84    64    66   ar
    85    99   101   ar
    86    68    66   ar
    87   154   155    1
    88   154   151    1
    89    60    63    1
    90    60    61    1
    91   152   151    1
    92    46    43    1
    93   101   102    1
    94   187   188    1
    95   151   150    1
    96    44    43    1
    97   145   144   ar
    98   145   143   ar
    99   191   188    1
   100   148   146   ar
   101   144   142   ar
   102    61    62    2
   103   188   189    1
   104    43    42    1
   105   135   134   ar
   106   135   133   ar
   107    89    88   ar
   108   134   132   ar
   109    42    36   am
   110   143   146   ar
   111   143   141   ar
   112    88    90   ar
   113    88    87    1
   114    85    84    2
   115   142   141   ar
   116   133   131   ar
   117   189   190    2
   118    86    87    1
   119    86    83    1
   120   203   204    1
   121   203   200    1
   122   205   204   ar
   123   205   207   ar
   124   132   129   ar
   125   204   206   ar
   126   141   140    1
   127    36    37    2
   128    36    35    1
   129   207   209   ar
   130   206   208   ar
   131    34    35    1
   132   209   208   ar
   133   209   210    1
   134   139   138    2
   135    84    83    1
   136   131   129   ar
   137   131   130   ar
   138    33    32    1
   139    83    82    1
   140   199   200    1
   141    35    38    1
   142    38    39    1
   143   129   127   ar
   144   200   201    1
   145   138   137    1
   146   140   137    1
   147    41    39   am
   148   130   128   ar
   149    32    30   ar
   150    32    31   ar
   151    30    28   ar
   152    39    40    2
   153   137   136    1
   154     9    10   ar
   155     9     7   ar
   156   201   202    2
   157   127   128   ar
   158   127   126    1
   159    12    10   ar
   160    12    14   ar
   161    31    29   ar
   162   125   124    2
   163    10     8   ar
   164    28    27   ar
   165     7     6   ar
   166   126   123    1
   167    14    13   ar
   168   123   124    1
   169   123   122    1
   170    29    27   ar
   171    21    19    1
   172    27    26    1
   173     8     6   ar
   174     8    11   ar
   175     6     5    1
   176    20    19    1
   177    13    11   ar
   178    80    81   ar
   179    80    78   ar
   180   117   116    2
   181   122   116   am
   182   121   119    1
   183    81    79   ar
   184   119   120    1
   185   119   118    1
   186    19    16    1
   187   116   115    1
   188    78    76   ar
   189    26    23    1
   190     5     2    1
   191    23    22    1
   192    23    24    1
   193    74    73    2
   194    16    17    1
   195    16    15    1
   196   118   115    1
   197    18    17    2
   198    25    24    2
   199    79    77   ar
   200    73    72    1
   201     2     3    1
   202     2     1    1
   203   115   114    1
   204     4     3    2
   205    76    77   ar
   206    76    75    1
   207    75    72    1
   208    72    71    1
