@<TRIPOS>MOLECULE
tmp/5fuuC01.pdb
 90 84 0 0 0
SMALL
GASTEIGER

@<TRIPOS>ATOM
      1  N        115.9980  190.5460  172.1170 N.3    96  ASN96      -0.1240
      2  CA       114.6150  190.6610  172.5830 C.3    96  ASN96       0.1653
      3  C        113.9700  189.2770  172.6820 C.2    96  ASN96       0.2266
      4  O        114.0250  188.4980  171.7320 O.2    96  ASN96      -0.2867
      5  CB       113.7940  191.5660  171.6850 C.3    96  ASN96       0.1155
      6  CG       112.3870  191.7840  172.1680 C.2    96  ASN96       0.2627
      7  OD1      111.5220  190.9090  172.0430 O.2    96  ASN96      -0.2716
      8  ND2      112.1320  192.9770  172.6450 N.am   96  ASN96      -0.0877
      9  N        111.3570  186.0640  174.9550 N.3    98  LYS98      -0.1245
     10  CA       110.0660  185.6420  175.4740 C.3    98  LYS98       0.1561
     11  C        110.2300  184.3240  176.2120 C.2    98  LYS98       0.2260
     12  O        110.9760  183.4600  175.7680 O.2    98  LYS98      -0.2867
     13  CB       109.0400  185.5050  174.3480 C.3    98  LYS98       0.0271
     14  CG       108.6580  186.8210  173.6820 C.3    98  LYS98       0.0035
     15  CD       107.6550  186.6010  172.5600 C.3    98  LYS98       0.0206
     16  CE       107.2540  187.9170  171.9100 C.3    98  LYS98       0.1093
     17  NZ       106.2910  187.7150  170.7930 N.3    98  LYS98      -0.1314
     18  N        113.1750  182.2100  174.4160 N.3   107  ASN107     -0.1240
     19  CA       113.2530  182.0660  172.9710 C.3   107  ASN107      0.1653
     20  C        113.5480  183.4120  172.3670 C.2   107  ASN107      0.2266
     21  O        112.6320  184.2120  172.1890 O.2   107  ASN107     -0.2867
     22  CB       111.9840  181.4810  172.3790 C.3   107  ASN107      0.1155
     23  CG       111.7560  181.8590  170.9420 C.2   107  ASN107      0.2627
     24  OD1      110.6300  182.1620  170.5310 O.2   107  ASN107     -0.2716
     25  ND2      112.8000  181.7630  170.1590 N.am  107  ASN107     -0.0877
     26  N        115.1510  186.5190  169.7820 N.3   109  SER109     -0.1217
     27  CA       115.3590  186.9810  168.4280 C.3   109  SER109      0.1889
     28  C        116.2420  188.2020  168.5010 C.2   109  SER109      0.2288
     29  O        116.3440  188.8450  169.5440 O.2   109  SER109     -0.2866
     30  CB       114.0420  187.2940  167.7450 C.3   109  SER109      0.2089
     31  OG       113.2030  186.1740  167.6800 O.3   109  SER109     -0.2183
     32  N        114.7650  187.8740  162.6810 N.3   122  LYS122     -0.1231
     33  CA       114.0220  186.7980  163.3350 C.3   122  LYS122      0.1693
     34  C        114.9140  185.5890  163.5940 C.2   122  LYS122      0.2592
     35  O        115.2680  184.8560  162.6710 O.2   122  LYS122     -0.2718
     36  CB       112.8160  186.3870  162.4890 C.3   122  LYS122      0.0285
     37  CG       111.9150  185.3460  163.1410 C.3   122  LYS122      0.0035
     38  CD       110.6080  185.1890  162.3780 C.3   122  LYS122      0.0206
     39  CE       109.7240  184.1220  163.0060 C.3   122  LYS122      0.1093
     40  NZ       108.3850  184.0580  162.3610 N.3   122  LYS122     -0.1314
     41  N        115.2710  185.3860  164.8570 N.am  123  GLU123     -0.1966
     42  CA       116.0690  184.2330  165.2450 C.3   123  GLU123      0.1733
     43  C        115.3700  183.3310  166.2550 C.2   123  GLU123      0.2616
     44  O        114.3640  183.7100  166.8560 O.2   123  GLU123     -0.2715
     45  CB       117.4120  184.6980  165.8120 C.3   123  GLU123      0.0429
     46  CG       118.2280  185.5660  164.8660 C.3   123  GLU123      0.1163
     47  CD       118.7400  184.7690  163.6980 C.2   123  GLU123      0.3649
     48  OE1      118.7150  183.5640  163.7690 O.co2 123  GLU123     -0.2457
     49  OE2      119.0510  185.3610  162.6910 O.co2 123  GLU123     -0.2457
     50  N        115.9200  182.1340  166.4350 N.am  124  TYR124     -0.1974
     51  CA       115.4560  181.1920  167.4460 C.3   124  TYR124      0.1639
     52  C        116.6260  180.7810  168.3390 C.2   124  TYR124      0.2290
     53  O        117.1270  179.6610  168.2590 O.2   124  TYR124     -0.2864
     54  CB       114.8210  179.9620  166.7940 C.3   124  TYR124      0.0560
     55  CG       113.7930  180.2910  165.7340 C.ar  124  TYR124     -0.0198
     56  CD1      113.4740  181.6090  165.4390 C.ar  124  TYR124     -0.0009
     57  CD2      113.1450  179.2850  165.0340 C.ar  124  TYR124     -0.0009
     58  CE1      112.5360  181.9150  164.4730 C.ar  124  TYR124      0.0417
     59  CE2      112.2060  179.5810  164.0640 C.ar  124  TYR124      0.0417
     60  CZ       111.9040  180.8990  163.7870 C.ar  124  TYR124      0.1957
     61  OH       110.9680  181.2000  162.8230 O.3   124  TYR124     -0.2866
     62  N        117.6460  179.8200  171.9760 N.3   126  LEU126     -0.1245
     63  CA       117.1580  179.4020  173.2600 C.3   126  LEU126      0.1561
     64  C        118.2020  179.6240  174.3270 C.2   126  LEU126      0.2260
     65  O        119.1440  178.8450  174.4560 O.2   126  LEU126     -0.2867
     66  CB       116.7400  177.9270  173.2120 C.3   126  LEU126      0.0270
     67  CG       115.6070  177.6010  172.2310 C.3   126  LEU126      0.0019
     68  CD1      115.2880  176.1130  172.2770 C.3   126  LEU126      0.0001
     69  CD2      114.3780  178.4270  172.5810 C.3   126  LEU126      0.0001
     70  N        118.0870  175.8860  168.9040 N.3   270  GLY270     -0.1210
     71  CA       116.8670  176.4530  168.3590 C.3   270  GLY270      0.1956
     72  C        115.6640  175.5340  168.4670 C.2   270  GLY270      0.2612
     73  O        114.5280  176.0050  168.4480 O.2   270  GLY270     -0.2717
     74  N        115.8920  174.2330  168.6080 N.am  271  GLU271     -0.1965
     75  CA       114.7540  173.3220  168.5500 C.3   271  GLU271      0.1733
     76  C        114.6550  172.3740  169.7010 C.2   271  GLU271      0.2616
     77  O        115.6100  171.6830  170.0230 O.2   271  GLU271     -0.2715
     78  CB       114.7980  172.5150  167.2500 C.3   271  GLU271      0.0429
     79  CG       113.6340  171.5510  167.0700 C.3   271  GLU271      0.1163
     80  CD       113.6710  170.8960  165.7170 C.2   271  GLU271      0.3649
     81  OE1      114.6290  171.0940  165.0090 O.co2 271  GLU271     -0.2457
     82  OE2      112.7980  170.1090  165.4360 O.co2 271  GLU271     -0.2457
     83  N        113.4790  172.3040  170.3030 N.am  272  ILE272     -0.1977
     84  CA       113.2540  171.3820  171.3990 C.3   272  ILE272      0.1596
     85  C        112.4340  170.2200  170.9200 C.2   272  ILE272      0.2287
     86  O        111.3740  170.3940  170.3190 O.2   272  ILE272     -0.2864
     87  CB       112.5400  172.0540  172.5860 C.3   272  ILE272      0.0276
     88  CG1      113.4160  173.1600  173.1800 C.3   272  ILE272      0.0022
     89  CG2      112.1870  171.0230  173.6470 C.3   272  ILE272      0.0022
     90  CD1      112.7130  174.0060  174.2170 C.3   272  ILE272      0.0001
@<TRIPOS>BOND
     1    40    39    1
     2    38    39    1
     3    38    37    1
     4    36    37    1
     5    36    33    1
     6    35    34    2
     7    32    33    1
     8    49    47   ar
     9    61    60    1
    10    33    34    1
    11    34    41   am
    12    47    48   ar
    13    47    46    1
    14    60    59   ar
    15    60    58   ar
    16    59    57   ar
    17    58    56   ar
    18    41    42    1
    19    46    45    1
    20    81    80   ar
    21    57    55   ar
    22    42    45    1
    23    42    43    1
    24    82    80   ar
    25    56    55   ar
    26    80    79    1
    27    55    54    1
    28    43    50   am
    29    43    44    2
    30    50    51    1
    31    54    51    1
    32    79    78    1
    33    78    75    1
    34    51    52    1
    35    31    30    1
    36    30    27    1
    37    53    52    2
    38    71    72    1
    39    71    70    1
    40    27    28    1
    41    27    26    1
    42    73    72    2
    43    72    74   am
    44    28    29    2
    45    75    74    1
    46    75    76    1
    47    76    77    2
    48    76    83   am
    49    25    23   am
    50    83    84    1
    51    86    85    2
    52    24    23    2
    53    17    16    1
    54    85    84    1
    55    23    22    1
    56    84    87    1
    57     5     6    1
    58     5     2    1
    59     4     3    2
    60    16    15    1
    61    62    63    1
    62     7     6    2
    63     1     2    1
    64     6     8   am
    65    21    20    2
    66    67    68    1
    67    67    69    1
    68    67    66    1
    69    20    19    1
    70    22    19    1
    71    15    14    1
    72     2     3    1
    73    87    88    1
    74    87    89    1
    75    19    18    1
    76    88    90    1
    77    66    63    1
    78    63    64    1
    79    14    13    1
    80    64    65    2
    81    13    10    1
    82     9    10    1
    83    10    11    1
    84    12    11    2
