@<TRIPOS>MOLECULE
tmp/5fuuA03.pdb
 170 162 0 0 0
SMALL
GASTEIGER

@<TRIPOS>ATOM
      1  N        156.7960  197.9160  187.6550 N.3    29  VAL29      -0.1245
      2  CA       156.2730  197.8310  186.3070 C.3    29  VAL29       0.1561
      3  C        157.2860  197.1740  185.4070 C.2    29  VAL29       0.2260
      4  O        158.3430  196.7560  185.8680 O.2    29  VAL29      -0.2867
      5  CB       155.9100  199.2160  185.7400 C.3    29  VAL29       0.0252
      6  CG1      154.8130  199.8620  186.5730 C.3    29  VAL29       0.0019
      7  CG2      157.1380  200.1120  185.6930 C.3    29  VAL29       0.0019
      8  N        157.9970  198.2200  181.6960 N.3    31  ASN31      -0.1240
      9  CA       158.6010  199.2510  180.8650 C.3    31  ASN31       0.1653
     10  C        158.8060  198.7060  179.4620 C.2    31  ASN31       0.2266
     11  O        158.8620  197.4930  179.2670 O.2    31  ASN31      -0.2867
     12  CB       159.9100  199.7540  181.4440 C.3    31  ASN31       0.1155
     13  CG       159.7500  200.5190  182.7290 C.2    31  ASN31       0.2627
     14  OD1      158.7240  201.1660  182.9660 O.2    31  ASN31      -0.2716
     15  ND2      160.7910  200.5150  183.5220 N.am   31  ASN31      -0.0877
     16  N        149.2520  202.1460  179.0800 N.3   158  PRO158     -0.2116
     17  CA       149.3470  203.1470  180.1370 C.3   158  PRO158      0.1372
     18  C        150.2890  202.7610  181.2670 C.2   158  PRO158      0.2244
     19  O        150.9110  203.6290  181.8760 O.2   158  PRO158     -0.2868
     20  CB       147.9020  203.2830  180.6290 C.3   158  PRO158      0.0268
     21  CG       147.0700  202.9690  179.4330 C.3   158  PRO158      0.0207
     22  CD       147.8260  201.8990  178.6900 C.3   158  PRO158      0.0892
     23  N        156.0100  202.2650  180.6820 N.3   161  SER161     -0.1217
     24  CA       156.6730  203.5690  180.5300 C.3   161  SER161      0.1889
     25  C        157.9240  203.4060  179.6550 C.2   161  SER161      0.2288
     26  O        158.4320  202.2940  179.5200 O.2   161  SER161     -0.2866
     27  CB       157.0340  204.1470  181.8850 C.3   161  SER161      0.2089
     28  OG       155.8980  204.4640  182.6420 O.3   161  SER161     -0.2183
     29  N        161.1240  205.2250  180.1670 N.3   163  GLU163     -0.1231
     30  CA       162.0750  204.7650  181.1830 C.3   163  GLU163      0.1684
     31  C        163.3240  204.1950  180.5240 C.2   163  GLU163      0.2434
     32  O        163.4620  202.9690  180.5360 O.2   163  GLU163     -0.2733
     33  CB       161.4330  203.7160  182.0940 C.3   163  GLU163      0.0402
     34  CG       160.3830  204.2690  183.0470 C.3   163  GLU163      0.1161
     35  CD       161.0190  205.0090  184.1910 C.2   163  GLU163      0.3649
     36  OE1      162.2080  204.8870  184.3650 O.co2 163  GLU163     -0.2457
     37  OE2      160.3400  205.7850  184.8210 O.co2 163  GLU163     -0.2457
     38  N        164.2030  205.0210  179.9770 N.am  164  PRO164     -0.2729
     39  CA       165.4750  204.4770  179.5200 C.3   164  PRO164      0.1401
     40  C        166.2660  203.9670  180.6990 C.2   164  PRO164      0.2269
     41  O        166.3670  204.6140  181.7380 O.2   164  PRO164     -0.2865
     42  CB       166.1700  205.6480  178.8180 C.3   164  PRO164      0.0296
     43  CG       165.6020  206.8620  179.4710 C.3   164  PRO164      0.0237
     44  CD       164.1790  206.5050  179.8080 C.3   164  PRO164      0.0939
     45  N        172.8330  203.6450  177.8020 N.3   204  ARG204     -0.1245
     46  CA       171.4460  203.9480  177.9930 C.3   204  ARG204      0.1563
     47  C        170.8300  204.1270  176.6290 C.2   204  ARG204      0.2260
     48  O        171.3860  204.8400  175.7950 O.2   204  ARG204     -0.2867
     49  CB       171.2160  205.1460  178.9020 C.3   204  ARG204      0.0307
     50  CG       171.7290  204.9790  180.3240 C.3   204  ARG204      0.0489
     51  CD       171.3060  206.0540  181.2580 C.3   204  ARG204      0.2205
     52  NE       169.8940  206.0300  181.6050 N.pl3 204  ARG204     -0.0865
     53  CZ       169.2520  207.0130  182.2670 C.cat 204  ARG204      0.5346
     54  NH1      169.8960  208.0780  182.6880 N.pl3 204  ARG204      0.1354
     55  NH2      167.9600  206.8650  182.5030 N.pl3 204  ARG204      0.1354
     56  N        168.1740  205.4070  173.8880 N.3   206  VAL206     -0.1245
     57  CA       167.5120  206.6760  173.7920 C.3   206  VAL206      0.1561
     58  C        167.0090  206.9290  172.4170 C.2   206  VAL206      0.2260
     59  O        167.6920  206.6800  171.4210 O.2   206  VAL206     -0.2867
     60  CB       168.4420  207.8330  174.2010 C.3   206  VAL206      0.0252
     61  CG1      169.6530  207.8930  173.2820 C.3   206  VAL206      0.0019
     62  CG2      167.6910  209.1550  174.1770 C.3   206  VAL206      0.0019
     63  N        171.5570  212.8160  173.9870 N.3   213  LEU213     -0.1231
     64  CA       171.1920  213.0670  175.3670 C.3   213  LEU213      0.1693
     65  C        171.6150  211.9900  176.3360 C.2   213  LEU213      0.2592
     66  O        171.3140  210.8130  176.1510 O.2   213  LEU213     -0.2718
     67  CB       169.6750  213.2700  175.4620 C.3   213  LEU213      0.0284
     68  CG       169.1120  214.4030  174.5930 C.3   213  LEU213      0.0019
     69  CD1      167.6060  214.5090  174.7850 C.3   213  LEU213      0.0001
     70  CD2      169.7960  215.7120  174.9600 C.3   213  LEU213      0.0001
     71  N        172.2830  212.4200  177.3910 N.am  214  ASN214     -0.1974
     72  CA       172.7620  211.5690  178.4630 C.3   214  ASN214      0.1688
     73  C        173.7150  210.4610  178.0320 C.2   214  ASN214      0.2292
     74  O        173.6830  209.3730  178.6040 O.2   214  ASN214     -0.2864
     75  CB       171.5900  210.9600  179.2110 C.3   214  ASN214      0.1181
     76  CG       170.7980  211.9580  180.0090 C.2   214  ASN214      0.2629
     77  OD1      171.2640  213.0680  180.2920 O.2   214  ASN214     -0.2716
     78  ND2      169.6370  211.5390  180.4430 N.am  214  ASN214     -0.0877
     79  N        143.2570  213.2160  183.4350 N.3   256  ARG256     -0.1245
     80  CA       143.1310  212.0020  182.6510 C.3   256  ARG256      0.1563
     81  C        141.6550  211.6850  182.4710 C.2   256  ARG256      0.2260
     82  O        140.8700  211.7320  183.4140 O.2   256  ARG256     -0.2867
     83  CB       143.9020  210.8330  183.2460 C.3   256  ARG256      0.0307
     84  CG       143.8330  209.5450  182.4400 C.3   256  ARG256      0.0489
     85  CD       144.4530  208.3720  183.1070 C.3   256  ARG256      0.2205
     86  NE       145.8870  208.4890  183.3220 N.pl3 256  ARG256     -0.0865
     87  CZ       146.8250  208.2150  182.3950 C.cat 256  ARG256      0.5346
     88  NH1      146.4900  207.7710  181.2040 N.pl3 256  ARG256      0.1354
     89  NH2      148.0940  208.3800  182.7240 N.pl3 256  ARG256      0.1354
     90  N        162.7490  214.3000  171.0250 N.3   326  PHE326     -0.1227
     91  CA       163.0230  213.4010  172.1240 C.3   326  PHE326      0.1736
     92  C        161.8110  213.0210  172.9470 C.2   326  PHE326      0.2595
     93  O        160.8650  213.7910  173.1140 O.2   326  PHE326     -0.2718
     94  CB       164.0790  214.0250  173.0390 C.3   326  PHE326      0.0547
     95  CG       163.6130  215.2670  173.7440 C.ar  326  PHE326     -0.0202
     96  CD1      163.6270  216.4950  173.1000 C.ar  326  PHE326     -0.0042
     97  CD2      163.1580  215.2090  175.0530 C.ar  326  PHE326     -0.0042
     98  CE1      163.2000  217.6380  173.7470 C.ar  326  PHE326     -0.0003
     99  CE2      162.7290  216.3510  175.7030 C.ar  326  PHE326     -0.0003
    100  CZ       162.7500  217.5650  175.0500 C.ar  326  PHE326     -0.0000
    101  N        161.8810  211.8200  173.4930 N.am  327  ASN327     -0.1960
    102  CA       160.8790  211.2720  174.3790 C.3   327  ASN327      0.1819
    103  C        161.1980  211.5270  175.8240 C.2   327  ASN327      0.2621
    104  O        162.1320  210.9440  176.3680 O.2   327  ASN327     -0.2715
    105  CB       160.6940  209.7830  174.1480 C.3   327  ASN327      0.1195
    106  CG       159.6420  209.1610  175.0240 C.2   327  ASN327      0.2630
    107  OD1      159.3960  209.6120  176.1490 O.2   327  ASN327     -0.2716
    108  ND2      159.0790  208.0800  174.5490 N.am  327  ASN327     -0.0877
    109  N        160.4300  212.3850  176.4560 N.am  328  CYS328     -0.1954
    110  CA       160.6320  212.6550  177.8560 C.3   328  CYS328      0.1843
    111  C        159.5290  212.0640  178.6760 C.2   328  CYS328      0.2626
    112  O        158.4200  212.5920  178.7320 O.2   328  CYS328     -0.2714
    113  CB       160.5940  214.1800  177.9200 C.3   328  CYS328      0.0997
    114  SG       160.4340  214.8550  179.5920 S.3   328  CYS328     -0.0797
    115  N        159.8200  210.9290  179.2900 N.am  329  GLY329     -0.1954
    116  CA       158.9280  210.3580  180.2790 C.3   329  GLY329      0.1869
    117  C        157.6440  209.8650  179.6520 C.2   329  GLY329      0.2309
    118  O        156.6000  209.8740  180.2950 O.2   329  GLY329     -0.2863
    119  N        149.9580  212.0360  180.5190 N.3   380  ILE380     -0.1231
    120  CA       150.3600  211.6270  181.8640 C.3   380  ILE380      0.1692
    121  C        150.0110  212.6520  182.9470 C.2   380  ILE380      0.2592
    122  O        150.7010  212.7440  183.9590 O.2   380  ILE380     -0.2718
    123  CB       151.8730  211.3490  181.9210 C.3   380  ILE380      0.0266
    124  CG1      152.6590  212.5800  181.4620 C.3   380  ILE380      0.0019
    125  CG2      152.2250  210.1410  181.0670 C.3   380  ILE380      0.0020
    126  CD1      154.1480  212.4780  181.7020 C.3   380  ILE380      0.0001
    127  N        148.9450  213.4180  182.7210 N.am  381  ARG381     -0.1966
    128  CA       148.3880  214.3410  183.7210 C.3   381  ARG381      0.1729
    129  C        149.2550  215.5290  184.1640 C.2   381  ARG381      0.2616
    130  O        149.2440  215.8880  185.3410 O.2   381  ARG381     -0.2715
    131  CB       147.9220  213.5650  184.9440 C.3   381  ARG381      0.0348
    132  CG       146.7440  212.6340  184.7000 C.3   381  ARG381      0.0492
    133  CD       146.1720  212.0340  185.9320 C.3   381  ARG381      0.2205
    134  NE       147.0920  211.1840  186.6710 N.pl3 381  ARG381     -0.0865
    135  CZ       146.8350  210.6490  187.8810 C.cat 381  ARG381      0.5346
    136  NH1      145.7080  210.9040  188.5090 N.pl3 381  ARG381      0.1354
    137  NH2      147.7580  209.8810  188.4330 N.pl3 381  ARG381      0.1354
    138  N        150.0000  216.1400  183.2470 N.am  382  GLY382     -0.1955
    139  CA       150.6500  217.3950  183.5540 C.3   382  GLY382      0.1869
    140  C        151.8700  217.2250  184.4150 C.2   382  GLY382      0.2309
    141  O        152.3270  216.1070  184.6480 O.2   382  GLY382     -0.2863
    142  N        158.3830  217.3870  183.8310 N.3   385  ARG385     -0.1231
    143  CA       159.6200  218.0650  184.1540 C.3   385  ARG385      0.1694
    144  C        160.8100  217.1660  183.9860 C.2   385  ARG385      0.2592
    145  O        160.9740  216.1960  184.7240 O.2   385  ARG385     -0.2718
    146  CB       159.5890  218.6800  185.5460 C.3   385  ARG385      0.0321
    147  CG       160.8410  219.4520  185.9310 C.3   385  ARG385      0.0489
    148  CD       160.7330  220.1920  187.2150 C.3   385  ARG385      0.2205
    149  NE       161.9520  220.8710  187.6230 N.pl3 385  ARG385     -0.0865
    150  CZ       162.8640  220.3630  188.4740 C.cat 385  ARG385      0.5346
    151  NH1      162.6820  219.1890  189.0390 N.pl3 385  ARG385      0.1354
    152  NH2      163.9360  221.0860  188.7470 N.pl3 385  ARG385      0.1354
    153  N        161.6580  217.4980  183.0320 N.am  386  CYS386     -0.1956
    154  CA       162.8170  216.6780  182.7840 C.3   386  CYS386      0.1843
    155  C        164.0580  217.5080  182.7340 C.2   386  CYS386      0.2626
    156  O        164.0110  218.7160  182.5060 O.2   386  CYS386     -0.2714
    157  CB       162.5220  216.0710  181.4110 C.3   386  CYS386      0.0997
    158  SG       161.2790  214.7560  181.4240 S.3   386  CYS386     -0.0797
    159  N        165.1790  216.8490  182.9170 N.am  387  SER387     -0.1936
    160  CA       166.4360  217.4760  182.6330 C.3   387  SER387      0.2055
    161  C        167.3670  216.4700  182.0370 C.2   387  SER387      0.2643
    162  O        167.2980  215.2810  182.3520 O.2   387  SER387     -0.2714
    163  CB       167.0290  218.0820  183.8890 C.3   387  SER387      0.2130
    164  OG       167.4420  217.1020  184.8020 O.3   387  SER387     -0.2179
    165  N        168.2590  216.9430  181.1950 N.am  388  SER388     -0.1949
    166  CA       169.1510  216.0490  180.5020 C.3   388  SER388      0.1924
    167  C        170.4610  216.7110  180.2050 C.2   388  SER388      0.2314
    168  O        170.6350  217.9090  180.4130 O.2   388  SER388     -0.2863
    169  CB       168.5080  215.5570  179.2200 C.3   388  SER388      0.2116
    170  OG       168.3180  216.5920  178.2960 O.3   388  SER388     -0.2180
@<TRIPOS>BOND
     1    90    91    1
     2    59    58    2
     3    91    92    1
     4    91    94    1
     5    58    57    1
     6    92    93    2
     7    92   101   am
     8    94    95    1
     9    96    95   ar
    10    96    98   ar
    11    61    60    1
    12   101   102    1
    13    95    97   ar
    14    98   100   ar
    15    57    56    1
    16    57    60    1
    17    63    64    1
    18   105   102    1
    19   105   106    1
    20    62    60    1
    21   102   103    1
    22   108   106   am
    23    68    69    1
    24    68    70    1
    25    68    67    1
    26   106   107    2
    27   100    99   ar
    28    97    99   ar
    29    64    67    1
    30    64    65    1
    31    48    47    2
    32   103   104    2
    33   103   109   am
    34    66    65    2
    35    65    71   am
    36   109   110    1
    37    47    46    1
    38    71    72    1
    39    45    46    1
    40   110   113    1
    41   110   111    1
    42   113   114    1
    43    46    49    1
    44    73    72    1
    45    73    74    2
    46   170   169    1
    47    72    75    1
    48   111   112    2
    49   111   115   am
    50    22    16    1
    51    22    21    1
    52    42    43    1
    53    42    39    1
    54    49    50    1
    55    16    17    1
    56    75    76    1
    57   169   166    1
    58    11    10    2
    59   115   116    1
    60    21    20    1
    61    10     9    1
    62    43    44    1
    63    26    25    2
    64    39    38    1
    65    39    40    1
    66   114   158    1
    67   117   116    1
    68   117   118    2
    69    25    24    1
    70    44    38    1
    71    38    31   am
    72    76    77    2
    73    76    78   am
    74    17    20    1
    75    17    18    1
    76    29    30    1
    77   167   168    2
    78   167   166    1
    79    50    51    1
    80   166   165    1
    81   119   120    1
    82    31    32    2
    83    31    30    1
    84    24    23    1
    85    24    27    1
    86    40    41    2
    87     9    12    1
    88     9     8    1
    89   125   123    1
    90    30    33    1
    91   165   161   am
    92    88    87    1
    93    51    52    1
    94    18    19    2
    95   157   158    1
    96   157   154    1
    97    12    13    1
    98   124   126    1
    99   124   123    1
   100    52    53    2
   101   120   123    1
   102   120   121    1
   103    27    28    1
   104   161   162    2
   105   161   160    1
   106    33    34    1
   107    53    55    1
   108    53    54    1
   109    87    89    1
   110    87    86    2
   111    84    85    1
   112    84    83    1
   113    81    80    1
   114    81    82    2
   115   156   155    2
   116   160   159    1
   117   160   163    1
   118    80    83    1
   119    80    79    1
   120   127   121   am
   121   127   128    1
   122    13    14    2
   123    13    15   am
   124   155   154    1
   125   155   159   am
   126   154   153    1
   127   121   122    2
   128   153   144   am
   129    34    35    1
   130    85    86    1
   131   138   139    1
   132   138   129   am
   133   139   140    1
   134   128   129    1
   135   128   131    1
   136   142   143    1
   137   163   164    1
   138   144   143    1
   139   144   145    2
   140   143   146    1
   141   129   130    2
   142    35    36   ar
   143    35    37   ar
   144   140   141    2
   145   132   131    1
   146   132   133    1
   147     3     4    2
   148     3     2    1
   149   146   147    1
   150     7     5    1
   151     5     2    1
   152     5     6    1
   153   147   148    1
   154   133   134    1
   155     2     1    1
   156   134   135    2
   157   148   149    1
   158   149   150    2
   159   135   137    1
   160   135   136    1
   161   150   152    1
   162   150   151    1
