@<TRIPOS>MOLECULE
tmp/5fuuE11.pdb
 84 79 0 0 0
SMALL
GASTEIGER

@<TRIPOS>ATOM
      1  N        145.0490  151.1890  128.5050 N.3   310  VAL310     -0.1231
      2  CA       144.1000  152.2470  128.2660 C.3   310  VAL310      0.1692
      3  C        144.3350  153.4970  129.0480 C.2   310  VAL310      0.2592
      4  O        144.4400  153.4580  130.2690 O.2   310  VAL310     -0.2718
      5  CB       142.6670  151.7680  128.5600 C.3   310  VAL310      0.0266
      6  CG1      141.6760  152.9090  128.3820 C.3   310  VAL310      0.0020
      7  CG2      142.2990  150.5990  127.6580 C.3   310  VAL310      0.0020
      8  N        144.3600  154.6240  128.3640 N.am  311  PHE311     -0.1962
      9  CA       144.4400  155.8700  129.0760 C.3   311  PHE311      0.1771
     10  C        143.0910  156.5240  129.0400 C.2   311  PHE311      0.2620
     11  O        142.3710  156.4740  128.0400 O.2   311  PHE311     -0.2715
     12  CB       145.5040  156.7870  128.4700 C.3   311  PHE311      0.0574
     13  CG       146.9100  156.2960  128.6650 C.ar  311  PHE311     -0.0200
     14  CD1      147.5580  156.4650  129.8790 C.ar  311  PHE311     -0.0042
     15  CD2      147.5870  155.6620  127.6340 C.ar  311  PHE311     -0.0042
     16  CE1      148.8510  156.0140  130.0600 C.ar  311  PHE311     -0.0003
     17  CE2      148.8810  155.2100  127.8120 C.ar  311  PHE311     -0.0003
     18  CZ       149.5130  155.3860  129.0250 C.ar  311  PHE311     -0.0000
     19  N        142.7400  157.1160  130.1580 N.am  312  ASN312     -0.1958
     20  CA       141.4280  157.6840  130.3170 C.3   312  ASN312      0.1819
     21  C        141.5350  159.0100  131.0000 C.2   312  ASN312      0.2621
     22  O        142.3280  159.1840  131.9220 O.2   312  ASN312     -0.2715
     23  CB       140.4980  156.7640  131.0870 C.3   312  ASN312      0.1195
     24  CG       139.1170  157.3260  131.2830 C.2   312  ASN312      0.2630
     25  OD1      138.9470  158.4880  131.6700 O.2   312  ASN312     -0.2716
     26  ND2      138.1330  156.4840  131.0980 N.am  312  ASN312     -0.0877
     27  N        140.7790  159.9630  130.5060 N.am  313  HIS313     -0.1973
     28  CA       140.7410  161.2760  131.0950 C.3   313  HIS313      0.1656
     29  C        140.2580  161.2160  132.5340 C.2   313  HIS313      0.2291
     30  O        139.7290  160.2000  132.9870 O.2   313  HIS313     -0.2864
     31  CB       139.8430  162.2070  130.2730 C.3   313  HIS313      0.0771
     32  CG       138.3970  161.8190  130.2930 C.ar  313  HIS313      0.0820
     33  ND1      137.5480  162.1670  131.3230 N.ar  313  HIS313     -0.2267
     34  CD2      137.6500  161.1140  129.4110 C.ar  313  HIS313      0.1154
     35  CE1      136.3400  161.6920  131.0730 C.ar  313  HIS313      0.1986
     36  NE2      136.3760  161.0500  129.9200 N.ar  313  HIS313     -0.2212
     37  N        138.1110  161.9540  136.0280 N.3   315  SER315     -0.1217
     38  CA       136.7250  161.5440  136.2680 C.3   315  SER315      0.1889
     39  C        135.6680  162.6110  136.0660 C.2   315  SER315      0.2288
     40  O        134.5060  162.2930  135.8100 O.2   315  SER315     -0.2866
     41  CB       136.6090  161.0000  137.6780 C.3   315  SER315      0.2089
     42  OG       136.7560  162.0040  138.6440 O.3   315  SER315     -0.2183
     43  N        143.9040  160.5900  125.5360 N.3   342  ASN342     -0.1240
     44  CA       142.8950  159.8920  124.7380 C.3   342  ASN342      0.1653
     45  C        143.5610  158.8750  123.8230 C.2   342  ASN342      0.2266
     46  O        143.6060  159.0770  122.6090 O.2   342  ASN342     -0.2867
     47  CB       142.0480  160.8560  123.9290 C.3   342  ASN342      0.1155
     48  CG       141.0850  160.1790  122.9940 C.2   342  ASN342      0.2627
     49  OD1      140.7190  159.0130  123.1850 O.2   342  ASN342     -0.2716
     50  ND2      140.7370  160.8730  121.9420 N.am  342  ASN342     -0.0877
     51  N        144.6900  154.3320  123.3860 N.3   344  THR344     -0.1218
     52  CA       144.8230  152.9780  123.8880 C.3   344  THR344      0.1862
     53  C        145.8780  152.2720  123.0750 C.2   344  THR344      0.2287
     54  O        146.0870  152.5880  121.9020 O.2   344  THR344     -0.2866
     55  CB       143.5010  152.1910  123.8160 C.3   344  THR344      0.1770
     56  OG1      143.1000  152.0490  122.4470 O.3   344  THR344     -0.2211
     57  CG2      142.4080  152.9140  124.5880 C.3   344  THR344      0.0375
     58  N        142.0980  152.1710  137.5180 N.3   398  ASP398     -0.1239
     59  CA       140.7090  151.8270  137.7810 C.3   398  ASP398      0.1674
     60  C        140.4460  150.3360  137.6760 C.2   398  ASP398      0.2266
     61  O        140.4460  149.7730  136.5800 O.2   398  ASP398     -0.2867
     62  CB       139.7880  152.5800  136.8200 C.3   398  ASP398      0.1410
     63  CG       138.3020  152.3410  137.0530 C.2   398  ASP398      0.3668
     64  OD1      137.9760  151.4680  137.8230 O.co2 398  ASP398     -0.2456
     65  OD2      137.5130  153.1270  136.5880 O.co2 398  ASP398     -0.2456
     66  N        143.0550  150.1390  132.7390 N.3   408  ILE408     -0.1245
     67  CA       142.6560  151.5240  132.5100 C.3   408  ILE408      0.1561
     68  C        143.2470  152.4650  133.5260 C.2   408  ILE408      0.2260
     69  O        143.0740  152.2920  134.7290 O.2   408  ILE408     -0.2867
     70  CB       141.1240  151.6800  132.5320 C.3   408  ILE408      0.0252
     71  CG1      140.4860  150.8370  131.4240 C.3   408  ILE408      0.0019
     72  CG2      140.7360  153.1430  132.3820 C.3   408  ILE408      0.0019
     73  CD1      138.9740  150.8590  131.4350 C.3   408  ILE408      0.0001
     74  N        144.1370  156.5400  134.8600 N.3   410  ARG410     -0.1245
     75  CA       143.7700  157.9290  134.8520 C.3   410  ARG410      0.1563
     76  C        144.8660  158.7610  135.4650 C.2   410  ARG410      0.2260
     77  O        145.5990  158.2730  136.3220 O.2   410  ARG410     -0.2867
     78  CB       142.4290  158.1790  135.5240 C.3   410  ARG410      0.0307
     79  CG       141.2190  157.7060  134.7330 C.3   410  ARG410      0.0489
     80  CD       139.9120  158.1150  135.3090 C.3   410  ARG410      0.2205
     81  NE       138.7530  157.6540  134.5610 N.pl3 410  ARG410     -0.0865
     82  CZ       138.0610  156.5310  134.8370 C.cat 410  ARG410      0.5346
     83  NH1      138.4280  155.7340  135.8160 N.pl3 410  ARG410      0.1354
     84  NH2      137.0170  156.2390  134.0820 N.pl3 410  ARG410      0.1354
@<TRIPOS>BOND
     1    54    53    2
     2    50    48   am
     3    56    55    1
     4    46    45    2
     5    48    49    2
     6    48    47    1
     7    53    52    1
     8    51    52    1
     9    55    52    1
    10    55    57    1
    11    45    44    1
    12    47    44    1
    13    44    43    1
    14    15    17   ar
    15    15    13   ar
    16     7     5    1
    17    17    18   ar
    18    11    10    2
    19     2     1    1
    20     2     5    1
    21     2     3    1
    22     8     3   am
    23     8     9    1
    24     6     5    1
    25    12    13    1
    26    12     9    1
    27    13    14   ar
    28    18    16   ar
    29    10     9    1
    30    10    19   am
    31     3     4    2
    32    34    36   ar
    33    34    32   ar
    34    14    16   ar
    35    36    35   ar
    36    19    20    1
    37    31    32    1
    38    31    28    1
    39    32    33   ar
    40    20    21    1
    41    20    23    1
    42    27    21   am
    43    27    28    1
    44    21    22    2
    45    35    33   ar
    46    23    24    1
    47    28    29    1
    48    26    24   am
    49    24    25    2
    50    71    73    1
    51    71    70    1
    52    72    70    1
    53    67    70    1
    54    67    66    1
    55    67    68    1
    56    29    30    2
    57    68    69    2
    58    84    82    1
    59    81    82    2
    60    81    80    1
    61    79    80    1
    62    79    78    1
    63    82    83    1
    64    75    74    1
    65    75    76    1
    66    75    78    1
    67    76    77    2
    68    40    39    2
    69    37    38    1
    70    39    38    1
    71    38    41    1
    72    61    60    2
    73    65    63   ar
    74    62    63    1
    75    62    59    1
    76    63    64   ar
    77    58    59    1
    78    60    59    1
    79    41    42    1
