@<TRIPOS>MOLECULE
tmp/5fuvA00.pdb
 178 169 0 0 0
SMALL
GASTEIGER

@<TRIPOS>ATOM
      1  N        -13.5310  -22.8980   -6.2440 N.3    11  MET11      -0.1196
      2  CA       -13.1930  -21.5790   -5.8860 C.3    11  MET11       0.1786
      3  C        -12.9960  -21.5320   -4.3570 C.2    11  MET11       0.2306
      4  O        -13.5120  -22.3560   -3.5810 O.2    11  MET11      -0.2863
      5  CB       -14.2930  -20.6220   -6.3360 C.2    11  MET11       0.0070
      6  CG       -14.2750  -20.2640   -7.8090 C.2    11  MET11       0.0282
      7  SD       -15.6160  -19.1910   -8.4100 S.3    11  MET11      -0.1125
      8  CE       -14.9820  -17.6140   -7.7740 C.3    11  MET11       0.0742
      9  N         -6.0640  -21.6930   -4.5480 N.3    15  LYS15      -0.1245
     10  CA        -5.2260  -22.1910   -5.5820 C.3    15  LYS15       0.1561
     11  C         -4.2010  -21.2060   -6.0540 C.2    15  LYS15       0.2260
     12  O         -3.0640  -21.5880   -6.3350 O.2    15  LYS15      -0.2867
     13  CB        -6.0490  -22.7400   -6.8040 C.3    15  LYS15       0.0271
     14  CG        -7.1000  -23.8630   -6.5390 C.3    15  LYS15       0.0035
     15  CD        -7.8210  -24.2870   -7.7990 C.3    15  LYS15       0.0206
     16  CE        -8.5510  -23.1280   -8.5260 C.3    15  LYS15       0.1093
     17  NZ        -9.7500  -22.8530   -7.7750 N.3    15  LYS15      -0.1314
     18  N         -9.8180  -11.4090  -16.0900 N.3    41  ASP41      -0.1239
     19  CA        -9.8080  -11.7360  -14.6170 C.3    41  ASP41       0.1674
     20  C         -9.4510  -10.5020  -13.7580 C.2    41  ASP41       0.2266
     21  O         -8.3450   -9.9960  -13.8520 O.2    41  ASP41      -0.2867
     22  CB        -8.8250  -12.9340  -14.3560 C.3    41  ASP41       0.1410
     23  CG        -8.2980  -13.0780  -12.8700 C.2    41  ASP41       0.3668
     24  OD1       -9.0160  -12.9080  -11.8560 O.co2  41  ASP41      -0.2456
     25  OD2       -7.1140  -13.4610  -12.7240 O.co2  41  ASP41      -0.2456
     26  N         -9.2510   -9.3810   -9.8340 N.3    43  ARG43      -0.1245
     27  CA        -9.2780   -9.8850   -8.4310 C.3    43  ARG43       0.1563
     28  C         -7.8770   -9.7880   -7.7550 C.2    43  ARG43       0.2260
     29  O         -7.1610   -8.7820   -7.8450 O.2    43  ARG43      -0.2867
     30  CB        -9.8310  -11.3460   -8.3730 C.3    43  ARG43       0.0307
     31  CG       -10.1240  -11.8530   -6.9900 C.3    43  ARG43       0.0489
     32  CD       -10.6010  -13.3180   -7.0330 C.3    43  ARG43       0.2205
     33  NE        -9.4850  -14.2420   -7.2650 N.pl3  43  ARG43      -0.0865
     34  CZ        -9.5400  -15.2970   -8.0720 C.cat  43  ARG43       0.5346
     35  NH1      -10.6570  -15.5680   -8.7370 N.pl3  43  ARG43       0.1354
     36  NH2       -8.4740  -16.0800   -8.2200 N.pl3  43  ARG43       0.1354
     37  N         -5.6310  -19.1440  -13.4330 N.3    75  GLU75      -0.1245
     38  CA        -6.9930  -19.2180  -13.9970 C.3    75  GLU75       0.1567
     39  C         -6.9380  -19.9590  -15.3720 C.2    75  GLU75       0.2260
     40  O         -7.4300  -19.4920  -16.3760 O.2    75  GLU75      -0.2867
     41  CB        -7.5800  -17.8290  -14.1350 C.3    75  GLU75       0.0388
     42  CG        -7.8070  -17.1040  -12.8250 C.3    75  GLU75       0.1160
     43  CD        -9.0170  -17.5850  -12.0340 C.2    75  GLU75       0.3649
     44  OE1       -9.3520  -18.8320  -12.0180 O.co2  75  GLU75      -0.2457
     45  OE2       -9.5670  -16.7100  -11.3340 O.co2  75  GLU75      -0.2457
     46  N         -8.3320  -22.3480  -16.7450 N.3    77  GLN77      -0.1231
     47  CA        -9.5310  -22.7020  -17.4340 C.3    77  GLN77       0.1698
     48  C        -10.0370  -21.6550  -18.4310 C.2    77  GLN77       0.2592
     49  O        -10.8470  -21.9760  -19.2640 O.2    77  GLN77      -0.2718
     50  CB       -10.6050  -23.0640  -16.4740 C.3    77  GLN77       0.0381
     51  CG       -11.3430  -21.9420  -15.8250 C.3    77  GLN77       0.0905
     52  CD       -10.5590  -21.2820  -14.6970 C.2    77  GLN77       0.2608
     53  OE1       -9.5440  -21.7830  -14.2790 O.2    77  GLN77      -0.2717
     54  NE2      -10.9780  -20.1150  -14.3110 N.am   77  GLN77      -0.0878
     55  N         -9.5770  -20.4190  -18.3130 N.am   78  PHE78      -0.1976
     56  CA        -9.9220  -19.3800  -19.2440 C.3    78  PHE78       0.1639
     57  C         -9.1960  -19.4440  -20.5790 C.2    78  PHE78       0.2290
     58  O         -9.5760  -18.7490  -21.4970 O.2    78  PHE78      -0.2864
     59  CB        -9.6840  -17.9870  -18.5820 C.3    78  PHE78       0.0560
     60  CG       -10.6910  -17.6290  -17.4930 C.ar   78  PHE78      -0.0200
     61  CD1      -12.0030  -18.1120  -17.5400 C.ar   78  PHE78      -0.0042
     62  CD2      -10.3240  -16.8180  -16.4210 C.ar   78  PHE78      -0.0042
     63  CE1      -12.8950  -17.8020  -16.5390 C.ar   78  PHE78      -0.0003
     64  CE2      -11.2400  -16.4650  -15.4470 C.ar   78  PHE78      -0.0003
     65  CZ       -12.5250  -16.9220  -15.5410 C.ar   78  PHE78      -0.0000
     66  N         -9.6790  -24.0790  -12.2650 N.3   101  LEU101     -0.1245
     67  CA       -10.8570  -24.9010  -11.9330 C.3   101  LEU101      0.1561
     68  C        -10.8380  -26.1800  -12.7950 C.2   101  LEU101      0.2260
     69  O        -10.5430  -26.1110  -13.9790 O.2   101  LEU101     -0.2867
     70  CB       -12.1290  -24.1760  -12.2180 C.3   101  LEU101      0.0270
     71  CG       -12.2960  -22.9140  -11.3770 C.3   101  LEU101      0.0019
     72  CD1      -13.3900  -22.0690  -11.9610 C.3   101  LEU101      0.0001
     73  CD2      -12.6780  -23.2610  -10.0000 C.3   101  LEU101      0.0001
     74  N        -13.6790  -28.1520  -12.5480 N.3   103  ALA103     -0.1231
     75  CA       -15.1450  -28.1800  -12.7670 C.3   103  ALA103      0.1694
     76  C        -15.7780  -26.7990  -12.8160 C.2   103  ALA103      0.2592
     77  O        -15.4020  -25.8940  -12.0410 O.2   103  ALA103     -0.2718
     78  CB       -15.8060  -28.9380  -11.6120 C.3   103  ALA103      0.0304
     79  N        -16.8070  -26.6580  -13.6520 N.am  104  ASP104     -0.1960
     80  CA       -17.5720  -25.4050  -13.7230 C.3   104  ASP104      0.1840
     81  C        -18.6620  -25.4930  -12.6710 C.2   104  ASP104      0.2622
     82  O        -18.7200  -26.4520  -11.9040 O.2   104  ASP104     -0.2715
     83  CB       -18.1300  -25.1340  -15.1210 C.3   104  ASP104      0.1450
     84  CG       -19.1880  -26.2240  -15.6010 C.2   104  ASP104      0.3671
     85  OD1      -19.8290  -26.9740  -14.7570 O.co2 104  ASP104     -0.2456
     86  OD2      -19.2610  -26.3100  -16.8430 O.co2 104  ASP104     -0.2456
     87  N        -19.5300  -24.5000  -12.6620 N.am  105  TYR105     -0.1974
     88  CA       -20.6380  -24.4200  -11.7000 C.3   105  TYR105      0.1639
     89  C        -21.6820  -25.5020  -11.8070 C.2   105  TYR105      0.2290
     90  O        -22.5100  -25.6560  -10.9110 O.2   105  TYR105     -0.2864
     91  CB       -21.3070  -23.0510  -11.7800 C.3   105  TYR105      0.0560
     92  CG       -22.1840  -22.8550  -12.9720 C.ar  105  TYR105     -0.0198
     93  CD1      -21.6450  -22.6140  -14.2200 C.ar  105  TYR105     -0.0009
     94  CD2      -23.6050  -22.8340  -12.8390 C.ar  105  TYR105     -0.0009
     95  CE1      -22.4670  -22.3720  -15.3260 C.ar  105  TYR105      0.0417
     96  CE2      -24.4430  -22.6090  -13.9470 C.ar  105  TYR105      0.0417
     97  CZ       -23.8710  -22.3820  -15.1840 C.ar  105  TYR105      0.1957
     98  OH       -24.6340  -22.2170  -16.2790 O.3   105  TYR105     -0.2866
     99  N        -13.8250  -28.7160  -17.3160 N.3   110  PHE110     -0.1241
    100  CA       -13.1530  -27.9460  -18.3250 C.3   110  PHE110      0.1605
    101  C        -12.2040  -28.9120  -19.0240 C.2   110  PHE110      0.2264
    102  O        -11.2010  -29.4380  -18.4540 O.2   110  PHE110     -0.2867
    103  CB       -12.4160  -26.7640  -17.7210 C.3   110  PHE110      0.0534
    104  CG       -13.3290  -25.6840  -17.1630 C.ar  110  PHE110     -0.0203
    105  CD1      -13.8620  -24.7250  -17.9830 C.ar  110  PHE110     -0.0042
    106  CD2      -13.5310  -25.5740  -15.8250 C.ar  110  PHE110     -0.0042
    107  CE1      -14.6730  -23.7300  -17.4970 C.ar  110  PHE110     -0.0003
    108  CE2      -14.3540  -24.5850  -15.2940 C.ar  110  PHE110     -0.0003
    109  CZ       -14.9120  -23.6580  -16.1420 C.ar  110  PHE110     -0.0000
    110  N        -18.0830  -25.6290   -6.6760 N.3   141  THR141     -0.1218
    111  CA       -18.4290  -24.2350   -6.7540 C.3   141  THR141      0.1862
    112  C        -19.8880  -24.0950   -7.2180 C.2   141  THR141      0.2287
    113  O        -20.2670  -24.6350   -8.2390 O.2   141  THR141     -0.2866
    114  CB       -17.5770  -23.4920   -7.7490 C.3   141  THR141      0.1770
    115  OG1      -16.1990  -23.8240   -7.5470 O.3   141  THR141     -0.2211
    116  CG2      -17.8140  -22.0340   -7.6050 C.3   141  THR141      0.0375
    117  N        -22.8660  -21.4230   -8.2730 N.3   143  ARG143     -0.1245
    118  CA       -23.0880  -20.0330   -8.7640 C.3   143  ARG143      0.1563
    119  C        -24.3680  -19.4770   -8.1030 C.2   143  ARG143      0.2260
    120  O        -25.3740  -20.0890   -8.1960 O.2   143  ARG143     -0.2867
    121  CB       -23.2500  -20.0100  -10.2550 C.3   143  ARG143      0.0307
    122  CG       -23.3740  -18.6030  -10.7730 C.3   143  ARG143      0.0489
    123  CD       -23.5590  -18.6320  -12.2550 C.3   143  ARG143      0.2205
    124  NE       -22.2870  -18.7180  -12.9470 N.pl3 143  ARG143     -0.0865
    125  CZ       -22.1620  -19.0090  -14.2330 C.cat 143  ARG143      0.5346
    126  NH1      -23.2510  -19.2270  -14.9750 N.pl3 143  ARG143      0.1354
    127  NH2      -20.9620  -19.0820  -14.7840 N.pl3 143  ARG143      0.1354
    128  N        -21.2840  -19.8910  -19.3230 N.3   150  ARG150     -0.1231
    129  CA       -20.3660  -20.7940  -18.6700 C.3   150  ARG150      0.1694
    130  C        -19.2450  -19.9620  -18.0230 C.2   150  ARG150      0.2592
    131  O        -18.9790  -20.1210  -16.8870 O.2   150  ARG150     -0.2718
    132  CB       -19.7550  -21.7830  -19.6390 C.3   150  ARG150      0.0321
    133  CG       -19.1770  -22.9490  -18.8950 C.3   150  ARG150      0.0489
    134  CD       -18.2500  -23.8370  -19.7000 C.3   150  ARG150      0.2205
    135  NE       -18.0800  -25.0930  -18.9420 N.pl3 150  ARG150     -0.0865
    136  CZ       -17.2770  -26.0920  -19.3130 C.cat 150  ARG150      0.5346
    137  NH1      -16.5680  -25.9810  -20.4180 N.pl3 150  ARG150      0.1354
    138  NH2      -17.1500  -27.2030  -18.5860 N.pl3 150  ARG150      0.1354
    139  N        -18.6810  -19.0460  -18.7900 N.am  151  LYS151     -0.1966
    140  CA       -17.7610  -18.1220  -18.3210 C.3   151  LYS151      0.1728
    141  C        -18.5060  -16.8970  -17.8230 C.2   151  LYS151      0.2616
    142  O        -19.2070  -16.2530  -18.5460 O.2   151  LYS151     -0.2715
    143  CB       -16.8090  -17.7560  -19.4100 C.3   151  LYS151      0.0311
    144  CG       -15.8770  -16.6550  -19.0100 C.3   151  LYS151      0.0038
    145  CD       -14.7540  -16.4510  -20.0320 C.3   151  LYS151      0.0206
    146  CE       -14.2070  -15.0340  -19.9050 C.3   151  LYS151      0.1093
    147  NZ       -13.7520  -14.5090  -21.1930 N.3   151  LYS151     -0.1314
    148  N        -18.3100  -16.5870  -16.5490 N.am  152  LEU152     -0.1963
    149  CA       -18.8530  -15.3940  -15.8850 C.3   152  LEU152      0.1728
    150  C        -17.8950  -15.0270  -14.7450 C.2   152  LEU152      0.2616
    151  O        -17.8960  -15.7120  -13.6980 O.2   152  LEU152     -0.2715
    152  CB       -20.2450  -15.6990  -15.3420 C.3   152  LEU152      0.0311
    153  CG       -20.8860  -14.5970  -14.4960 C.3   152  LEU152      0.0022
    154  CD1      -21.1890  -13.3730  -15.3230 C.3   152  LEU152      0.0001
    155  CD2      -22.1360  -15.1140  -13.8180 C.3   152  LEU152      0.0001
    156  N        -17.0880  -13.9940  -14.9820 N.am  153  VAL153     -0.1963
    157  CA       -16.0370  -13.5650  -14.1010 C.3   153  VAL153      0.1727
    158  C        -16.5630  -12.9030  -12.8460 C.2   153  VAL153      0.2616
    159  O        -17.3890  -12.0390  -12.9060 O.2   153  VAL153     -0.2715
    160  CB       -15.0990  -12.6160  -14.8140 C.3   153  VAL153      0.0290
    161  CG1      -14.0270  -12.0630  -13.8750 C.3   153  VAL153      0.0023
    162  CG2      -14.4200  -13.3670  -15.9270 C.3   153  VAL153      0.0023
    163  N        -16.0810  -13.3560  -11.6980 N.am  154  GLY154     -0.1955
    164  CA       -16.5930  -12.9030  -10.4030 C.3   154  GLY154      0.1869
    165  C        -15.9900  -13.6290   -9.2040 C.2   154  GLY154      0.2309
    166  O        -15.2460  -14.5940   -9.3530 O.2   154  GLY154     -0.2863
    167  N        -20.3810  -16.3920   -6.5090 N.3   159  TYR159     -0.1241
    168  CA       -20.1180  -17.8450   -6.3200 C.3   159  TYR159      0.1605
    169  C        -19.8950  -18.1890   -4.8710 C.2   159  TYR159      0.2264
    170  O        -19.5140  -17.3440   -4.0460 O.2   159  TYR159     -0.2867
    171  CB       -18.8760  -18.1980   -7.0650 C.3   159  TYR159      0.0534
    172  CG       -18.9460  -18.1220   -8.5730 C.ar  159  TYR159     -0.0201
    173  CD1      -19.4080  -19.1750   -9.3260 C.ar  159  TYR159     -0.0009
    174  CD2      -18.5310  -16.9800   -9.2440 C.ar  159  TYR159     -0.0009
    175  CE1      -19.4590  -19.0710  -10.7360 C.ar  159  TYR159      0.0417
    176  CE2      -18.5550  -16.8850  -10.6200 C.ar  159  TYR159      0.0417
    177  CZ       -19.0570  -17.9460  -11.3620 C.ar  159  TYR159      0.1957
    178  OH       -19.0120  -17.8070  -12.7170 O.3   159  TYR159     -0.2866
@<TRIPOS>BOND
     1    58    57    2
     2   147   146    1
     3    57    56    1
     4   137   136    1
     5   145   146    1
     6   145   144    1
     7   134   135    1
     8   134   133    1
     9   132   133    1
    10   132   129    1
    11   143   144    1
    12   143   140    1
    13   128   129    1
    14   136   135    2
    15   136   138    1
    16    49    48    2
    17    56    59    1
    18    56    55    1
    19   101   102    2
    20   101   100    1
    21   139   140    1
    22   139   130   am
    23   129   130    1
    24    59    60    1
    25   142   141    2
    26    48    55   am
    27    48    47    1
    28   100   103    1
    29   100    99    1
    30   140   141    1
    31   130   131    2
    32   105   107   ar
    33   105   104   ar
    34   141   148   am
    35   103   104    1
    36    61    60   ar
    37    61    63   ar
    38   107   109   ar
    39    60    62   ar
    40    47    46    1
    41    47    50    1
    42   104   106   ar
    43    86    84   ar
    44   148   149    1
    45    63    65   ar
    46    50    51    1
    47    62    64   ar
    48    40    39    2
    49    98    97    1
    50   109   108   ar
    51    18    19    1
    52   162   160    1
    53   149   152    1
    54   149   150    1
    55   106   108   ar
    56    51    52    1
    57    84    83    1
    58    84    85   ar
    59    65    64   ar
    60    39    38    1
    61   152   153    1
    62    95    97   ar
    63    95    93   ar
    64   154   153    1
    65    97    96   ar
    66    83    80    1
    67   156   150   am
    68   156   157    1
    69   126   125    1
    70   160   157    1
    71   160   161    1
    72   127   125    1
    73   150   151    2
    74    52    54   am
    75    52    53    2
    76    19    22    1
    77    19    20    1
    78   153   155    1
    79    22    23    1
    80   125   124    2
    81    93    92   ar
    82    41    38    1
    83    41    42    1
    84   157   158    1
    85    38    37    1
    86    69    68    2
    87    96    94   ar
    88    21    20    2
    89    80    79    1
    90    80    81    1
    91    79    76   am
    92    92    94   ar
    93    92    91    1
    94   124   123    1
    95   159   158    2
    96    23    25   ar
    97    23    24   ar
    98   158   163   am
    99    42    43    1
   100    76    75    1
   101    76    77    2
   102    68    67    1
   103    75    74    1
   104    75    78    1
   105   178   177    1
   106    81    87   am
   107    81    82    2
   108    87    88    1
   109    66    67    1
   110   123   122    1
   111    70    67    1
   112    70    71    1
   113    43    44   ar
   114    43    45   ar
   115    72    71    1
   116    89    88    1
   117    89    90    2
   118    91    88    1
   119   163   164    1
   120    71    73    1
   121   177   175   ar
   122   177   176   ar
   123   122   121    1
   124   175   173   ar
   125   176   174   ar
   126   164   165    1
   127   121   118    1
   128    26    27    1
   129   166   165    2
   130   173   172   ar
   131   174   172   ar
   132   118   117    1
   133   118   119    1
   134    35    34    1
   135   172   171    1
   136    16    15    1
   137    16    17    1
   138    27    30    1
   139    27    28    1
   140     7     6    1
   141     7     8    1
   142    30    31    1
   143   113   112    2
   144    36    34    1
   145   120   119    2
   146    34    33    2
   147    29    28    2
   148     6     5    2
   149    15    14    1
   150   114   116    1
   151   114   115    1
   152   114   111    1
   153    33    32    1
   154   112   111    1
   155   171   168    1
   156    32    31    1
   157    13    14    1
   158    13    10    1
   159   111   110    1
   160   167   168    1
   161     5     2    1
   162    12    11    2
   163   168   169    1
   164     1     2    1
   165    11    10    1
   166     2     3    1
   167    10     9    1
   168   169   170    2
   169     3     4    2
