@<TRIPOS>MOLECULE
tmp/5fuxA00.pdb
 204 197 0 0 0
SMALL
GASTEIGER

@<TRIPOS>ATOM
      1  N        -13.5050  -23.0130   -6.4210 N.3    12  MET12      -0.1230
      2  CA       -13.1840  -21.6880   -6.0190 C.3    12  MET12       0.1702
      3  C        -12.9800  -21.6200   -4.5090 C.2    12  MET12       0.2592
      4  O        -13.5520  -22.4070   -3.7290 O.2    12  MET12      -0.2718
      5  CB       -14.2800  -20.7040   -6.4700 C.3    12  MET12       0.0401
      6  CG       -14.2460  -20.4250   -7.9500 C.3    12  MET12       0.0596
      7  SD       -15.5350  -19.2540   -8.5440 S.3    12  MET12      -0.1393
      8  CE       -14.8550  -17.7110   -7.9380 C.3    12  MET12       0.0692
      9  N        -12.1760  -20.6430   -4.0910 N.am   13  PHE13      -0.1976
     10  CA       -11.9320  -20.3690   -2.6370 C.3    13  PHE13       0.1639
     11  C        -11.0830  -21.4020   -1.9260 C.2    13  PHE13       0.2290
     12  O        -11.1470  -21.5370   -0.7000 O.2    13  PHE13      -0.2864
     13  CB       -13.2510  -20.1460   -1.8950 C.3    13  PHE13       0.0560
     14  CG       -14.1640  -19.1750   -2.6120 C.ar   13  PHE13      -0.0200
     15  CD1      -13.7800  -17.8510   -2.7830 C.ar   13  PHE13      -0.0042
     16  CD2      -15.3290  -19.6320   -3.2270 C.ar   13  PHE13      -0.0042
     17  CE1      -14.5750  -16.9530   -3.4910 C.ar   13  PHE13      -0.0003
     18  CE2      -16.1080  -18.7590   -3.9500 C.ar   13  PHE13      -0.0003
     19  CZ       -15.7480  -17.4020   -4.0530 C.ar   13  PHE13      -0.0000
     20  N         -6.0220  -21.8810   -4.6060 N.3    16  LYS16      -0.1231
     21  CA        -5.1810  -22.3790   -5.6670 C.3    16  LYS16       0.1693
     22  C         -4.1720  -21.3560   -6.1180 C.2    16  LYS16       0.2592
     23  O         -3.0280  -21.6820   -6.3860 O.2    16  LYS16      -0.2718
     24  CB        -6.0420  -22.8410   -6.8710 C.3    16  LYS16       0.0285
     25  CG        -7.0860  -23.9340   -6.6030 C.3    16  LYS16       0.0035
     26  CD        -7.8010  -24.3380   -7.9290 C.3    16  LYS16       0.0206
     27  CE        -8.5810  -23.2050   -8.6230 C.3    16  LYS16       0.1093
     28  NZ        -9.6490  -22.7690   -7.7380 N.3    16  LYS16      -0.1314
     29  N         -4.6090  -20.1160   -6.2710 N.am   17  THR17      -0.1953
     30  CA        -3.6780  -19.0570   -6.6460 C.3    17  THR17       0.1897
     31  C         -2.5730  -18.8180   -5.5410 C.2    17  THR17       0.2313
     32  O         -1.4140  -18.6350   -5.8660 O.2    17  THR17      -0.2863
     33  CB        -4.4370  -17.7370   -6.9570 C.3    17  THR17       0.1794
     34  OG1       -5.2750  -17.9830   -8.0780 O.3    17  THR17      -0.2208
     35  CG2       -3.4350  -16.6540   -7.4220 C.3    17  THR17       0.0378
     36  N         -9.7370  -11.0200  -16.4430 N.3    42  ASP42      -0.1239
     37  CA        -9.7280  -11.3720  -15.0050 C.3    42  ASP42       0.1674
     38  C         -9.5990  -10.1690  -14.0430 C.2    42  ASP42       0.2266
     39  O         -8.6820   -9.3420  -14.1750 O.2    42  ASP42      -0.2867
     40  CB        -8.5870  -12.3910  -14.7420 C.3    42  ASP42       0.1410
     41  CG        -8.5390  -12.8820  -13.3420 C.2    42  ASP42       0.3668
     42  OD1       -9.5710  -13.0770  -12.7330 O.co2  42  ASP42      -0.2456
     43  OD2       -7.4560  -13.0700  -12.8270 O.co2  42  ASP42      -0.2456
     44  N         -2.0920  -18.6650  -14.2130 N.3    69  ASP69      -0.1225
     45  CA        -3.2090  -18.5910  -13.2600 C.3    69  ASP69       0.1805
     46  C         -4.5790  -18.5880  -14.0300 C.2    69  ASP69       0.2597
     47  O         -4.6790  -18.0420  -15.0830 O.2    69  ASP69      -0.2718
     48  CB        -3.0790  -17.3430  -12.4360 C.3    69  ASP69       0.1424
     49  CG        -4.0460  -17.2930  -11.2470 C.2    69  ASP69       0.3668
     50  OD1       -4.2590  -18.2930  -10.4690 O.co2  69  ASP69      -0.2456
     51  OD2       -4.6190  -16.2290  -11.0620 O.co2  69  ASP69      -0.2456
     52  N         -5.6050  -19.2090  -13.4600 N.am   70  GLU70      -0.1979
     53  CA        -6.9390  -19.3370  -14.1330 C.3    70  GLU70       0.1602
     54  C         -6.8250  -20.0500  -15.5060 C.2    70  GLU70       0.2287
     55  O         -7.3640  -19.6290  -16.4950 O.2    70  GLU70      -0.2864
     56  CB        -7.5510  -17.9870  -14.3140 C.3    70  GLU70       0.0415
     57  CG        -7.5550  -17.1860  -13.0370 C.3    70  GLU70       0.1163
     58  CD        -8.8270  -17.3510  -12.2850 C.2    70  GLU70       0.3649
     59  OE1       -9.4190  -18.4600  -12.3090 O.co2  70  GLU70      -0.2457
     60  OE2       -9.2190  -16.3520  -11.6950 O.co2  70  GLU70      -0.2457
     61  N         -8.2270  -22.4650  -16.8190 N.3    72  GLN72      -0.1231
     62  CA        -9.4550  -22.8220  -17.4920 C.3    72  GLN72       0.1698
     63  C         -9.9580  -21.7500  -18.4940 C.2    72  GLN72       0.2592
     64  O        -10.7690  -22.0600  -19.2910 O.2    72  GLN72      -0.2718
     65  CB       -10.5460  -23.1590  -16.5100 C.3    72  GLN72       0.0381
     66  CG       -11.2400  -21.9920  -15.8310 C.3    72  GLN72       0.0905
     67  CD       -10.4270  -21.3600  -14.7300 C.2    72  GLN72       0.2608
     68  OE1       -9.3890  -21.8690  -14.3360 O.2    72  GLN72      -0.2717
     69  NE2      -10.8840  -20.2500  -14.2470 N.am   72  GLN72      -0.0878
     70  N         -9.5050  -20.5010  -18.4110 N.am   73  PHE73      -0.1976
     71  CA        -9.8860  -19.4710  -19.3580 C.3    73  PHE73       0.1639
     72  C         -9.0710  -19.4980  -20.6530 C.2    73  PHE73       0.2290
     73  O         -9.3750  -18.7880  -21.5630 O.2    73  PHE73      -0.2864
     74  CB        -9.7080  -18.0710  -18.6930 C.3    73  PHE73       0.0560
     75  CG       -10.7100  -17.7620  -17.5850 C.ar   73  PHE73      -0.0200
     76  CD1      -11.9990  -18.2710  -17.6120 C.ar   73  PHE73      -0.0042
     77  CD2      -10.3450  -16.9620  -16.5260 C.ar   73  PHE73      -0.0042
     78  CE1      -12.8930  -17.9430  -16.6020 C.ar   73  PHE73      -0.0003
     79  CE2      -11.2360  -16.6390  -15.5240 C.ar   73  PHE73      -0.0003
     80  CZ       -12.5170  -17.1000  -15.6050 C.ar   73  PHE73      -0.0000
     81  N         -2.5900  -23.1860  -12.1810 N.3    94  SER94      -0.1202
     82  CA        -3.7200  -23.1640  -11.2670 C.3    94  SER94       0.2020
     83  C         -4.9620  -23.0980  -12.1430 C.2    94  SER94       0.2619
     84  O         -5.0300  -22.2270  -12.9850 O.2    94  SER94      -0.2717
     85  CB        -3.6110  -21.8350  -10.4820 C.3    94  SER94       0.2103
     86  OG        -4.6570  -21.6430   -9.6530 O.3    94  SER94      -0.2182
     87  N         -5.9750  -23.9060  -11.8650 N.am   95  ALA95      -0.1965
     88  CA        -7.1910  -23.9430  -12.6790 C.3    95  ALA95       0.1728
     89  C         -8.3110  -24.6030  -11.9990 C.2    95  ALA95       0.2616
     90  O         -8.1030  -25.4590  -11.1230 O.2    95  ALA95      -0.2715
     91  CB        -6.9150  -24.6100  -13.9470 C.3    95  ALA95       0.0334
     92  N         -9.5360  -24.1520  -12.2990 N.am   96  LEU96      -0.1977
     93  CA       -10.7250  -24.9530  -11.9860 C.3    96  LEU96       0.1596
     94  C        -10.7210  -26.2250  -12.8690 C.2    96  LEU96       0.2287
     95  O        -10.4050  -26.1610  -14.0360 O.2    96  LEU96      -0.2864
     96  CB       -11.9870  -24.2180  -12.2560 C.3    96  LEU96       0.0297
     97  CG       -12.2090  -23.0120  -11.3850 C.3    96  LEU96       0.0022
     98  CD1      -13.3660  -22.2310  -11.9840 C.3    96  LEU96       0.0001
     99  CD2      -12.5390  -23.4210   -9.9560 C.3    96  LEU96       0.0001
    100  N        -13.5950  -28.2000  -12.6870 N.3    98  ALA98      -0.1231
    101  CA       -15.0340  -28.2500  -12.9370 C.3    98  ALA98       0.1694
    102  C        -15.6600  -26.8680  -12.9870 C.2    98  ALA98       0.2592
    103  O        -15.3200  -25.9800  -12.1490 O.2    98  ALA98      -0.2718
    104  CB       -15.6950  -29.0210  -11.8110 C.3    98  ALA98       0.0304
    105  N        -16.6970  -26.7430  -13.8350 N.am   99  ASP99      -0.1960
    106  CA       -17.4900  -25.4900  -13.9180 C.3    99  ASP99       0.1840
    107  C        -18.5720  -25.5960  -12.8980 C.2    99  ASP99       0.2622
    108  O        -18.5950  -26.5510  -12.1050 O.2    99  ASP99      -0.2715
    109  CB       -17.9910  -25.2310  -15.3060 C.3    99  ASP99       0.1450
    110  CG       -19.0730  -26.2910  -15.7870 C.2    99  ASP99       0.3671
    111  OD1      -19.7260  -27.0450  -14.9800 O.co2  99  ASP99      -0.2456
    112  OD2      -19.1950  -26.3500  -17.0170 O.co2  99  ASP99      -0.2456
    113  N        -19.4180  -24.6010  -12.8500 N.am  100  TYR100     -0.1974
    114  CA       -20.5240  -24.5390  -11.8810 C.3   100  TYR100      0.1639
    115  C        -21.6050  -25.5950  -12.0190 C.2   100  TYR100      0.2290
    116  O        -22.4150  -25.7230  -11.1240 O.2   100  TYR100     -0.2864
    117  CB       -21.2280  -23.1910  -11.9300 C.3   100  TYR100      0.0560
    118  CG       -22.1270  -22.9830  -13.1120 C.ar  100  TYR100     -0.0198
    119  CD1      -21.5970  -22.7410  -14.3500 C.ar  100  TYR100     -0.0009
    120  CD2      -23.5290  -22.9270  -12.9750 C.ar  100  TYR100     -0.0009
    121  CE1      -22.3860  -22.5010  -15.4400 C.ar  100  TYR100      0.0417
    122  CE2      -24.3500  -22.7030  -14.0860 C.ar  100  TYR100      0.0417
    123  CZ       -23.7610  -22.4930  -15.3030 C.ar  100  TYR100      0.1957
    124  OH       -24.4420  -22.2850  -16.4380 O.3   100  TYR100     -0.2866
    125  N        -13.7050  -28.7540  -17.3890 N.3   105  PHE105     -0.1241
    126  CA       -13.0330  -27.9900  -18.4360 C.3   105  PHE105      0.1605
    127  C        -12.1110  -28.9170  -19.1290 C.2   105  PHE105      0.2264
    128  O        -11.1080  -29.4060  -18.5630 O.2   105  PHE105     -0.2867
    129  CB       -12.2950  -26.7740  -17.8660 C.3   105  PHE105      0.0534
    130  CG       -13.2130  -25.7450  -17.2760 C.ar  105  PHE105     -0.0203
    131  CD1      -13.8360  -24.8170  -18.1010 C.ar  105  PHE105     -0.0042
    132  CD2      -13.3890  -25.6210  -15.9160 C.ar  105  PHE105     -0.0042
    133  CE1      -14.6640  -23.8410  -17.5810 C.ar  105  PHE105     -0.0003
    134  CE2      -14.2210  -24.6210  -15.3780 C.ar  105  PHE105     -0.0003
    135  CZ       -14.8390  -23.7280  -16.2100 C.ar  105  PHE105     -0.0000
    136  N        -18.0460  -25.7450   -6.8970 N.3   136  THR136     -0.1218
    137  CA       -18.3530  -24.3290   -6.9470 C.3   136  THR136      0.1862
    138  C        -19.8220  -24.2230   -7.4150 C.2   136  THR136      0.2287
    139  O        -20.1770  -24.8020   -8.4280 O.2   136  THR136     -0.2866
    140  CB       -17.5090  -23.5930   -7.9470 C.3   136  THR136      0.1770
    141  OG1      -16.1350  -23.9370   -7.7700 O.3   136  THR136     -0.2211
    142  CG2      -17.7250  -22.1420   -7.8100 C.3   136  THR136      0.0375
    143  N        -22.7720  -21.5450   -8.4850 N.3   138  ARG138     -0.1245
    144  CA       -23.0070  -20.1490   -8.9200 C.3   138  ARG138      0.1563
    145  C        -24.2750  -19.5820   -8.3000 C.2   138  ARG138      0.2260
    146  O        -25.2910  -20.1910   -8.3670 O.2   138  ARG138     -0.2867
    147  CB       -23.1250  -20.0770  -10.4020 C.3   138  ARG138      0.0307
    148  CG       -23.4510  -18.6860  -10.9150 C.3   138  ARG138      0.0489
    149  CD       -23.5600  -18.7540  -12.4120 C.3   138  ARG138      0.2205
    150  NE       -22.2700  -18.8860  -13.0790 N.pl3 138  ARG138     -0.0865
    151  CZ       -22.0890  -19.0870  -14.3800 C.cat 138  ARG138      0.5346
    152  NH1      -23.1250  -19.2040  -15.2190 N.pl3 138  ARG138      0.1354
    153  NH2      -20.8580  -19.1530  -14.8670 N.pl3 138  ARG138      0.1354
    154  N        -21.2450  -20.0140  -19.5810 N.3   145  ARG145     -0.1231
    155  CA       -20.3060  -20.9090  -18.9280 C.3   145  ARG145      0.1694
    156  C        -19.1820  -20.0770  -18.2400 C.2   145  ARG145      0.2592
    157  O        -18.9260  -20.2250  -17.0820 O.2   145  ARG145     -0.2718
    158  CB       -19.6690  -21.8750  -19.8760 C.3   145  ARG145      0.0321
    159  CG       -19.1050  -23.0380  -19.1220 C.3   145  ARG145      0.0489
    160  CD       -18.1440  -23.9150  -19.8930 C.3   145  ARG145      0.2205
    161  NE       -17.9700  -25.1410  -19.1350 N.pl3 145  ARG145     -0.0865
    162  CZ       -17.1640  -26.1160  -19.4770 C.cat 145  ARG145      0.5346
    163  NH1      -16.4670  -25.9830  -20.5830 N.pl3 145  ARG145      0.1354
    164  NH2      -17.0450  -27.2260  -18.7250 N.pl3 145  ARG145      0.1354
    165  N        -18.6380  -19.1420  -18.9740 N.am  146  LYS146     -0.1966
    166  CA       -17.7310  -18.1980  -18.4980 C.3   146  LYS146      0.1728
    167  C        -18.4070  -16.9230  -17.9860 C.2   146  LYS146      0.2616
    168  O        -19.1720  -16.3090  -18.6670 O.2   146  LYS146     -0.2715
    169  CB       -16.7790  -17.8540  -19.5970 C.3   146  LYS146      0.0311
    170  CG       -15.7850  -16.8410  -19.1390 C.3   146  LYS146      0.0038
    171  CD       -14.7420  -16.6860  -20.1940 C.3   146  LYS146      0.0206
    172  CE       -13.7550  -15.6560  -19.7520 C.3   146  LYS146      0.1093
    173  NZ       -13.5170  -14.6430  -20.8040 N.3   146  LYS146     -0.1314
    174  N        -18.1130  -16.5710  -16.7430 N.am  147  LEU147     -0.1963
    175  CA       -18.7030  -15.4430  -16.0410 C.3   147  LEU147      0.1728
    176  C        -17.7670  -15.1050  -14.8970 C.2   147  LEU147      0.2616
    177  O        -17.7780  -15.8340  -13.8580 O.2   147  LEU147     -0.2715
    178  CB       -20.0780  -15.8220  -15.4780 C.3   147  LEU147      0.0311
    179  CG       -20.7930  -14.6830  -14.7280 C.3   147  LEU147      0.0022
    180  CD1      -21.4160  -13.7240  -15.6970 C.3   147  LEU147      0.0001
    181  CD2      -21.8590  -15.2430  -13.8320 C.3   147  LEU147      0.0001
    182  N        -16.9410  -14.0810  -15.1060 N.am  148  VAL148     -0.1963
    183  CA       -15.8940  -13.7600  -14.1770 C.3   148  VAL148      0.1727
    184  C        -16.4380  -13.1040  -12.9540 C.2   148  VAL148      0.2616
    185  O        -17.2090  -12.2010  -13.0660 O.2   148  VAL148     -0.2715
    186  CB       -14.7430  -12.9010  -14.7370 C.3   148  VAL148      0.0290
    187  CG1      -14.2850  -13.4330  -16.0660 C.3   148  VAL148      0.0023
    188  CG2      -15.0760  -11.4380  -14.8260 C.3   148  VAL148      0.0023
    189  N        -15.9720  -13.5170  -11.7830 N.am  149  GLY149     -0.1955
    190  CA       -16.4190  -12.8980  -10.5510 C.3   149  GLY149      0.1869
    191  C        -15.9110  -13.6340   -9.3630 C.2   149  GLY149      0.2309
    192  O        -15.2840  -14.6610   -9.4850 O.2   149  GLY149     -0.2863
    193  N        -20.3650  -16.5400   -6.6960 N.3   154  TYR154     -0.1241
    194  CA       -20.0740  -17.9760   -6.4720 C.3   154  TYR154      0.1605
    195  C        -19.8060  -18.2640   -5.0280 C.2   154  TYR154      0.2264
    196  O        -19.3980  -17.3970   -4.2590 O.2   154  TYR154     -0.2867
    197  CB       -18.8320  -18.3600   -7.2180 C.3   154  TYR154      0.0534
    198  CG       -18.8820  -18.2590   -8.7130 C.ar  154  TYR154     -0.0201
    199  CD1      -19.3670  -19.2880   -9.4560 C.ar  154  TYR154     -0.0009
    200  CD2      -18.4640  -17.1080   -9.3630 C.ar  154  TYR154     -0.0009
    201  CE1      -19.4320  -19.1730  -10.8520 C.ar  154  TYR154      0.0417
    202  CE2      -18.4760  -16.9990  -10.7400 C.ar  154  TYR154      0.0417
    203  CZ       -19.0130  -18.0440  -11.4760 C.ar  154  TYR154      0.1957
    204  OH       -18.9870  -17.9220  -12.8160 O.3   154  TYR154     -0.2866
@<TRIPOS>BOND
     1    73    72    2
     2   173   172    1
     3    72    71    1
     4   163   162    1
     5   171   172    1
     6   171   170    1
     7   160   161    1
     8   160   159    1
     9   158   159    1
    10   158   155    1
    11   169   170    1
    12   169   166    1
    13   154   155    1
    14   162   161    2
    15   162   164    1
    16    71    74    1
    17    71    70    1
    18    64    63    2
    19   127   128    2
    20   127   126    1
    21   165   166    1
    22   165   156   am
    23   155   156    1
    24    74    75    1
    25   168   167    2
    26   166   167    1
    27    63    70   am
    28    63    62    1
    29   126   129    1
    30   126   125    1
    31   156   157    2
    32   131   133   ar
    33   131   130   ar
    34   167   174   am
    35   129   130    1
    36    76    75   ar
    37    76    78   ar
    38    75    77   ar
    39   133   135   ar
    40    62    61    1
    41    62    65    1
    42   130   132   ar
    43   112   110   ar
    44   174   175    1
    45    78    80   ar
    46    77    79   ar
    47    65    66    1
    48    55    54    2
    49    36    37    1
    50   124   123    1
    51   135   134   ar
    52   187   186    1
    53   175   178    1
    54   175   176    1
    55   132   134   ar
    56    66    67    1
    57   110   109    1
    58   110   111   ar
    59   180   179    1
    60    80    79   ar
    61    54    53    1
    62   178   179    1
    63   121   123   ar
    64   121   119   ar
    65   109   106    1
    66   123   122   ar
    67   152   151    1
    68   182   176   am
    69   182   183    1
    70    47    46    2
    71    37    40    1
    72    37    38    1
    73   176   177    2
    74   153   151    1
    75   188   186    1
    76    40    41    1
    77   186   183    1
    78    67    68    2
    79    67    69   am
    80   179   181    1
    81   151   150    2
    82   119   118   ar
    83    56    53    1
    84    56    57    1
    85    44    45    1
    86   183   184    1
    87    39    38    2
    88    53    52    1
    89   122   120   ar
    90    95    94    2
    91    46    52   am
    92    46    45    1
    93    91    88    1
    94   106   105    1
    95   106   107    1
    96   105   102   am
    97    41    43   ar
    98    41    42   ar
    99    45    48    1
   100   118   120   ar
   101   118   117    1
   102   150   149    1
   103   185   184    2
   104    57    58    1
   105   102   101    1
   106   102   103    2
   107    84    83    2
   108   184   189   am
   109   101   100    1
   110   101   104    1
   111   107   113   am
   112   107   108    2
   113    94    93    1
   114   113   114    1
   115   204   203    1
   116    88    89    1
   117    88    87    1
   118    48    49    1
   119   149   148    1
   120    59    58   ar
   121    92    89   am
   122    92    93    1
   123    58    60   ar
   124    96    93    1
   125    96    97    1
   126    81    82    1
   127    83    87   am
   128    83    82    1
   129   115   114    1
   130   115   116    2
   131    89    90    2
   132    98    97    1
   133   117   114    1
   134   189   190    1
   135   203   201   ar
   136   203   202   ar
   137    97    99    1
   138    82    85    1
   139    49    51   ar
   140    49    50   ar
   141   148   147    1
   142   201   199   ar
   143   202   200   ar
   144   190   191    1
   145    85    86    1
   146   147   144    1
   147   192   191    2
   148   199   198   ar
   149   200   198   ar
   150   144   143    1
   151   144   145    1
   152   198   197    1
   153    27    26    1
   154    27    28    1
   155     7     6    1
   156     7     8    1
   157   139   138    2
   158   146   145    2
   159    34    33    1
   160     6     5    1
   161   140   142    1
   162   140   141    1
   163   140   137    1
   164    26    25    1
   165    35    33    1
   166   138   137    1
   167   197   194    1
   168    33    30    1
   169   137   136    1
   170    24    25    1
   171    24    21    1
   172   193   194    1
   173    30    29    1
   174    30    31    1
   175   194   195    1
   176     5     2    1
   177     1     2    1
   178    23    22    2
   179    29    22   am
   180    22    21    1
   181     2     3    1
   182    32    31    2
   183    21    20    1
   184   195   196    2
   185     3     9   am
   186     3     4    2
   187     9    10    1
   188    19    18   ar
   189    19    17   ar
   190    18    16   ar
   191    17    15   ar
   192    16    14   ar
   193    15    14   ar
   194    10    11    1
   195    10    13    1
   196    14    13    1
   197    11    12    2
