@<TRIPOS>MOLECULE
tmp/5fv0A00.pdb
 173 165 0 0 0
SMALL
GASTEIGER

@<TRIPOS>ATOM
      1  N         49.1690   58.5480   39.1350 N.3    31  SER31      -0.1202
      2  CA        48.7900   59.4260   40.2460 C.3    31  SER31       0.2020
      3  C         47.6080   58.8510   41.0260 C.2    31  SER31       0.2619
      4  O         46.9920   57.8670   40.6080 O.2    31  SER31      -0.2717
      5  CB        48.4520   60.8310   39.7350 C.3    31  SER31       0.2103
      6  OG        49.6200   61.5120   39.3110 O.3    31  SER31      -0.2182
      7  N         47.3010   59.4740   42.1610 N.am   32  ALA32      -0.1965
      8  CA        46.2230   59.0160   43.0350 C.3    32  ALA32       0.1728
      9  C         44.8560   59.1590   42.3670 C.2    32  ALA32       0.2617
     10  O         44.5750   60.1650   41.7160 O.2    32  ALA32      -0.2715
     11  CB        46.2480   59.7820   44.3490 C.3    32  ALA32       0.0334
     12  N         44.0170   58.1420   42.5410 N.am   33  GLY33      -0.1940
     13  CA        42.6720   58.1240   41.9750 C.3    33  GLY33       0.2014
     14  C         42.6220   57.9400   40.4690 C.2    33  GLY33       0.2639
     15  O         41.7830   58.5470   39.8010 O.2    33  GLY33      -0.2714
     16  N         43.5120   57.1060   39.9320 N.am   34  TYR34      -0.1959
     17  CA        43.5340   56.8100   38.4940 C.3    34  TYR34       0.1771
     18  C         43.6230   55.3090   38.1720 C.2    34  TYR34       0.2620
     19  O         43.9960   54.9300   37.0600 O.2    34  TYR34      -0.2715
     20  CB        44.6710   57.5850   37.8160 C.3    34  TYR34       0.0574
     21  CG        44.3750   59.0610   37.6550 C.ar   34  TYR34      -0.0198
     22  CD1       43.5580   59.5160   36.6240 C.ar   34  TYR34      -0.0009
     23  CD2       44.9070   60.0010   38.5340 C.ar   34  TYR34      -0.0009
     24  CE1       43.2800   60.8650   36.4710 C.ar   34  TYR34       0.0417
     25  CE2       44.6360   61.3520   38.3890 C.ar   34  TYR34       0.0417
     26  CZ        43.8220   61.7790   37.3560 C.ar   34  TYR34       0.1957
     27  OH        43.5490   63.1190   37.2070 O.3    34  TYR34      -0.2866
     28  N         43.2710   54.4620   39.1380 N.am   35  GLY35      -0.1940
     29  CA        43.0930   53.0310   38.8920 C.3    35  GLY35       0.2014
     30  C         44.3340   52.1630   39.0080 C.2    35  GLY35       0.2639
     31  O         44.5660   51.2980   38.1630 O.2    35  GLY35      -0.2714
     32  N         45.1250   52.3810   40.0540 N.am   36  LYS36      -0.1963
     33  CA        46.2730   51.5180   40.3430 C.3    36  LYS36       0.1728
     34  C         45.8260   50.2440   41.0570 C.2    36  LYS36       0.2617
     35  O         46.2040   49.1390   40.6630 O.2    36  LYS36      -0.2715
     36  CB        47.3130   52.2500   41.1940 C.3    36  LYS36       0.0311
     37  CG        48.0130   53.3910   40.4740 C.3    36  LYS36       0.0038
     38  CD        49.3070   53.7940   41.1690 C.3    36  LYS36       0.0206
     39  CE        49.0680   54.4160   42.5380 C.3    36  LYS36       0.1093
     40  NZ        48.3250   55.7040   42.4620 N.3    36  LYS36      -0.1314
     41  N         45.0250   50.4080   42.1080 N.am   37  SER37      -0.1936
     42  CA        44.5340   49.2770   42.9010 C.3    37  SER37       0.2055
     43  C         43.4930   48.4360   42.1610 C.2    37  SER37       0.2644
     44  O         43.3570   47.2420   42.4300 O.2    37  SER37      -0.2714
     45  CB        43.9520   49.7670   44.2300 C.3    37  SER37       0.2130
     46  OG        44.9700   50.2910   45.0640 O.3    37  SER37      -0.2179
     47  N         42.7540   49.0570   41.2430 N.am   38  THR38      -0.1936
     48  CA        41.7900   48.3350   40.4130 C.3    38  THR38       0.2028
     49  C         42.5150   47.4230   39.4250 C.2    38  THR38       0.2642
     50  O         42.0880   46.2920   39.1890 O.2    38  THR38      -0.2714
     51  CB        40.8800   49.2990   39.6290 C.3    38  THR38       0.1808
     52  OG1       40.3490   50.2910   40.5150 O.3    38  THR38      -0.2208
     53  CG2       39.7300   48.5490   38.9650 C.3    38  THR38       0.0379
     54  N         43.6050   47.9270   38.8490 N.am   39  THR39      -0.1950
     55  CA        44.4590   47.1340   37.9630 C.3    39  THR39       0.1897
     56  C         45.0790   45.9580   38.7170 C.2    39  THR39       0.2313
     57  O         45.1730   44.8520   38.1840 O.2    39  THR39      -0.2863
     58  CB        45.5840   47.9930   37.3500 C.3    39  THR39       0.1794
     59  OG1       45.0150   49.1340   36.6960 O.3    39  THR39      -0.2208
     60  CG2       46.3990   47.1890   36.3410 C.3    39  THR39       0.0378
     61  N         43.7270   44.5410   41.4050 N.3    41  MET41      -0.1245
     62  CA        42.6110   43.6450   41.7020 C.3    41  MET41       0.1570
     63  C         42.1410   42.8650   40.4740 C.2    41  MET41       0.2261
     64  O         41.7290   41.7100   40.5910 O.2    41  MET41      -0.2867
     65  CB        41.4440   44.4450   42.2820 C.3    41  MET41       0.0387
     66  CG        40.2200   43.6090   42.6150 C.3    41  MET41       0.0595
     67  SD        38.9790   44.5460   43.5270 S.3    41  MET41      -0.1393
     68  CE        39.8750   44.9110   45.0350 C.3    41  MET41       0.0692
     69  N         48.3350   50.5910   51.0820 N.3    64  GLY64      -0.1210
     70  CA        47.6070   51.7450   50.5620 C.3    64  GLY64       0.1956
     71  C         46.5300   52.2170   51.5190 C.2    64  GLY64       0.2611
     72  O         46.8160   52.9340   52.4790 O.2    64  GLY64      -0.2717
     73  N         45.2890   51.8140   51.2550 N.am   65  ASN65      -0.1974
     74  CA        44.1500   52.1860   52.0960 C.3    65  ASN65       0.1688
     75  C         43.0560   51.1130   52.0810 C.2    65  ASN65       0.2292
     76  O         41.8840   51.4010   51.8290 O.2    65  ASN65      -0.2864
     77  CB        43.5950   53.5570   51.6750 C.3    65  ASN65       0.1181
     78  CG        43.2070   53.6170   50.2050 C.2    65  ASN65       0.2629
     79  OD1       43.5880   52.7580   49.4090 O.2    65  ASN65      -0.2716
     80  ND2       42.4450   54.6420   49.8390 N.am   65  ASN65      -0.0877
     81  N         42.4720   48.7640   49.9640 N.3    67  ALA67      -0.1245
     82  CA        41.8790   48.5700   48.6400 C.3    67  ALA67       0.1562
     83  C         41.8550   47.0930   48.2500 C.2    67  ALA67       0.2260
     84  O         40.9870   46.6620   47.4890 O.2    67  ALA67      -0.2867
     85  CB        42.6380   49.3760   47.5980 C.3    67  ALA67       0.0290
     86  N         50.7400   46.7950   47.2100 N.3   134  ASP134     -0.1225
     87  CA        50.0360   48.0500   46.9670 C.3   134  ASP134      0.1805
     88  C         50.7550   49.1850   47.6950 C.2   134  ASP134      0.2597
     89  O         51.0970   49.0490   48.8700 O.2   134  ASP134     -0.2718
     90  CB        48.5800   47.9540   47.4340 C.3   134  ASP134      0.1424
     91  CG        47.6460   48.8600   46.6440 C.2   134  ASP134      0.3668
     92  OD1       48.0990   49.9120   46.1450 O.co2 134  ASP134     -0.2456
     93  OD2       46.4520   48.5160   46.5220 O.co2 134  ASP134     -0.2456
     94  N         50.9770   50.2920   46.9860 N.am  135  ASN135     -0.1974
     95  CA        51.6990   51.4570   47.5130 C.3   135  ASN135      0.1688
     96  C         53.1660   51.1450   47.8340 C.2   135  ASN135      0.2292
     97  O         53.4960   50.7260   48.9440 O.2   135  ASN135     -0.2864
     98  CB        50.9790   52.0430   48.7410 C.3   135  ASN135      0.1181
     99  CG        51.5610   53.3750   49.1910 C.2   135  ASN135      0.2629
    100  OD1       52.2880   54.0380   48.4510 O.2   135  ASN135     -0.2716
    101  ND2       51.2350   53.7740   50.4150 N.am  135  ASN135     -0.0877
    102  N         52.3150   48.6910   42.8520 N.3   167  THR167     -0.1218
    103  CA        51.8010   49.9960   42.4470 C.3   167  THR167      0.1862
    104  C         52.6820   51.0810   43.0580 C.2   167  THR167      0.2287
    105  O         53.1500   50.9390   44.1890 O.2   167  THR167     -0.2866
    106  CB        50.3490   50.2140   42.9160 C.3   167  THR167      0.1770
    107  OG1       50.2800   50.1200   44.3430 O.3   167  THR167     -0.2211
    108  CG2       49.4100   49.1860   42.2910 C.3   167  THR167      0.0375
    109  N         49.3750   54.5350   34.1770 N.3   188  HIS188     -0.1241
    110  CA        48.1910   55.3970   34.2270 C.3   188  HIS188      0.1621
    111  C         48.6020   56.8720   34.1960 C.2   188  HIS188      0.2264
    112  O         49.7920   57.1920   34.1980 O.2   188  HIS188     -0.2867
    113  CB        47.3610   55.1030   35.4830 C.3   188  HIS188      0.0745
    114  CG        46.8120   53.7120   35.5340 C.ar  188  HIS188      0.0817
    115  ND1       45.5840   53.3770   35.0040 N.ar  188  HIS188     -0.2268
    116  CD2       47.3190   52.5710   36.0570 C.ar  188  HIS188      0.1154
    117  CE1       45.3610   52.0890   35.1940 C.ar  188  HIS188      0.1986
    118  NE2       46.3980   51.5770   35.8320 N.ar  188  HIS188     -0.2212
    119  N         42.5820   50.7110   27.8950 N.3   225  GLN225     -0.1231
    120  CA        41.6200   50.8600   28.9830 C.3   225  GLN225      0.1698
    121  C         41.5430   49.5440   29.7510 C.2   225  GLN225      0.2592
    122  O         41.0520   48.5430   29.2280 O.2   225  GLN225     -0.2718
    123  CB        40.2340   51.2500   28.4480 C.3   225  GLN225      0.0381
    124  CG        39.7850   52.6480   28.8480 C.3   225  GLN225      0.0905
    125  CD        39.4910   52.7740   30.3340 C.2   225  GLN225      0.2608
    126  OE1       39.4920   51.7850   31.0670 O.2   225  GLN225     -0.2717
    127  NE2       39.2390   53.9970   30.7860 N.am  225  GLN225     -0.0878
    128  N         42.0350   49.5520   30.9890 N.am  226  ILE226     -0.1980
    129  CA        42.0670   48.3460   31.8160 C.3   226  ILE226      0.1595
    130  C         40.6470   47.9940   32.2580 C.2   226  ILE226      0.2287
    131  O         39.8960   48.8610   32.7090 O.2   226  ILE226     -0.2864
    132  CB        42.9970   48.5080   33.0470 C.3   226  ILE226      0.0276
    133  CG1       44.4670   48.3270   32.6440 C.3   226  ILE226      0.0022
    134  CG2       42.6700   47.4840   34.1300 C.3   226  ILE226      0.0022
    135  CD1       44.9930   49.3620   31.6750 C.3   226  ILE226      0.0001
    136  N         37.5670   46.4630   34.4750 N.3   228  LEU228     -0.1231
    137  CA        37.2460   46.3580   35.8940 C.3   228  LEU228      0.1678
    138  C         37.2470   44.8800   36.2940 C.2   228  LEU228      0.2434
    139  O         37.0190   44.0120   35.4490 O.2   228  LEU228     -0.2733
    140  CB        35.8830   46.9880   36.1890 C.3   228  LEU228      0.0284
    141  CG        35.7830   48.5030   35.9870 C.3   228  LEU228      0.0019
    142  CD1       34.3320   48.9510   36.0660 C.3   228  LEU228      0.0001
    143  CD2       36.6350   49.2510   37.0040 C.3   228  LEU228      0.0001
    144  N         37.5110   44.5870   37.5810 N.am  229  PRO229     -0.2729
    145  CA        37.5320   43.1930   38.0380 C.3   229  PRO229      0.1401
    146  C         36.1700   42.5010   37.9310 C.2   229  PRO229      0.2269
    147  O         36.1110   41.2950   37.6880 O.2   229  PRO229     -0.2865
    148  CB        37.9720   43.3070   39.5020 C.3   229  PRO229      0.0296
    149  CG        37.6240   44.6970   39.9070 C.3   229  PRO229      0.0237
    150  CD        37.8000   45.5310   38.6760 C.3   229  PRO229      0.0939
    151  N         31.1230   52.1120   42.0640 N.3   235  ASP235     -0.1239
    152  CA        32.1430   51.4470   42.8810 C.3   235  ASP235      0.1674
    153  C         31.5690   50.3650   43.8000 C.2   235  ASP235      0.2266
    154  O         32.2430   49.3750   44.0880 O.2   235  ASP235     -0.2867
    155  CB        32.9070   52.4750   43.7260 C.3   235  ASP235      0.1410
    156  CG        33.6080   53.5300   42.8820 C.2   235  ASP235      0.3668
    157  OD1       33.4390   53.5280   41.6440 O.co2 235  ASP235     -0.2456
    158  OD2       34.3210   54.3730   43.4650 O.co2 235  ASP235     -0.2456
    159  N         30.4710   47.1360   41.6850 N.3   238  VAL238     -0.1231
    160  CA        31.6780   46.4030   41.2980 C.3   238  VAL238      0.1692
    161  C         32.2250   45.6270   42.4940 C.2   238  VAL238      0.2591
    162  O         32.5190   44.4380   42.3830 O.2   238  VAL238     -0.2718
    163  CB        32.7690   47.3480   40.7390 C.3   238  VAL238      0.0266
    164  CG1       34.0950   46.6150   40.5610 C.3   238  VAL238      0.0020
    165  CG2       32.3230   47.9550   39.4150 C.3   238  VAL238      0.0020
    166  N         32.3480   46.3060   43.6320 N.am  239  LEU239     -0.1980
    167  CA        32.8360   45.6830   44.8650 C.3   239  LEU239      0.1596
    168  C         31.9480   44.5170   45.3100 C.2   239  LEU239      0.2287
    169  O         32.4470   43.5230   45.8380 O.2   239  LEU239     -0.2864
    170  CB        32.9310   46.7270   45.9840 C.3   239  LEU239      0.0297
    171  CG        33.5510   46.2850   47.3150 C.3   239  LEU239      0.0022
    172  CD1       34.9940   45.8390   47.1280 C.3   239  LEU239      0.0001
    173  CD2       33.4660   47.4110   48.3340 C.3   239  LEU239      0.0001
@<TRIPOS>BOND
     1   119   120    1
     2   123   124    1
     3   123   120    1
     4   124   125    1
     5   120   121    1
     6   122   121    2
     7   121   128   am
     8   125   127   am
     9   125   126    2
    10   128   129    1
    11   135   133    1
    12   129   130    1
    13   129   132    1
    14   130   131    2
    15   133   132    1
    16   132   134    1
    17   109   110    1
    18   111   112    2
    19   111   110    1
    20   110   113    1
    21   136   137    1
    22   115   117   ar
    23   115   114   ar
    24   117   118   ar
    25   139   138    2
    26   113   114    1
    27   114   116   ar
    28   118   116   ar
    29   137   140    1
    30   137   138    1
    31   141   142    1
    32   141   140    1
    33   141   143    1
    34   138   144   am
    35    60    58    1
    36    24    22   ar
    37    24    26   ar
    38    22    21   ar
    39    59    58    1
    40    19    18    2
    41    27    26    1
    42    58    55    1
    43    26    25   ar
    44   144   145    1
    45   144   150    1
    46    21    20    1
    47    21    23   ar
    48   147   146    2
    49    20    17    1
    50   146   145    1
    51    55    56    1
    52    55    54    1
    53   145   148    1
    54    31    30    2
    55    18    17    1
    56    18    28   am
    57    57    56    2
    58    25    23   ar
    59    17    16    1
    60   150   149    1
    61    54    49   am
    62    29    30    1
    63    29    28    1
    64    53    51    1
    65    30    32   am
    66     1     2    1
    67    50    49    2
    68     6     5    1
    69   165   163    1
    70    49    48    1
    71   148   149    1
    72    51    48    1
    73    51    52    1
    74     5     2    1
    75    15    14    2
    76    16    14   am
    77    32    33    1
    78     2     3    1
    79    33    34    1
    80    33    36    1
    81    48    47    1
    82    14    13    1
    83    37    38    1
    84    37    36    1
    85    63    64    2
    86    63    62    1
    87   164   163    1
    88     4     3    2
    89    35    34    2
    90   163   160    1
    91     3     7   am
    92    34    41   am
    93    38    39    1
    94    47    43   am
    95   160   159    1
    96   160   161    1
    97    61    62    1
    98   157   156   ar
    99    62    65    1
   100    10     9    2
   101    13    12    1
   102   151   152    1
   103    41    42    1
   104     7     8    1
   105    43    44    2
   106    43    42    1
   107    65    66    1
   108   108   106    1
   109     9    12   am
   110     9     8    1
   111   162   161    2
   112   103   102    1
   113   103   106    1
   114   103   104    1
   115    40    39    1
   116   161   166   am
   117    66    67    1
   118   152   155    1
   119   152   153    1
   120   156   158   ar
   121   156   155    1
   122    42    45    1
   123   106   107    1
   124     8    11    1
   125   104   105    2
   126    67    68    1
   127   166   167    1
   128   153   154    2
   129    45    46    1
   130   167   168    1
   131   167   170    1
   132   168   169    2
   133   170   171    1
   134    92    91   ar
   135    93    91   ar
   136    91    90    1
   137    87    86    1
   138    87    90    1
   139    87    88    1
   140    94    95    1
   141    94    88   am
   142   172   171    1
   143   171   173    1
   144    84    83    2
   145    95    96    1
   146    95    98    1
   147    85    82    1
   148    88    89    2
   149    96    97    2
   150    83    82    1
   151   100    99    2
   152    82    81    1
   153    98    99    1
   154    99   101   am
   155    79    78    2
   156    80    78   am
   157    78    77    1
   158    70    69    1
   159    70    71    1
   160    73    71   am
   161    73    74    1
   162    71    72    2
   163    77    74    1
   164    76    75    2
   165    75    74    1
