@<TRIPOS>MOLECULE
tmp/5fv0B00.pdb
 142 138 0 0 0
SMALL
GASTEIGER

@<TRIPOS>ATOM
      1  N         54.6020   20.4520  110.9090 N.3    35  ALA35      -0.1231
      2  CA        53.5110   21.1790  110.2600 C.3    35  ALA35       0.1694
      3  C         52.2690   21.2610  111.1470 C.2    35  ALA35       0.2593
      4  O         51.9080   20.2950  111.8190 O.2    35  ALA35      -0.2718
      5  CB        53.1630   20.5290  108.9290 C.3    35  ALA35       0.0304
      6  N         51.6240   22.4240  111.1330 N.am   36  GLY36      -0.1942
      7  CA        50.4170   22.6670  111.9200 C.3    36  GLY36       0.2014
      8  C         50.6530   22.8000  113.4150 C.2    36  GLY36       0.2639
      9  O         49.8590   22.3010  114.2130 O.2    36  GLY36      -0.2714
     10  N         51.7400   23.4710  113.7970 N.am   37  TYR37      -0.1959
     11  CA        52.0580   23.6910  115.2130 C.3    37  TYR37       0.1771
     12  C         52.5540   25.1130  115.5230 C.2    37  TYR37       0.2620
     13  O         53.2630   25.3280  116.5090 O.2    37  TYR37      -0.2715
     14  CB        53.0740   22.6440  115.6920 C.3    37  TYR37       0.0574
     15  CG        52.4970   21.2490  115.7990 C.ar   37  TYR37      -0.0198
     16  CD1       51.6540   20.9040  116.8520 C.ar   37  TYR37      -0.0009
     17  CD2       52.7900   20.2750  114.8480 C.ar   37  TYR37      -0.0009
     18  CE1       51.1200   19.6300  116.9550 C.ar   37  TYR37       0.0417
     19  CE2       52.2610   18.9980  114.9420 C.ar   37  TYR37       0.0417
     20  CZ        51.4270   18.6800  115.9970 C.ar   37  TYR37       0.1957
     21  OH        50.8990   17.4140  116.0960 O.3    37  TYR37      -0.2866
     22  N         52.1720   26.0800  114.6900 N.am   38  GLY38      -0.1940
     23  CA        52.3890   27.4960  114.9890 C.3    38  GLY38       0.2014
     24  C         53.7500   28.0700  114.6390 C.2    38  GLY38       0.2639
     25  O         54.3440   28.7890  115.4420 O.2    38  GLY38      -0.2714
     26  N         54.2390   27.7670  113.4400 N.am   39  LYS39      -0.1963
     27  CA        55.4590   28.3920  112.9250 C.3    39  LYS39       0.1728
     28  C         55.1500   29.7750  112.3550 C.2    39  LYS39       0.2617
     29  O         55.8160   30.7540  112.6950 O.2    39  LYS39      -0.2715
     30  CB        56.1180   27.5180  111.8540 C.3    39  LYS39       0.0311
     31  CG        56.7670   26.2540  112.3980 C.3    39  LYS39       0.0038
     32  CD        57.7150   25.6180  111.3900 C.3    39  LYS39       0.0206
     33  CE        56.9860   25.0560  110.1770 C.3    39  LYS39       0.1093
     34  NZ        56.0400   23.9610  110.5300 N.3    39  LYS39      -0.1314
     35  N         54.1420   29.8450  111.4880 N.am   40  SER40      -0.1936
     36  CA        53.7030   31.1140  110.9000 C.3    40  SER40       0.2055
     37  C         53.0360   32.0220  111.9320 C.2    40  SER40       0.2644
     38  O         53.1420   33.2470  111.8450 O.2    40  SER40      -0.2714
     39  CB        52.7400   30.8710  109.7350 C.3    40  SER40       0.2130
     40  OG        53.4130   30.3000  108.6290 O.3    40  SER40      -0.2179
     41  N         52.3430   31.4190  112.8950 N.am   41  THR41      -0.1936
     42  CA        51.7050   32.1670  113.9770 C.3    41  THR41       0.2028
     43  C         52.7510   32.8810  114.8350 C.2    41  THR41       0.2642
     44  O         52.5680   34.0410  115.2060 O.2    41  THR41      -0.2714
     45  CB        50.8520   31.2430  114.8710 C.3    41  THR41       0.1808
     46  OG1       49.9250   30.5120  114.0580 O.3    41  THR41      -0.2208
     47  CG2       50.0790   32.0460  115.9090 C.3    41  THR41       0.0379
     48  N         53.8420   32.1810  115.1410 N.am   42  THR42      -0.1950
     49  CA        54.9500   32.7590  115.9010 C.3    42  THR42       0.1897
     50  C         55.6480   33.8680  115.1120 C.2    42  THR42       0.2313
     51  O         56.0270   34.8940  115.6800 O.2    42  THR42      -0.2863
     52  CB        55.9820   31.6820  116.2950 C.3    42  THR42       0.1794
     53  OG1       55.3310   30.6410  117.0330 O.3    42  THR42      -0.2208
     54  CG2       57.0970   32.2770  117.1480 C.3    42  THR42       0.0378
     55  N         55.7280   29.2750  102.3540 N.3    67  GLY67      -0.1210
     56  CA        54.8730   28.2540  102.9520 C.3    67  GLY67       0.1956
     57  C         53.5540   28.1150  102.2140 C.2    67  GLY67       0.2611
     58  O         53.4920   27.4840  101.1570 O.2    67  GLY67      -0.2717
     59  N         52.5020   28.7110  102.7710 N.am   68  ASN68      -0.1974
     60  CA        51.1600   28.6390  102.1870 C.3    68  ASN68       0.1688
     61  C         50.3840   29.9490  102.3640 C.2    68  ASN68       0.2292
     62  O         49.1800   29.9420  102.6310 O.2    68  ASN68      -0.2864
     63  CB        50.3810   27.4490  102.7720 C.3    68  ASN68       0.1181
     64  CG        50.1880   27.5460  104.2770 C.2    68  ASN68       0.2629
     65  OD1       49.0710   27.7380  104.7570 O.2    68  ASN68      -0.2716
     66  ND2       51.2750   27.4090  105.0270 N.am   68  ASN68      -0.0877
     67  N         50.4550   32.1930  104.7230 N.3    70  ALA70      -0.1245
     68  CA        49.9820   32.4700  106.0800 C.3    70  ALA70       0.1562
     69  C         50.3380   33.8990  106.4950 C.2    70  ALA70       0.2260
     70  O         49.6350   34.5070  107.3030 O.2    70  ALA70      -0.2867
     71  CB        50.5700   31.4690  107.0650 C.3    70  ALA70       0.0290
     72  N         59.6330   32.3720  105.7200 N.3   112  ASP112     -0.1225
     73  CA        58.7640   31.2590  106.0880 C.3   112  ASP112      0.1805
     74  C         59.0780   30.0510  105.2040 C.2   112  ASP112      0.2597
     75  O         59.2200   30.1880  103.9880 O.2   112  ASP112     -0.2718
     76  CB        57.2910   31.6580  105.9560 C.3   112  ASP112      0.1424
     77  CG        56.3910   30.8960  106.9150 C.2   112  ASP112      0.3668
     78  OD1       56.5840   29.6730  107.0800 O.co2 112  ASP112     -0.2456
     79  OD2       55.4880   31.5230  107.5060 O.co2 112  ASP112     -0.2456
     80  N         59.1900   28.8800  105.8310 N.am  113  ASN113     -0.1974
     81  CA        59.5210   27.6240  105.1480 C.3   113  ASN113      0.1688
     82  C         60.9240   27.6330  104.5290 C.2   113  ASN113      0.2292
     83  O         61.1010   27.9850  103.3610 O.2   113  ASN113     -0.2864
     84  CB        58.4560   27.2740  104.0950 C.3   113  ASN113      0.1181
     85  CG        58.5940   25.8560  103.5630 C.2   113  ASN113      0.2629
     86  OD1       59.1860   24.9880  104.2070 O.2   113  ASN113     -0.2716
     87  ND2       58.0380   25.6140  102.3820 N.am  113  ASN113     -0.0877
     88  N         58.8850   24.3910  118.3630 N.3   166  HIS166     -0.1241
     89  CA        57.5720   23.7590  118.5280 C.3   166  HIS166      0.1621
     90  C         57.6990   22.2350  118.4270 C.2   166  HIS166      0.2264
     91  O         58.7880   21.7110  118.1840 O.2   166  HIS166     -0.2867
     92  CB        56.5850   24.2830  117.4760 C.3   166  HIS166      0.0745
     93  CG        56.3130   25.7520  117.5800 C.ar  166  HIS166      0.0817
     94  ND1       55.2500   26.2620  118.2950 N.ar  166  HIS166     -0.2268
     95  CD2       56.9620   26.8200  117.0590 C.ar  166  HIS166      0.1154
     96  CE1       55.2590   27.5800  118.2120 C.ar  166  HIS166      0.1986
     97  NE2       56.2860   27.9440  117.4670 N.ar  166  HIS166     -0.2212
     98  N         53.8810   28.8540  125.9200 N.3   203  GLN203     -0.1231
     99  CA        52.7420   29.0270  125.0190 C.3   203  GLN203      0.1698
    100  C         52.8720   30.3830  124.3350 C.2   203  GLN203      0.2592
    101  O         52.7110   31.4210  124.9780 O.2   203  GLN203     -0.2718
    102  CB        51.4110   28.9560  125.7820 C.3   203  GLN203      0.0381
    103  CG        50.6580   27.6450  125.6190 C.3   203  GLN203      0.0905
    104  CD        50.1410   27.4270  124.2060 C.2   203  GLN203      0.2608
    105  OE1       49.8760   28.3800  123.4720 O.2   203  GLN203     -0.2717
    106  NE2       49.9910   26.1650  123.8200 N.am  203  GLN203     -0.0878
    107  N         53.1660   30.3700  123.0370 N.am  204  ILE204     -0.1966
    108  CA        53.3190   31.6050  122.2680 C.3   204  ILE204      0.1727
    109  C         51.9490   32.2650  122.1000 C.2   204  ILE204      0.2616
    110  O         50.9600   31.5890  121.8160 O.2   204  ILE204     -0.2715
    111  CB        53.9840   31.3480  120.8880 C.3   204  ILE204      0.0290
    112  CG1       55.5060   31.2160  121.0370 C.3   204  ILE204      0.0022
    113  CG2       53.6940   32.4820  119.9080 C.3   204  ILE204      0.0023
    114  CD1       55.9660   30.0270  121.8520 C.3   204  ILE204      0.0001
    115  N         51.9010   33.5820  122.2920 N.am  205  TYR205     -0.1960
    116  CA        50.6610   34.3400  122.1370 C.3   205  TYR205      0.1771
    117  C         50.2600   34.4240  120.6700 C.2   205  TYR205      0.2619
    118  O         51.1150   34.4410  119.7830 O.2   205  TYR205     -0.2715
    119  CB        50.8070   35.7610  122.6980 C.3   205  TYR205      0.0574
    120  CG        50.7810   35.8500  124.2080 C.ar  205  TYR205     -0.0198
    121  CD1       49.6610   35.4450  124.9290 C.ar  205  TYR205     -0.0009
    122  CD2       51.8660   36.3630  124.9160 C.ar  205  TYR205     -0.0009
    123  CE1       49.6280   35.5300  126.3100 C.ar  205  TYR205      0.0417
    124  CE2       51.8420   36.4530  126.2980 C.ar  205  TYR205      0.0417
    125  CZ        50.7210   36.0360  126.9900 C.ar  205  TYR205      0.1957
    126  OH        50.6880   36.1230  128.3630 O.3   205  TYR205     -0.2866
    127  N         48.9540   34.4760  120.4250 N.am  206  LEU206     -0.1977
    128  CA        48.4320   34.7000  119.0820 C.3   206  LEU206      0.1596
    129  C         48.6870   36.1560  118.6880 C.2   206  LEU206      0.2287
    130  O         48.7760   37.0240  119.5600 O.2   206  LEU206     -0.2864
    131  CB        46.9330   34.3900  119.0300 C.3   206  LEU206      0.0297
    132  CG        46.5370   32.9340  119.2950 C.3   206  LEU206      0.0022
    133  CD1       45.0320   32.8140  119.4850 C.3   206  LEU206      0.0001
    134  CD2       47.0110   32.0260  118.1700 C.3   206  LEU206      0.0001
    135  N         40.2210   31.0030  114.5190 N.3   213  ASP213     -0.1239
    136  CA        41.2700   31.5020  113.6190 C.3   213  ASP213      0.1674
    137  C         40.8420   32.7050  112.7720 C.2   213  ASP213      0.2266
    138  O         41.6830   33.5150  112.3760 O.2   213  ASP213     -0.2867
    139  CB        41.7550   30.3810  112.6900 C.3   213  ASP213      0.1410
    140  CG        42.3390   29.1970  113.4460 C.2   213  ASP213      0.3668
    141  OD1       42.6340   29.3330  114.6530 O.co2 213  ASP213     -0.2456
    142  OD2       42.5000   28.1230  112.8280 O.co2 213  ASP213     -0.2456
@<TRIPOS>BOND
     1    58    57    2
     2    60    61    1
     3    60    59    1
     4    60    63    1
     5    57    59   am
     6    57    56    1
     7    55    56    1
     8    61    62    2
     9    87    85   am
    10    63    64    1
    11    83    82    2
    12    85    84    1
    13    85    86    2
    14    75    74    2
    15    84    81    1
    16    64    65    2
    17    64    66   am
    18    82    81    1
    19    67    68    1
    20    81    80    1
    21    74    80   am
    22    74    73    1
    23    72    73    1
    24    76    73    1
    25    76    77    1
    26    68    69    1
    27    68    71    1
    28    69    70    2
    29    77    78   ar
    30    77    79   ar
    31    40    39    1
    32     5     2    1
    33    39    36    1
    34    33    34    1
    35    33    32    1
    36     2     1    1
    37     2     3    1
    38    36    35    1
    39    36    37    1
    40     6     3   am
    41     6     7    1
    42     3     4    2
    43    32    31    1
    44    35    28   am
    45    38    37    2
    46    30    31    1
    47    30    27    1
    48     7     8    1
    49    37    41   am
    50    28    29    2
    51    28    27    1
    52   138   137    2
    53   139   140    1
    54   139   136    1
    55   137   136    1
    56   142   140   ar
    57    41    42    1
    58    27    26    1
    59     8    10   am
    60     8     9    2
    61    26    24   am
    62   140   141   ar
    63   136   135    1
    64    10    11    1
    65    42    43    1
    66    42    45    1
    67    46    45    1
    68    24    23    1
    69    24    25    2
    70    22    23    1
    71    22    12   am
    72    43    48   am
    73    43    44    2
    74    17    19   ar
    75    17    15   ar
    76    45    47    1
    77    19    20   ar
    78    50    51    2
    79    50    49    1
    80    48    49    1
    81    11    12    1
    82    11    14    1
    83    12    13    2
    84    14    15    1
    85    15    16   ar
    86    49    52    1
    87    20    21    1
    88    20    18   ar
    89    52    53    1
    90    52    54    1
    91    16    18   ar
    92    95    97   ar
    93    95    93   ar
    94    97    96   ar
    95    92    93    1
    96    92    89    1
    97    93    94   ar
    98   134   132    1
    99    91    90    2
   100    96    94   ar
   101    88    89    1
   102    90    89    1
   103   129   128    1
   104   129   130    2
   105   131   128    1
   106   131   132    1
   107   128   127    1
   108   132   133    1
   109   118   117    2
   110   113   111    1
   111   127   117   am
   112   117   116    1
   113   111   112    1
   114   111   108    1
   115   112   114    1
   116   110   109    2
   117   109   108    1
   118   109   115   am
   119   116   115    1
   120   116   119    1
   121   108   107    1
   122   119   120    1
   123   107   100   am
   124   105   104    2
   125   106   104   am
   126   104   103    1
   127   120   122   ar
   128   120   121   ar
   129   100   101    2
   130   100    99    1
   131   122   124   ar
   132   121   123   ar
   133    99   102    1
   134    99    98    1
   135   103   102    1
   136   124   125   ar
   137   123   125   ar
   138   125   126    1
