@<TRIPOS>MOLECULE
tmp/5fv3A01.pdb
 108 103 0 0 0
SMALL
GASTEIGER

@<TRIPOS>ATOM
      1  N         87.0310   61.0870   19.8040 N.3   190  TYR190     -0.1241
      2  CA        88.0870   60.9430   18.8080 C.3   190  TYR190      0.1605
      3  C         89.4730   60.8970   19.4390 C.2   190  TYR190      0.2264
      4  O         89.9640   61.9010   19.9550 O.2   190  TYR190     -0.2867
      5  CB        88.0260   62.0830   17.7890 C.3   190  TYR190      0.0534
      6  CG        86.7310   62.1520   17.0130 C.ar  190  TYR190     -0.0201
      7  CD1       86.4510   61.2360   16.0080 C.ar  190  TYR190     -0.0009
      8  CD2       85.7940   63.1420   17.2770 C.ar  190  TYR190     -0.0009
      9  CE1       85.2700   61.2970   15.2940 C.ar  190  TYR190      0.0417
     10  CE2       84.6110   63.2130   16.5670 C.ar  190  TYR190      0.0417
     11  CZ        84.3540   62.2880   15.5770 C.ar  190  TYR190      0.1957
     12  OH        83.1770   62.3560   14.8690 O.3   190  TYR190     -0.2866
     13  N         93.4790   62.0090   10.2270 N.3   197  SER197     -0.1202
     14  CA        92.6930   63.0940    9.6540 C.3   197  SER197      0.2020
     15  C         91.2140   62.7700    9.4670 C.2   197  SER197      0.2618
     16  O         90.8190   61.6060    9.4040 O.2   197  SER197     -0.2717
     17  CB        93.2920   63.5040    8.3060 C.3   197  SER197      0.2103
     18  OG        93.2210   62.4410    7.3720 O.3   197  SER197     -0.2182
     19  N         90.4040   63.8200    9.3780 N.am  198  PHE198     -0.1975
     20  CA        89.0020   63.6820    9.0120 C.3   198  PHE198      0.1639
     21  C         88.7590   64.3990    7.6880 C.2   198  PHE198      0.2290
     22  O         89.0980   65.5720    7.5340 O.2   198  PHE198     -0.2864
     23  CB        88.0690   64.2200   10.1110 C.3   198  PHE198      0.0560
     24  CG        88.4570   65.5740   10.6600 C.ar  198  PHE198     -0.0200
     25  CD1       89.5110   65.7080   11.5510 C.ar  198  PHE198     -0.0042
     26  CD2       87.7380   66.7070   10.3110 C.ar  198  PHE198     -0.0042
     27  CE1       89.8560   66.9470   12.0640 C.ar  198  PHE198     -0.0003
     28  CE2       88.0770   67.9480   10.8250 C.ar  198  PHE198     -0.0003
     29  CZ        89.1380   68.0670   11.7000 C.ar  198  PHE198     -0.0000
     30  N         83.7130   67.1610    4.8660 N.3   201  HIS201     -0.1241
     31  CA        82.3300   66.7580    5.0670 C.3   201  HIS201      0.1621
     32  C         81.5110   67.8610    5.7180 C.2   201  HIS201      0.2264
     33  O         82.0550   68.8220    6.2630 O.2   201  HIS201     -0.2867
     34  CB        82.2580   65.5000    5.9340 C.3   201  HIS201      0.0745
     35  CG        82.5670   65.7480    7.3770 C.ar  201  HIS201      0.0817
     36  ND1       83.8470   65.6950    7.8840 N.ar  201  HIS201     -0.2268
     37  CD2       81.7610   66.0570    8.4210 C.ar  201  HIS201      0.1154
     38  CE1       83.8170   65.9590    9.1780 C.ar  201  HIS201      0.1986
     39  NE2       82.5630   66.1820    9.5290 N.ar  201  HIS201     -0.2212
     40  N         77.8460   68.1130    8.3600 N.3   203  GLU203     -0.1245
     41  CA        77.1130   67.2780    9.3020 C.3   203  GLU203      0.1567
     42  C         75.7870   66.8170    8.7100 C.2   203  GLU203      0.2260
     43  O         75.2500   67.4530    7.8020 O.2   203  GLU203     -0.2867
     44  CB        76.8780   68.0290   10.6120 C.3   203  GLU203      0.0388
     45  CG        78.1500   68.5810   11.2330 C.3   203  GLU203      0.1160
     46  CD        79.2020   67.5110   11.4610 C.2   203  GLU203      0.3649
     47  OE1       78.8360   66.3770   11.8380 O.co2 203  GLU203     -0.2457
     48  OE2       80.3990   67.8030   11.2590 O.co2 203  GLU203     -0.2457
     49  N         77.9460   71.5060   14.6850 N.3   209  SER209     -0.1217
     50  CA        78.7790   70.5640   15.4180 C.3   209  SER209      0.1889
     51  C         79.7100   71.3400   16.3380 C.2   209  SER209      0.2288
     52  O         80.2420   72.3830   15.9580 O.2   209  SER209     -0.2866
     53  CB        79.5820   69.6710   14.4700 C.3   209  SER209      0.2089
     54  OG        80.6890   70.3650   13.9220 O.3   209  SER209     -0.2183
     55  N         83.0590   70.8220   18.9640 N.3   211  ASN211     -0.1240
     56  CA        84.1460   69.8990   19.2440 C.3   211  ASN211      0.1653
     57  C         85.0100   70.4160   20.3820 C.2   211  ASN211      0.2266
     58  O         85.4550   71.5630   20.3600 O.2   211  ASN211     -0.2867
     59  CB        84.9900   69.6860   17.9830 C.3   211  ASN211      0.1155
     60  CG        85.9870   68.5520   18.1270 C.2   211  ASN211      0.2627
     61  OD1       86.9150   68.6200   18.9330 O.2   211  ASN211     -0.2716
     62  ND2       85.8040   67.5040   17.3330 N.am  211  ASN211     -0.0877
     63  N         94.6810   70.1470   17.2350 N.3   219  LYS219     -0.1245
     64  CA        93.9810   69.6290   16.0680 C.3   219  LYS219      0.1561
     65  C         93.8620   70.7480   15.0410 C.2   219  LYS219      0.2260
     66  O         93.3620   71.8290   15.3520 O.2   219  LYS219     -0.2867
     67  CB        92.5970   69.0970   16.4500 C.3   219  LYS219      0.0271
     68  CG        91.8710   68.3700   15.3290 C.3   219  LYS219      0.0035
     69  CD        90.4170   68.1020   15.6940 C.3   219  LYS219      0.0206
     70  CE        90.2960   67.1600   16.8820 C.3   219  LYS219      0.1093
     71  NZ        90.5910   65.7490   16.5160 N.3   219  LYS219     -0.1314
     72  N         92.3270   72.5650   11.8740 N.3   221  TRP221     -0.1241
     73  CA        91.0500   72.6120   11.1700 C.3   221  TRP221      0.1605
     74  C         91.1220   73.4040    9.8710 C.2   221  TRP221      0.2264
     75  O         91.9150   74.3340    9.7400 O.2   221  TRP221     -0.2867
     76  CB        89.9700   73.2230   12.0660 C.3   221  TRP221      0.0550
     77  CG        89.5580   72.3620   13.2160 C.ar  221  TRP221      0.0003
     78  CD1       90.2670   72.1210   14.3550 C.ar  221  TRP221      0.0946
     79  CD2       88.3260   71.6420   13.3500 C.ar  221  TRP221      0.0152
     80  NE1       89.5590   71.2870   15.1860 N.ar  221  TRP221     -0.2442
     81  CE2       88.3630   70.9790   14.5920 C.ar  221  TRP221      0.0810
     82  CE3       87.1970   71.4900   12.5380 C.ar  221  TRP221      0.0012
     83  CZ2       87.3160   70.1770   15.0430 C.ar  221  TRP221      0.0191
     84  CZ3       86.1580   70.6930   12.9870 C.ar  221  TRP221      0.0001
     85  CH2       86.2250   70.0470   14.2270 C.ar  221  TRP221      0.0015
     86  N         84.1350   71.0890    6.4420 N.3   289  HIS289     -0.1241
     87  CA        85.3580   71.1350    7.2230 C.3   289  HIS289      0.1621
     88  C         86.1430   69.8370    7.1320 C.2   289  HIS289      0.2264
     89  O         85.5920   68.7710    6.8570 O.2   289  HIS289     -0.2867
     90  CB        85.0580   71.4620    8.6900 C.3   289  HIS289      0.0745
     91  CG        84.0400   70.5620    9.3180 C.ar  289  HIS289      0.0817
     92  ND1       82.6870   70.6980    9.0950 N.ar  289  HIS289     -0.2268
     93  CD2       84.1780   69.5170   10.1690 C.ar  289  HIS289      0.1154
     94  CE1       82.0350   69.7760    9.7790 C.ar  289  HIS289      0.1986
     95  NE2       82.9160   69.0460   10.4390 N.ar  289  HIS289     -0.2212
     96  N         95.2850   65.7140   13.0220 N.3   293  ASN293     -0.1240
     97  CA        95.8390   65.8890   14.3580 C.3   293  ASN293      0.1653
     98  C         97.3530   66.0500   14.3290 C.2   293  ASN293      0.2266
     99  O         98.0490   65.3760   13.5690 O.2   293  ASN293     -0.2867
    100  CB        95.4550   64.7110   15.2530 C.3   293  ASN293      0.1155
    101  CG        93.9570   64.5530   15.3930 C.2   293  ASN293      0.2627
    102  OD1       93.2770   65.4240   15.9360 O.2   293  ASN293     -0.2716
    103  ND2       93.4330   63.4390   14.9020 N.am  293  ASN293     -0.0877
    104  N         83.0370   65.3620   20.3420 N.3   301  ALA301     -0.1245
    105  CA        82.2060   66.2010   19.4880 C.3   301  ALA301      0.1562
    106  C         80.7570   65.7330   19.4730 C.2   301  ALA301      0.2260
    107  O         80.4750   64.5500   19.6530 O.2   301  ALA301     -0.2867
    108  CB        82.7640   66.2270   18.0750 C.3   301  ALA301      0.0290
@<TRIPOS>BOND
     1    30    31    1
     2    31    32    1
     3    31    34    1
     4    32    33    2
     5    34    35    1
     6    86    87    1
     7    89    88    2
     8    88    87    1
     9    87    90    1
    10    18    17    1
    11    35    36   ar
    12    35    37   ar
    13    22    21    2
    14    21    20    1
    15    43    42    2
    16    36    38   ar
    17    17    14    1
    18    40    41    1
    19    37    39   ar
    20    90    91    1
    21    42    41    1
    22    20    19    1
    23    20    23    1
    24    92    91   ar
    25    92    94   ar
    26    38    39   ar
    27    41    44    1
    28    91    93   ar
    29    19    15   am
    30    16    15    2
    31    15    14    1
    32    14    13    1
    33    75    74    2
    34    94    95   ar
    35    74    73    1
    36    23    24    1
    37    93    95   ar
    38    26    24   ar
    39    26    28   ar
    40    44    45    1
    41    24    25   ar
    42    28    29   ar
    43    73    72    1
    44    73    76    1
    45    45    46    1
    46    48    46   ar
    47    46    47   ar
    48    25    27   ar
    49    29    27   ar
    50    76    77    1
    51    82    84   ar
    52    82    79   ar
    53    84    85   ar
    54    96    97    1
    55    77    79   ar
    56    77    78   ar
    57    79    81   ar
    58    99    98    2
    59    54    53    1
    60    85    83   ar
    61    98    97    1
    62    78    80   ar
    63    97   100    1
    64    53    50    1
    65    81    83   ar
    66    81    80   ar
    67    49    50    1
    68    12    11    1
    69   103   101   am
    70    65    66    2
    71    65    64    1
    72   100   101    1
    73     9    11   ar
    74     9     7   ar
    75    68    69    1
    76    68    67    1
    77   101   102    2
    78    50    51    1
    79    11    10   ar
    80    69    70    1
    81    52    51    2
    82     7     6   ar
    83    64    67    1
    84    64    63    1
    85    71    70    1
    86    10     8   ar
    87     6     8   ar
    88     6     5    1
    89    62    60   am
    90     5     2    1
    91    59    60    1
    92    59    56    1
    93   108   105    1
    94    60    61    2
    95     2     3    1
    96     2     1    1
    97    55    56    1
    98    56    57    1
    99     3     4    2
   100   106   105    1
   101   106   107    2
   102   105   104    1
   103    58    57    2
