@<TRIPOS>MOLECULE
tmp/5fv7A00.pdb
 130 120 0 0 0
SMALL
GASTEIGER

@<TRIPOS>ATOM
      1  N        -14.7220   -0.8410    1.7480 N.3     1  GLY1       -0.1225
      2  CA       -13.5310   -1.3890    1.0420 C.3     1  GLY1        0.1811
      3  C        -12.4620   -0.3520    0.7770 C.2     1  GLY1        0.2280
      4  O        -12.7610    0.7530    0.3240 O.2     1  GLY1       -0.2866
      5  N        -18.2690  -10.1730   10.5840 N.3    33  ASP33      -0.1239
      6  CA       -18.9140   -9.1530    9.7800 C.3    33  ASP33       0.1674
      7  C        -19.9680   -9.8310    8.9100 C.2    33  ASP33       0.2266
      8  O        -19.6740  -10.3150    7.8120 O.2    33  ASP33      -0.2867
      9  CB       -17.8550   -8.4440    8.9350 C.3    33  ASP33       0.1410
     10  CG       -18.4090   -7.2990    8.1180 C.2    33  ASP33       0.3668
     11  OD1      -19.5880   -6.9340    8.3080 O.co2  33  ASP33      -0.2456
     12  OD2      -17.6480   -6.7530    7.2830 O.co2  33  ASP33      -0.2456
     13  N        -22.5470   -9.0200    6.9940 N.3    35  SER35      -0.1202
     14  CA       -22.7910   -8.5900    5.6130 C.3    35  SER35       0.2020
     15  C        -21.7180   -9.1220    4.6760 C.2    35  SER35       0.2618
     16  O        -22.0210   -9.5960    3.5860 O.2    35  SER35      -0.2717
     17  CB       -22.8660   -7.0660    5.5070 C.3    35  SER35       0.2103
     18  OG       -24.1460   -6.5920    5.8790 O.3    35  SER35      -0.2182
     19  N        -20.4670   -9.0420    5.1190 N.am   36  MET36      -0.1979
     20  CA       -19.3310   -9.5330    4.3470 C.3    36  MET36       0.1605
     21  C        -19.3060  -11.0610    4.2990 C.2    36  MET36       0.2287
     22  O        -18.8230  -11.6450    3.3330 O.2    36  MET36      -0.2864
     23  CB       -18.0230   -9.0030    4.9370 C.3    36  MET36       0.0413
     24  CG       -16.8820   -8.9360    3.9420 C.3    36  MET36       0.0598
     25  SD       -17.1350   -7.6170    2.7460 S.3    36  MET36      -0.1393
     26  CE       -16.7520   -8.5120    1.2410 C.3    36  MET36       0.0692
     27  N        -21.9900  -12.1210    1.7730 N.3    39  TYR39      -0.1227
     28  CA       -21.3430  -11.8650    0.4890 C.3    39  TYR39       0.1736
     29  C        -20.5190  -13.0730    0.0590 C.2    39  TYR39       0.2595
     30  O        -20.5180  -13.4500   -1.1190 O.2    39  TYR39      -0.2718
     31  CB       -20.4370  -10.6350    0.5990 C.3    39  TYR39       0.0548
     32  CG       -19.8290  -10.1870   -0.7110 C.ar   39  TYR39      -0.0200
     33  CD1      -18.6490  -10.7620   -1.1970 C.ar   39  TYR39      -0.0009
     34  CD2      -20.4270   -9.1840   -1.4650 C.ar   39  TYR39      -0.0009
     35  CE1      -18.0890  -10.3510   -2.3980 C.ar   39  TYR39       0.0417
     36  CE2      -19.8730   -8.7630   -2.6630 C.ar   39  TYR39       0.0417
     37  CZ       -18.7060   -9.3500   -3.1280 C.ar   39  TYR39       0.1957
     38  OH       -18.1650   -8.9260   -4.3210 O.3    39  TYR39      -0.2866
     39  N        -19.8200  -13.6680    1.0260 N.am   40  GLN40      -0.1979
     40  CA       -19.0150  -14.8610    0.7850 C.3    40  GLN40       0.1601
     41  C        -19.9010  -16.0490    0.4240 C.2    40  GLN40       0.2287
     42  O        -19.6220  -16.7640   -0.5470 O.2    40  GLN40      -0.2864
     43  CB       -18.1480  -15.1960    2.0060 C.3    40  GLN40       0.0394
     44  CG       -17.0310  -14.2010    2.2950 C.3    40  GLN40       0.0908
     45  CD       -16.0110  -14.1090    1.1750 C.2    40  GLN40       0.2608
     46  OE1      -15.5870  -15.1230    0.6200 O.2    40  GLN40      -0.2717
     47  NE2      -15.6070  -12.8910    0.8420 N.am   40  GLN40      -0.0878
     48  N        -25.0500   -5.0940    9.8080 N.3    70  ASP70      -0.1239
     49  CA       -25.1850   -3.7040    9.3640 C.3    70  ASP70       0.1674
     50  C        -26.5150   -3.0720    9.7910 C.2    70  ASP70       0.2266
     51  O        -27.5400   -3.7510    9.8930 O.2    70  ASP70      -0.2867
     52  CB       -25.0680   -3.6110    7.8390 C.3    70  ASP70       0.1410
     53  CG       -23.6320   -3.6260    7.3440 C.2    70  ASP70       0.3668
     54  OD1      -22.7020   -3.4100    8.1390 O.co2  70  ASP70      -0.2456
     55  OD2      -23.4360   -3.8380    6.1290 O.co2  70  ASP70      -0.2456
     56  N        -21.6600    8.1060    0.9220 N.3    77  LYS77      -0.1245
     57  CA       -21.4030    6.8370    0.2460 C.3    77  LYS77       0.1561
     58  C        -21.2550    7.0720   -1.2580 C.2    77  LYS77       0.2260
     59  O        -20.4470    6.4140   -1.9170 O.2    77  LYS77      -0.2867
     60  CB       -22.5330    5.8390    0.5140 C.3    77  LYS77       0.0271
     61  CG       -22.1240    4.3800    0.3880 C.3    77  LYS77       0.0035
     62  CD       -21.4670    3.8730    1.6640 C.3    77  LYS77       0.0206
     63  CE       -21.3460    2.3580    1.6600 C.3    77  LYS77       0.1093
     64  NZ       -21.0870    1.8240    3.0260 N.3    77  LYS77      -0.1314
     65  N        -26.2080   -8.0070   -1.1210 N.3    83  VAL83      -0.1245
     66  CA       -26.6870   -8.4090    0.2120 C.3    83  VAL83       0.1561
     67  C        -27.8900   -7.5600    0.6370 C.2    83  VAL83       0.2260
     68  O        -27.7540   -6.3670    0.9320 O.2    83  VAL83      -0.2867
     69  CB       -25.5660   -8.3370    1.2700 C.3    83  VAL83       0.0252
     70  CG1      -26.0990   -8.6570    2.6610 C.3    83  VAL83       0.0019
     71  CG2      -24.4340   -9.2880    0.9120 C.3    83  VAL83       0.0019
     72  N        -22.3380    0.7390   10.3790 N.3   108  GLU108     -0.1245
     73  CA       -21.6290   -0.2730    9.5810 C.3   108  GLU108      0.1567
     74  C        -20.9550   -1.3420   10.4470 C.2   108  GLU108      0.2260
     75  O        -20.1180   -1.0330   11.2960 O.2   108  GLU108     -0.2867
     76  CB       -20.6060    0.4010    8.6660 C.3   108  GLU108      0.0388
     77  CG       -20.5340   -0.1880    7.2690 C.3   108  GLU108      0.1160
     78  CD       -20.0560    0.8190    6.2390 C.2   108  GLU108      0.3649
     79  OE1      -20.2110    2.0390    6.4790 O.co2 108  GLU108     -0.2457
     80  OE2      -19.5270    0.3880    5.1880 O.co2 108  GLU108     -0.2457
     81  N        -18.5350   -3.4810   10.3710 N.3   110  GLU110     -0.1245
     82  CA       -17.0890   -3.6170   10.5690 C.3   110  GLU110      0.1567
     83  C        -16.4930   -2.5430   11.4840 C.2   110  GLU110      0.2260
     84  O        -15.3650   -2.6850   11.9680 O.2   110  GLU110     -0.2867
     85  CB       -16.3390   -3.6830    9.2340 C.3   110  GLU110      0.0388
     86  CG       -16.2230   -2.3570    8.5020 C.3   110  GLU110      0.1160
     87  CD       -17.4210   -2.0480    7.6410 C.2   110  GLU110      0.3649
     88  OE1      -18.4740   -2.6980    7.7970 O.co2 110  GLU110     -0.2457
     89  OE2      -17.3000   -1.1610    6.7810 O.co2 110  GLU110     -0.2457
     90  N        -13.1280   -9.7490    5.2150 N.3   128  GLU128     -0.1231
     91  CA       -12.2670   -9.4050    4.0810 C.3   128  GLU128      0.1699
     92  C        -12.2750   -7.9010    3.8210 C.2   128  GLU128      0.2592
     93  O        -11.4080   -7.3880    3.0930 O.2   128  GLU128     -0.2718
     94  CB       -12.7110  -10.1320    2.8040 C.3   128  GLU128      0.0402
     95  CG       -12.2030  -11.5580    2.6650 C.3   128  GLU128      0.1161
     96  CD       -12.7900  -12.4880    3.7100 C.2   128  GLU128      0.3649
     97  OE1      -14.0400  -12.5480    3.8330 O.co2 128  GLU128     -0.2457
     98  OE2      -12.0010  -13.1510    4.4170 O.co2 128  GLU128     -0.2457
     99  N        -13.2670   -7.2080    4.3920 N.am  129  ASP129     -0.1960
    100  CA       -13.4070   -5.7630    4.2260 C.3   129  ASP129      0.1840
    101  C        -12.2410   -5.0850    4.9240 C.2   129  ASP129      0.2622
    102  O        -12.1590   -5.0650    6.1510 O.2   129  ASP129     -0.2715
    103  CB       -14.7510   -5.2650    4.7720 C.3   129  ASP129      0.1450
    104  CG       -14.9960   -3.7840    4.4920 C.2   129  ASP129      0.3671
    105  OD1      -14.2270   -3.1750    3.7250 O.co2 129  ASP129     -0.2456
    106  OD2      -15.9710   -3.2210    5.0340 O.co2 129  ASP129     -0.2456
    107  N        -11.3370   -4.5390    4.1220 N.am  130  MET130     -0.1963
    108  CA       -10.0570   -4.0560    4.6190 C.3   130  MET130      0.1736
    109  C        -10.1770   -2.7550    5.4090 C.2   130  MET130      0.2616
    110  O         -9.2610   -2.3820    6.1470 O.2   130  MET130     -0.2715
    111  CB        -9.0630   -3.9100    3.4640 C.3   130  MET130      0.0427
    112  CG        -7.6430   -4.3070    3.8300 C.3   130  MET130      0.0599
    113  SD        -7.4840   -5.8810    4.7080 S.3   130  MET130     -0.1393
    114  CE        -7.9660   -7.0280    3.4230 C.3   130  MET130      0.0692
    115  N        -11.3120   -2.0760    5.2760 N.am  131  ASP131     -0.1971
    116  CA       -11.4880   -0.8180    5.9830 C.3   131  ASP131      0.1709
    117  C        -11.9210   -1.0100    7.4330 C.2   131  ASP131      0.2293
    118  O        -12.1570   -0.0400    8.1500 O.2   131  ASP131     -0.2864
    119  CB       -12.4090    0.1470    5.2210 C.3   131  ASP131      0.1436
    120  CG       -13.7920   -0.4010    5.0100 C.2   131  ASP131      0.3671
    121  OD1      -14.3590   -0.9960    5.9560 O.co2 131  ASP131     -0.2456
    122  OD2      -14.3220   -0.2150    3.8970 O.co2 131  ASP131     -0.2456
    123  N        -14.8130    3.6880    0.3030 N.3   178  ASP178     -0.1239
    124  CA       -16.2240    3.6930   -0.0880 C.3   178  ASP178      0.1674
    125  C        -16.8330    5.0860   -0.0170 C.2   178  ASP178      0.2266
    126  O        -17.8710    5.3460   -0.6310 O.2   178  ASP178     -0.2867
    127  CB       -17.0350    2.7590    0.8210 C.3   178  ASP178      0.1410
    128  CG       -17.0440    1.3150    0.3410 C.2   178  ASP178      0.3668
    129  OD1      -15.9610    0.7520    0.0660 O.co2 178  ASP178     -0.2456
    130  OD2      -18.1490    0.7360    0.2610 O.co2 178  ASP178     -0.2456
@<TRIPOS>BOND
     1    38    37    1
     2    37    36   ar
     3    37    35   ar
     4    36    34   ar
     5    35    33   ar
     6    59    58    2
     7    34    32   ar
     8    58    57    1
     9    33    32   ar
    10    65    66    1
    11    30    29    2
    12    32    31    1
    13   126   125    2
    14    42    41    2
    15   124   125    1
    16   124   123    1
    17   124   127    1
    18    29    28    1
    19    29    39   am
    20   129   128   ar
    21    66    67    1
    22    66    69    1
    23    57    60    1
    24    57    56    1
    25   130   128   ar
    26     4     3    2
    27   128   127    1
    28    61    60    1
    29    61    62    1
    30    41    40    1
    31    28    31    1
    32    28    27    1
    33    46    45    2
    34    67    68    2
    35     3     2    1
    36    40    39    1
    37    40    43    1
    38    47    45   am
    39    71    69    1
    40     2     1    1
    41    45    44    1
    42    26    25    1
    43    69    70    1
    44    63    62    1
    45    63    64    1
    46    43    44    1
    47    95    94    1
    48    95    96    1
    49    25    24    1
    50    94    91    1
    51    93    92    2
    52    22    21    2
    53   114   113    1
    54   111   112    1
    55   111   108    1
    56    16    15    2
    57    96    97   ar
    58    96    98   ar
    59   105   104   ar
    60    92    91    1
    61    92    99   am
    62   112   113    1
    63   122   120   ar
    64    24    23    1
    65    91    90    1
    66   107   108    1
    67   107   101   am
    68   100    99    1
    69   100   103    1
    70   100   101    1
    71    21    20    1
    72    20    23    1
    73    20    19    1
    74   104   103    1
    75   104   106   ar
    76   108   109    1
    77    15    19   am
    78    15    14    1
    79   101   102    2
    80   120   119    1
    81   120   121   ar
    82    80    78   ar
    83   119   116    1
    84   115   109   am
    85   115   116    1
    86   109   110    2
    87    17    14    1
    88    17    18    1
    89    14    13    1
    90   116   117    1
    91    55    53   ar
    92    78    79   ar
    93    78    77    1
    94    89    87   ar
    95    77    76    1
    96    12    10   ar
    97    53    52    1
    98    53    54   ar
    99   117   118    2
   100    87    88   ar
   101    87    86    1
   102     8     7    2
   103    52    49    1
   104    10    11   ar
   105    10     9    1
   106    86    85    1
   107    76    73    1
   108     7     6    1
   109     9     6    1
   110    85    82    1
   111    49    50    1
   112    49    48    1
   113    73    72    1
   114    73    74    1
   115     6     5    1
   116    50    51    2
   117    81    82    1
   118    74    75    2
   119    82    83    1
   120    83    84    2
