@<TRIPOS>MOLECULE
tmp/5fv9B00.pdb
 184 179 0 0 0
SMALL
GASTEIGER

@<TRIPOS>ATOM
      1  N         19.8940  -25.4950   17.7170 N.3    69  THR69      -0.1203
      2  CA        21.2530  -25.7420   18.1350 C.3    69  THR69       0.1994
      3  C         22.0530  -24.6430   17.4170 C.2    69  THR69       0.2618
      4  O         21.7120  -24.2300   16.2570 O.2    69  THR69      -0.2717
      5  CB        21.5130  -27.2130   17.6550 C.3    69  THR69       0.1784
      6  OG1       21.3020  -28.1390   18.7100 O.3    69  THR69      -0.2211
      7  CG2       22.6860  -27.4150   17.0680 C.3    69  THR69       0.0376
      8  N         23.0820  -24.1040   18.0580 N.am   70  PHE70      -0.1961
      9  CA        23.8770  -23.0910   17.3770 C.3    70  PHE70       0.1771
     10  C         25.2860  -22.9380   17.9500 C.2    70  PHE70       0.2619
     11  O         25.4950  -23.1440   19.1530 O.2    70  PHE70      -0.2715
     12  CB        23.1470  -21.7600   17.4820 C.3    70  PHE70       0.0574
     13  CG        22.9320  -21.3010   18.8970 C.ar   70  PHE70      -0.0200
     14  CD1       21.8610  -21.7650   19.6370 C.ar   70  PHE70      -0.0042
     15  CD2       23.8210  -20.4190   19.5060 C.ar   70  PHE70      -0.0042
     16  CE1       21.6960  -21.3900   20.9570 C.ar   70  PHE70      -0.0003
     17  CE2       23.6600  -20.0380   20.8440 C.ar   70  PHE70      -0.0003
     18  CZ        22.5820  -20.5020   21.5550 C.ar   70  PHE70      -0.0000
     19  N         26.2190  -22.4980   17.1070 N.am   71  HIS71      -0.1973
     20  CA        27.5680  -22.1160   17.5420 C.3    71  HIS71       0.1656
     21  C         27.9220  -20.7620   16.9810 C.2    71  HIS71       0.2291
     22  O         28.1390  -20.6220   15.7780 O.2    71  HIS71      -0.2864
     23  CB        28.5810  -23.1210   17.0630 C.3    71  HIS71       0.0771
     24  CG        29.9940  -22.7420   17.3700 C.ar   71  HIS71       0.0820
     25  ND1       30.5160  -22.7880   18.6480 N.ar   71  HIS71      -0.2267
     26  CD2       30.9940  -22.2990   16.5730 C.ar   71  HIS71       0.1154
     27  CE1       31.7820  -22.3940   18.6230 C.ar   71  HIS71       0.1986
     28  NE2       32.0960  -22.0920   17.3770 N.ar   71  HIS71      -0.2212
     29  N         26.1210  -17.9310   16.4840 N.3    73  GLU73      -0.1245
     30  CA        25.1320  -17.5210   15.5070 C.3    73  GLU73       0.1567
     31  C         24.9380  -16.0540   15.7550 C.2    73  GLU73       0.2260
     32  O         25.1100  -15.5900   16.8620 O.2    73  GLU73      -0.2867
     33  CB        23.8180  -18.3060   15.7120 C.3    73  GLU73       0.0388
     34  CG        22.6350  -17.9010   14.8530 C.3    73  GLU73       0.1160
     35  CD        22.8600  -18.1020   13.3750 C.2    73  GLU73       0.3649
     36  OE1       22.5830  -19.1880   12.7890 O.co2  73  GLU73      -0.2457
     37  OE2       23.2900  -17.0990   12.7920 O.co2  73  GLU73      -0.2457
     38  N         26.0020  -24.5450   21.4900 N.3   102  ASP102     -0.1239
     39  CA        27.1120  -25.4500   21.3160 C.3   102  ASP102      0.1674
     40  C         28.4110  -24.6850   21.5620 C.2   102  ASP102      0.2266
     41  O         29.1610  -24.4290   20.6220 O.2   102  ASP102     -0.2867
     42  CB        27.1090  -26.0840   19.9190 C.3   102  ASP102      0.1410
     43  CG        28.1490  -27.2220   19.7930 C.2   102  ASP102      0.3668
     44  OD1       28.6770  -27.6860   20.8530 O.co2 102  ASP102     -0.2456
     45  OD2       28.4060  -27.6640   18.6630 O.co2 102  ASP102     -0.2456
     46  N         32.8830  -27.8220   22.3860 N.3   127  ARG127     -0.1245
     47  CA        32.2790  -27.9100   21.0650 C.3   127  ARG127      0.1563
     48  C         31.8690  -29.3580   20.8460 C.2   127  ARG127      0.2260
     49  O         32.7100  -30.2280   20.9570 O.2   127  ARG127     -0.2867
     50  CB        33.2400  -27.4600   19.9780 C.3   127  ARG127      0.0307
     51  CG        32.5460  -27.2510   18.6620 C.3   127  ARG127      0.0489
     52  CD        31.9930  -25.8500   18.4980 C.3   127  ARG127      0.2205
     53  NE        31.5220  -25.6890   17.1270 N.pl3 127  ARG127     -0.0865
     54  CZ        32.2920  -25.4610   16.0680 C.cat 127  ARG127      0.5346
     55  NH1       33.5970  -25.3240   16.2050 N.pl3 127  ARG127      0.1354
     56  NH2       31.7570  -25.3770   14.8510 N.pl3 127  ARG127      0.1354
     57  N         26.5370  -30.2360   15.8690 N.3   130  LEU130     -0.1245
     58  CA        25.1190  -30.1780   15.6500 C.3   130  LEU130      0.1561
     59  C         24.4120  -31.4520   16.0380 C.2   130  LEU130      0.2260
     60  O         23.4490  -31.3920   16.8120 O.2   130  LEU130     -0.2867
     61  CB        24.9170  -29.8840   14.1520 C.3   130  LEU130      0.0270
     62  CG        23.6040  -29.6590   13.3970 C.3   130  LEU130      0.0019
     63  CD1       22.5010  -30.6230   13.7130 C.3   130  LEU130      0.0001
     64  CD2       23.1620  -28.2070   13.4860 C.3   130  LEU130      0.0001
     65  N         24.5710  -32.2040   19.7970 N.3   133  SER133     -0.1217
     66  CA        23.8150  -31.1950   20.4940 C.3   133  SER133      0.1889
     67  C         22.3410  -31.4300   20.3270 C.2   133  SER133      0.2288
     68  O         21.5760  -31.1210   21.2220 O.2   133  SER133     -0.2866
     69  CB        24.1210  -29.8310   19.9130 C.3   133  SER133      0.2089
     70  OG        25.4660  -29.5090   20.1210 O.3   133  SER133     -0.2183
     71  N         17.3720  -24.8430   12.2820 N.3   150  ASP150     -0.1225
     72  CA        18.7080  -24.2540   12.2780 C.3   150  ASP150      0.1805
     73  C         18.5340  -22.9570   12.9520 C.2   150  ASP150      0.2598
     74  O         17.4280  -22.4810   13.0770 O.2   150  ASP150     -0.2718
     75  CB        19.2040  -23.8690   10.8080 C.3   150  ASP150      0.1424
     76  CG        20.0690  -24.8990   10.2460 C.2   150  ASP150      0.3668
     77  OD1       19.9880  -25.9630   10.9250 O.co2 150  ASP150     -0.2456
     78  OD2       20.7590  -24.7210    9.1750 O.co2 150  ASP150     -0.2456
     79  N         19.6170  -22.2870   13.2670 N.am  151  SER151     -0.1938
     80  CA        19.4950  -21.0390   14.0530 C.3   151  SER151      0.2055
     81  C         19.3500  -19.7910   13.1550 C.2   151  SER151      0.2643
     82  O         19.4360  -18.6340   13.6260 O.2   151  SER151     -0.2714
     83  CB        20.6790  -20.8910   15.0280 C.3   151  SER151      0.2130
     84  OG        21.9350  -21.0510   14.3570 O.3   151  SER151     -0.2179
     85  N         19.0990  -19.9950   11.8740 N.am  152  HIS152     -0.1973
     86  CA        18.9330  -18.8630   10.9470 C.3   152  HIS152      0.1656
     87  C         17.7670  -19.1510   10.0250 C.2   152  HIS152      0.2291
     88  O         17.9320  -19.2770    8.7950 O.2   152  HIS152     -0.2864
     89  CB        20.2470  -18.6020   10.2190 C.3   152  HIS152      0.0771
     90  CG        20.9350  -19.8650    9.7570 C.ar  152  HIS152      0.0820
     91  ND1       21.9440  -20.4630   10.4810 N.ar  152  HIS152     -0.2267
     92  CD2       20.6960  -20.6820    8.6970 C.ar  152  HIS152      0.1154
     93  CE1       22.2900  -21.6030    9.8940 C.ar  152  HIS152      0.1986
     94  NE2       21.5940  -21.7330    8.7660 N.ar  152  HIS152     -0.2212
     95  N         17.0770  -32.1790    3.4200 N.3   233  ALA233     -0.1245
     96  CA        18.2050  -31.2470    3.5860 C.3   233  ALA233      0.1562
     97  C         18.8680  -31.4440    4.9100 C.2   233  ALA233      0.2260
     98  O         20.0960  -31.3840    5.0240 O.2   233  ALA233     -0.2867
     99  CB        17.7250  -29.8220    3.4920 C.3   233  ALA233      0.0290
    100  N         18.5390  -29.8920    8.0480 N.3   235  GLY235     -0.1225
    101  CA        18.4080  -28.8390    9.0170 C.3   235  GLY235      0.1811
    102  C         17.0240  -28.6700    9.6250 C.2   235  GLY235      0.2280
    103  O         16.9060  -28.1500   10.7410 O.2   235  GLY235     -0.2866
    104  N         31.8280  -32.3780   14.3840 N.3   256  VAL256     -0.1231
    105  CA        31.2560  -31.1070   14.0350 C.3   256  VAL256      0.1692
    106  C         31.0400  -30.8790   12.5370 C.2   256  VAL256      0.2592
    107  O         30.3350  -29.9560   12.2210 O.2   256  VAL256     -0.2718
    108  CB        32.1260  -29.9630   14.5770 C.3   256  VAL256      0.0266
    109  CG1       33.4870  -29.9470   13.9000 C.3   256  VAL256      0.0020
    110  CG2       31.4300  -28.6180   14.3880 C.3   256  VAL256      0.0020
    111  N         31.6470  -31.6500   11.6150 N.am  257  TRP257     -0.1962
    112  CA        31.6160  -31.2690   10.1730 C.3   257  TRP257      0.1775
    113  C         30.5190  -31.9700    9.3340 C.2   257  TRP257      0.2659
    114  O         30.7550  -33.0650    8.8680 O.2   257  TRP257     -0.2711
    115  CB        32.9860  -31.4850    9.5160 C.3   257  TRP257      0.0591
    116  CG        34.1500  -31.0880   10.3520 C.ar  257  TRP257      0.0006
    117  CD1       34.7930  -31.8600   11.2700 C.ar  257  TRP257      0.0946
    118  CD2       34.8340  -29.8300   10.3420 C.ar  257  TRP257      0.0152
    119  NE1       35.8180  -31.1650   11.8410 N.ar  257  TRP257     -0.2442
    120  CE2       35.8730  -29.9150   11.2880 C.ar  257  TRP257      0.0810
    121  CE3       34.6690  -28.6420    9.6290 C.ar  257  TRP257      0.0012
    122  CZ2       36.7380  -28.8600   11.5420 C.ar  257  TRP257      0.0191
    123  CZ3       35.5350  -27.6060    9.8700 C.ar  257  TRP257      0.0001
    124  CH2       36.5490  -27.7130   10.8270 C.ar  257  TRP257      0.0015
    125  N         29.3490  -31.3270    9.1590 N.am  258  GLY258     -0.1716
    126  CA        28.1140  -31.8550    8.4700 C.2   258  GLY258      0.1480
    127  C         27.9970  -33.3450    8.1350 C.2   258  GLY258      0.2821
    128  O         28.2700  -34.2180    8.9350 O.2   258  GLY258     -0.2669
    129  N         27.3970  -33.7020    7.0220 N.am  259  GLY259     -0.1905
    130  CA        26.1180  -33.2500    6.6700 C.3   259  GLY259      0.2017
    131  C         25.2020  -34.1660    7.4920 C.2   259  GLY259      0.2638
    132  O         25.2930  -35.4040    7.4590 O.2   259  GLY259     -0.2714
    133  N         24.2900  -33.5390    8.2090 N.am  260  GLU260     -0.1977
    134  CA        23.3130  -34.2350    9.0160 C.3   260  GLU260      0.1602
    135  C         22.1570  -34.8390    8.2100 C.2   260  GLU260      0.2287
    136  O         21.3760  -35.5910    8.7010 O.2   260  GLU260     -0.2864
    137  CB        22.8370  -33.3110   10.1430 C.3   260  GLU260      0.0415
    138  CG        22.1270  -32.0410    9.7150 C.3   260  GLU260      0.1163
    139  CD        23.0520  -30.9240    9.2900 C.2   260  GLU260      0.3649
    140  OE1       24.1880  -31.2020    8.9110 O.co2 260  GLU260     -0.2457
    141  OE2       22.6440  -29.7620    9.3030 O.co2 260  GLU260     -0.2457
    142  N         15.1550  -20.0750    5.1350 N.3   285  HIS285     -0.1241
    143  CA        16.4610  -20.3920    5.6500 C.3   285  HIS285      0.1621
    144  C         17.5300  -19.5480    4.9210 C.2   285  HIS285      0.2264
    145  O         17.5270  -19.4660    3.6910 O.2   285  HIS285     -0.2867
    146  CB        16.7270  -21.8610    5.3780 C.3   285  HIS285      0.0745
    147  CG        18.0980  -22.3260    5.7730 C.ar  285  HIS285      0.0817
    148  ND1       19.1180  -22.5510    4.8590 N.ar  285  HIS285     -0.2268
    149  CD2       18.6010  -22.6770    6.9900 C.ar  285  HIS285      0.1154
    150  CE1       20.1980  -22.9980    5.5050 C.ar  285  HIS285      0.1986
    151  NE2       19.9010  -23.0890    6.7980 N.ar  285  HIS285     -0.2212
    152  N         20.5400  -19.1980    3.0900 N.3   287  PHE287     -0.1227
    153  CA        21.5670  -20.0970    2.4730 C.3   287  PHE287      0.1736
    154  C         22.8040  -19.3000    2.2520 C.2   287  PHE287      0.2595
    155  O         22.7050  -18.1120    1.9860 O.2   287  PHE287     -0.2718
    156  CB        21.1330  -20.6840    1.1500 C.3   287  PHE287      0.0547
    157  CG        20.0850  -21.7530    1.2730 C.ar  287  PHE287     -0.0202
    158  CD1       18.7300  -21.4160    1.4840 C.ar  287  PHE287     -0.0042
    159  CD2       20.4290  -23.1050    1.1590 C.ar  287  PHE287     -0.0042
    160  CE1       17.7520  -22.4060    1.5380 C.ar  287  PHE287     -0.0003
    161  CE2       19.4470  -24.0950    1.2350 C.ar  287  PHE287     -0.0003
    162  CZ        18.1110  -23.7430    1.4220 C.ar  287  PHE287     -0.0000
    163  N         23.9710  -19.9140    2.3360 N.am  288  ARG288     -0.1980
    164  CA        25.1760  -19.1560    1.9640 C.3   288  ARG288      0.1597
    165  C         26.3040  -19.9860    1.3380 C.2   288  ARG288      0.2287
    166  O         26.1970  -21.2080    1.2190 O.2   288  ARG288     -0.2864
    167  CB        25.6550  -18.3330    3.1580 C.3   288  ARG288      0.0334
    168  CG        26.1290  -19.1900    4.2790 C.3   288  ARG288      0.0492
    169  CD        25.5950  -18.7230    5.6040 C.3   288  ARG288      0.2205
    170  NE        25.4240  -19.9050    6.4400 N.pl3 288  ARG288     -0.0865
    171  CZ        25.6430  -19.9760    7.7480 C.cat 288  ARG288      0.5346
    172  NH1       26.0350  -18.9180    8.4580 N.pl3 288  ARG288      0.1354
    173  NH2       25.4530  -21.1330    8.3470 N.pl3 288  ARG288      0.1354
    174  N         34.8460  -33.6370    7.1120 N.3   292  PHE292     -0.1241
    175  CA        33.7060  -33.9130    6.2090 C.3   292  PHE292      0.1605
    176  C         33.7550  -35.3770    5.8680 C.2   292  PHE292      0.2264
    177  O         32.7190  -36.0730    5.9190 O.2   292  PHE292     -0.2867
    178  CB        33.6600  -33.1230    4.8680 C.3   292  PHE292      0.0534
    179  CG        33.5470  -31.6220    5.0140 C.ar  292  PHE292     -0.0203
    180  CD1       32.5850  -31.0520    5.8320 C.ar  292  PHE292     -0.0042
    181  CD2       34.3860  -30.7770    4.2800 C.ar  292  PHE292     -0.0042
    182  CE1       32.4820  -29.6710    5.9660 C.ar  292  PHE292     -0.0003
    183  CE2       34.2860  -29.3970    4.3970 C.ar  292  PHE292     -0.0003
    184  CZ        33.3270  -28.8400    5.2410 C.ar  292  PHE292     -0.0000
@<TRIPOS>BOND
     1   156   157    1
     2   156   153    1
     3   159   161   ar
     4   159   157   ar
     5   166   165    2
     6   161   162   ar
     7   157   158   ar
     8   165   164    1
     9   162   160   ar
    10   158   160   ar
    11   164   163    1
    12   164   167    1
    13   155   154    2
    14   154   163   am
    15   154   153    1
    16   153   152    1
    17   167   168    1
    18    95    96    1
    19    99    96    1
    20    96    97    1
    21   145   144    2
    22   168   169    1
    23   181   183   ar
    24   181   179   ar
    25   183   184   ar
    26   148   150   ar
    27   148   147   ar
    28   178   179    1
    29   178   175    1
    30    97    98    2
    31   144   143    1
    32   179   180   ar
    33   142   143    1
    34   184   182   ar
    35   146   143    1
    36   146   147    1
    37   150   151   ar
    38   169   170    1
    39   147   149   ar
    40   180   182   ar
    41   176   177    2
    42   176   175    1
    43   175   174    1
    44   170   171    2
    45   130   129    1
    46   130   131    1
    47   151   149   ar
    48   129   127   am
    49   132   131    2
    50   131   133   am
    51   171   173    1
    52   171   172    1
    53   100   101    1
    54   127   126    1
    55   127   128    2
    56   133   134    1
    57   135   136    2
    58   135   134    1
    59   126   125    2
    60    92    94   ar
    61    92    90   ar
    62    94    93   ar
    63    88    87    2
    64   114   113    2
    65   140   139   ar
    66   134   137    1
    67   101   102    1
    68   125   113    1
    69    78    76   ar
    70   139   141   ar
    71   139   138    1
    72   113   112    1
    73   115   112    1
    74   115   116    1
    75   102   103    2
    76   121   123   ar
    77   121   118   ar
    78   138   137    1
    79    90    89    1
    80    90    91   ar
    81   123   124   ar
    82    93    91   ar
    83    87    86    1
    84   112   111    1
    85    89    86    1
    86    76    75    1
    87    76    77   ar
    88   118   116   ar
    89   118   120   ar
    90   116   117   ar
    91    75    72    1
    92   124   122   ar
    93    86    85    1
    94   117   119   ar
    95   120   122   ar
    96   120   119   ar
    97   111   106   am
    98    85    81   am
    99   107   106    2
   100    72    71    1
   101    72    73    1
   102   106   105    1
   103    36    35   ar
   104    37    35   ar
   105    73    74    2
   106    73    79   am
   107    81    82    2
   108    81    80    1
   109    79    80    1
   110    35    34    1
   111    62    64    1
   112    62    63    1
   113    62    61    1
   114   109   108    1
   115   105   104    1
   116   105   108    1
   117    80    83    1
   118    61    58    1
   119    84    83    1
   120   110   108    1
   121    56    54    1
   122    34    33    1
   123    30    33    1
   124    30    31    1
   125    30    29    1
   126    58    57    1
   127    58    59    1
   128    31    32    2
   129    22    21    2
   130    59    60    2
   131    54    55    1
   132    54    53    2
   133     4     3    2
   134    26    24   ar
   135    26    28   ar
   136    21    20    1
   137    23    24    1
   138    23    20    1
   139     7     5    1
   140    19    20    1
   141    19    10   am
   142    53    52    1
   143    24    25   ar
   144    28    27   ar
   145     9    12    1
   146     9    10    1
   147     9     8    1
   148     3     8   am
   149     3     2    1
   150    12    13    1
   151     5     2    1
   152     5     6    1
   153     1     2    1
   154    10    11    2
   155    52    51    1
   156    27    25   ar
   157    51    50    1
   158    45    43   ar
   159    13    15   ar
   160    13    14   ar
   161    15    17   ar
   162    14    16   ar
   163    43    42    1
   164    43    44   ar
   165    65    66    1
   166    69    70    1
   167    69    66    1
   168    42    39    1
   169    50    47    1
   170    67    66    1
   171    67    68    2
   172    41    40    2
   173    17    18   ar
   174    48    49    2
   175    48    47    1
   176    16    18   ar
   177    47    46    1
   178    39    38    1
   179    39    40    1
