@<TRIPOS>MOLECULE
tmp/5fveA00.pdb
 88 84 0 0 0
SMALL
GASTEIGER

@<TRIPOS>ATOM
      1  N        -15.0340   -7.2100  -13.1240 N.3   173  THR173     -0.1218
      2  CA       -13.9010   -7.9950  -13.6190 C.3   173  THR173      0.1862
      3  C        -14.3340   -9.1260  -14.5490 C.2   173  THR173      0.2287
      4  O        -15.4560   -9.6460  -14.4390 O.2   173  THR173     -0.2866
      5  CB       -13.0540   -8.5840  -12.4720 C.3   173  THR173      0.1770
      6  OG1      -11.8350   -9.1250  -12.9990 O.3   173  THR173     -0.2211
      7  CG2      -13.8050   -9.6860  -11.7080 C.3   173  THR173      0.0375
      8  N        -11.6190  -11.4050  -15.0090 N.3   175  THR175     -0.1203
      9  CA       -10.4210  -12.1950  -14.6460 C.3   175  THR175      0.1994
     10  C         -9.0890  -11.7820  -15.3110 C.2   175  THR175      0.2618
     11  O         -8.0200  -12.0770  -14.7740 O.2   175  THR175     -0.2717
     12  CB       -10.6470  -13.7350  -14.7500 C.3   175  THR175      0.1784
     13  OG1       -9.9380  -14.3730  -13.6880 O.3   175  THR175     -0.2211
     14  CG2      -10.1850  -14.3420  -16.0860 C.3   175  THR175      0.0376
     15  N         -9.1580  -11.1250  -16.4710 N.am  176  LYS176     -0.1965
     16  CA        -7.9760  -10.5740  -17.1520 C.3   176  LYS176      0.1728
     17  C         -7.7080   -9.1150  -16.7680 C.2   176  LYS176      0.2616
     18  O         -6.5690   -8.6320  -16.8420 O.2   176  LYS176     -0.2715
     19  CB        -8.1700  -10.6640  -18.6650 C.3   176  LYS176      0.0311
     20  CG        -8.5610  -12.0440  -19.1910 C.3   176  LYS176      0.0038
     21  CD        -7.6970  -13.1400  -18.5860 C.3   176  LYS176      0.0206
     22  CE        -7.7540  -14.4360  -19.3830 C.3   176  LYS176      0.1093
     23  NZ        -7.0710  -15.5310  -18.6310 N.3   176  LYS176     -0.1314
     24  N         -8.7760   -8.4280  -16.3700 N.am  177  ARG177     -0.1963
     25  CA        -8.7440   -7.0150  -16.0140 C.3   177  ARG177      0.1729
     26  C         -9.8200   -6.7340  -14.9610 C.2   177  ARG177      0.2616
     27  O        -10.8750   -7.3810  -14.9410 O.2   177  ARG177     -0.2715
     28  CB        -8.9970   -6.1620  -17.2400 C.3   177  ARG177      0.0348
     29  CG       -10.1160   -6.7250  -18.0860 C.3   177  ARG177      0.0492
     30  CD       -10.5400   -5.7350  -19.1050 C.3   177  ARG177      0.2205
     31  NE       -11.5920   -6.2680  -19.9500 N.pl3 177  ARG177     -0.0865
     32  CZ       -12.2010   -5.5470  -20.8750 C.cat 177  ARG177      0.5346
     33  NH1      -11.8650   -4.2670  -21.0540 N.pl3 177  ARG177      0.1354
     34  NH2      -13.1550   -6.0920  -21.6090 N.pl3 177  ARG177      0.1354
     35  N         -9.5380   -5.7630  -14.1060 N.am  178  LEU178     -0.1977
     36  CA       -10.4260   -5.3970  -13.0190 C.3   178  LEU178      0.1596
     37  C        -10.5190   -3.8760  -12.9480 C.2   178  LEU178      0.2287
     38  O         -9.5040   -3.2150  -12.7510 O.2   178  LEU178     -0.2864
     39  CB        -9.8800   -5.9670  -11.7060 C.3   178  LEU178      0.0297
     40  CG       -10.7460   -5.7180  -10.4560 C.3   178  LEU178      0.0022
     41  CD1      -10.8500   -6.9570   -9.5780 C.3   178  LEU178      0.0001
     42  CD2      -10.2200   -4.5490   -9.6400 C.3   178  LEU178      0.0001
     43  N        -14.8080  -11.8480   -5.8340 N.3   243  PRO243     -0.2116
     44  CA       -13.3750  -11.8120   -5.5120 C.3   243  PRO243      0.1372
     45  C        -12.9390  -10.6560   -4.6010 C.2   243  PRO243      0.2244
     46  O        -13.3920   -9.5210   -4.7750 O.2   243  PRO243     -0.2868
     47  CB       -12.7150  -11.6580   -6.8870 C.3   243  PRO243      0.0268
     48  CG       -13.6610  -12.2830   -7.8500 C.3   243  PRO243      0.0207
     49  CD       -15.0360  -12.2750   -7.2320 C.3   243  PRO243      0.0892
     50  N         -6.2520   -8.5460   -4.5700 N.3   248  ILE248     -0.1245
     51  CA        -5.7970   -8.6340   -5.9670 C.3   248  ILE248      0.1561
     52  C         -4.9450   -7.4280   -6.3680 C.2   248  ILE248      0.2260
     53  O         -3.8840   -7.6020   -6.9610 O.2   248  ILE248     -0.2867
     54  CB        -6.9910   -8.8080   -6.9450 C.3   248  ILE248      0.0252
     55  CG1       -7.6920  -10.1530   -6.6970 C.3   248  ILE248      0.0019
     56  CG2       -6.5290   -8.7400   -8.4060 C.3   248  ILE248      0.0019
     57  CD1       -9.1350  -10.2020   -7.1570 C.3   248  ILE248      0.0001
     58  N          0.6290   -7.7280  -13.4790 N.3   347  PRO347     -0.2116
     59  CA        -0.4410   -6.7590  -13.6840 C.3   347  PRO347      0.1372
     60  C         -0.0260   -5.2920  -13.5710 C.2   347  PRO347      0.2244
     61  O          0.8070   -4.9460  -12.7310 O.2   347  PRO347     -0.2868
     62  CB        -1.4260   -7.1120  -12.5800 C.3   347  PRO347      0.0268
     63  CG        -1.3090   -8.5950  -12.4700 C.3   347  PRO347      0.0207
     64  CD         0.1420   -8.9050  -12.7260 C.3   347  PRO347      0.0892
     65  N         -6.9190   -2.3160  -13.4890 N.3   361  LEU361     -0.1231
     66  CA        -5.7700   -3.2030  -13.3700 C.3   361  LEU361      0.1693
     67  C         -5.8740   -4.2020  -14.5040 C.2   361  LEU361      0.2592
     68  O         -6.9740   -4.6060  -14.8630 O.2   361  LEU361     -0.2718
     69  CB        -5.7970   -3.9390  -12.0220 C.3   361  LEU361      0.0284
     70  CG        -4.5430   -4.7670  -11.6800 C.3   361  LEU361      0.0019
     71  CD1       -3.4320   -3.8990  -11.1050 C.3   361  LEU361      0.0001
     72  CD2       -4.8960   -5.8980  -10.7180 C.3   361  LEU361      0.0001
     73  N         -4.7380   -4.6200  -15.0460 N.am  362  MET362     -0.1965
     74  CA        -4.7070   -5.3990  -16.2700 C.3   362  MET362      0.1736
     75  C         -3.5300   -6.3690  -16.3000 C.2   362  MET362      0.2616
     76  O         -2.4010   -5.9740  -16.0150 O.2   362  MET362     -0.2715
     77  CB        -4.5380   -4.4160  -17.4240 C.3   362  MET362      0.0427
     78  CG        -5.4090   -4.6680  -18.6190 C.3   362  MET362      0.0599
     79  SD        -5.2140   -3.2610  -19.7290 S.3   362  MET362     -0.1393
     80  CE        -6.2170   -2.0230  -18.9530 C.3   362  MET362      0.0692
     81  N         -3.7940   -7.6150  -16.6860 N.am  363  MET363     -0.1977
     82  CA        -2.7360   -8.5900  -16.9340 C.3   363  MET363      0.1605
     83  C         -2.0270   -8.2520  -18.2510 C.2   363  MET363      0.2287
     84  O         -2.6940   -8.0400  -19.2690 O.2   363  MET363     -0.2864
     85  CB        -3.3060  -10.0140  -17.0250 C.3   363  MET363      0.0413
     86  CG        -3.6940  -10.6370  -15.6870 C.3   363  MET363      0.0598
     87  SD        -4.2680  -12.3350  -15.9010 S.3   363  MET363     -0.1393
     88  CE        -4.9760  -12.6540  -14.2840 C.3   363  MET363      0.0692
@<TRIPOS>BOND
     1    34    32    1
     2    33    32    1
     3    32    31    2
     4    31    30    1
     5    79    80    1
     6    79    78    1
     7    22    23    1
     8    22    21    1
     9    84    83    2
    10    20    19    1
    11    20    21    1
    12    30    29    1
    13    19    16    1
    14    78    77    1
    15    83    82    1
    16    29    28    1
    17    77    74    1
    18    28    25    1
    19    16    17    1
    20    16    15    1
    21    85    82    1
    22    85    86    1
    23    82    81    1
    24    18    17    2
    25    17    24   am
    26    81    75   am
    27    15    10   am
    28    24    25    1
    29    75    74    1
    30    75    76    2
    31    74    73    1
    32    14    12    1
    33    25    26    1
    34    87    86    1
    35    87    88    1
    36    10    11    2
    37    10     9    1
    38    73    67   am
    39     8     9    1
    40    26    27    2
    41    26    35   am
    42    68    67    2
    43    12     9    1
    44    12    13    1
    45     3     4    2
    46     3     2    1
    47    67    66    1
    48    35    36    1
    49    59    60    1
    50    59    58    1
    51    59    62    1
    52     2     1    1
    53     2     5    1
    54    60    61    2
    55    65    66    1
    56    58    64    1
    57    66    69    1
    58    36    37    1
    59    36    39    1
    60     6     5    1
    61    37    38    2
    62    64    63    1
    63    62    63    1
    64     5     7    1
    65    69    70    1
    66    39    40    1
    67    70    71    1
    68    70    72    1
    69    40    42    1
    70    40    41    1
    71    56    54    1
    72    48    49    1
    73    48    47    1
    74    49    43    1
    75    57    55    1
    76    53    52    2
    77    54    55    1
    78    54    51    1
    79    47    44    1
    80    52    51    1
    81    51    50    1
    82    43    44    1
    83    44    45    1
    84    46    45    2
