@<TRIPOS>MOLECULE
tmp/5fvnD01.pdb
 95 91 0 0 0
SMALL
GASTEIGER

@<TRIPOS>ATOM
      1  N         17.0310  -31.5390   74.8620 N.3    88  PHE88      -0.1241
      2  CA        17.4590  -31.6020   76.2740 C.3    88  PHE88       0.1605
      3  C         18.1990  -30.3140   76.6100 C.2    88  PHE88       0.2264
      4  O         19.0800  -29.8750   75.8610 O.2    88  PHE88      -0.2867
      5  CB        18.3990  -32.7660   76.5180 C.3    88  PHE88       0.0534
      6  CG        18.9760  -32.7750   77.9140 C.ar   88  PHE88      -0.0203
      7  CD1       18.1850  -33.2250   78.9770 C.ar   88  PHE88      -0.0042
      8  CD2       20.2380  -32.2820   78.1760 C.ar   88  PHE88      -0.0042
      9  CE1       18.6640  -33.1940   80.2790 C.ar   88  PHE88      -0.0003
     10  CE2       20.7200  -32.2600   79.4900 C.ar   88  PHE88      -0.0003
     11  CZ        19.9200  -32.7240   80.5320 C.ar   88  PHE88      -0.0000
     12  N         16.8970  -30.1270   84.5460 N.3   129  ALA129     -0.1245
     13  CA        17.2680  -30.9370   83.4100 C.3   129  ALA129      0.1562
     14  C         15.9470  -31.2630   82.7350 C.2   129  ALA129      0.2260
     15  O         15.0770  -31.9330   83.3160 O.2   129  ALA129     -0.2867
     16  CB        17.9700  -32.1940   83.9060 C.3   129  ALA129      0.0290
     17  N         13.7830  -32.5940   79.3230 N.3   131  TYR131     -0.1241
     18  CA        13.5710  -33.2810   78.0550 C.3   131  TYR131      0.1605
     19  C         12.2340  -32.8390   77.4860 C.2   131  TYR131      0.2264
     20  O         11.2160  -32.8950   78.1810 O.2   131  TYR131     -0.2867
     21  CB        13.5240  -34.8080   78.2310 C.3   131  TYR131      0.0534
     22  CG        13.1710  -35.5010   76.9510 C.ar  131  TYR131     -0.0201
     23  CD1       14.0910  -35.5750   75.9030 C.ar  131  TYR131     -0.0009
     24  CD2       11.9020  -36.0510   76.7600 C.ar  131  TYR131     -0.0009
     25  CE1       13.7630  -36.1850   74.7020 C.ar  131  TYR131      0.0417
     26  CE2       11.5720  -36.6650   75.5770 C.ar  131  TYR131      0.0417
     27  CZ        12.5040  -36.7290   74.5500 C.ar  131  TYR131      0.1957
     28  OH        12.1690  -37.3360   73.3660 O.3   131  TYR131     -0.2866
     29  N          9.4770  -34.0400   80.1750 N.3   147  VAL147     -0.1231
     30  CA         9.8260  -34.6770   81.4330 C.3   147  VAL147      0.1692
     31  C         10.9900  -33.8830   82.0180 C.2   147  VAL147      0.2592
     32  O         11.9510  -33.5490   81.3030 O.2   147  VAL147     -0.2718
     33  CB        10.2130  -36.1500   81.2210 C.3   147  VAL147      0.0266
     34  CG1       10.4770  -36.8340   82.5670 C.3   147  VAL147      0.0020
     35  CG2        9.1080  -36.8810   80.4720 C.3   147  VAL147      0.0020
     36  N         10.9190  -33.5890   83.3210 N.am  148  GLN148     -0.1966
     37  CA        11.8880  -32.7100   83.9440 C.3   148  GLN148      0.1733
     38  C         12.3400  -33.2180   85.3090 C.2   148  GLN148      0.2616
     39  O         11.5190  -33.7610   86.0370 O.2   148  GLN148     -0.2715
     40  CB        11.2670  -31.3290   84.0960 C.3   148  GLN148      0.0408
     41  CG        12.1910  -30.2090   84.5240 C.3   148  GLN148      0.0908
     42  CD        11.4230  -28.9030   84.5420 C.2   148  GLN148      0.2608
     43  OE1       10.4550  -28.7420   85.2840 O.2   148  GLN148     -0.2717
     44  NE2       11.8340  -27.9570   83.7140 N.am  148  GLN148     -0.0878
     45  N         13.6170  -33.0100   85.6130 N.am  149  TYR149     -0.1974
     46  CA        14.2050  -33.2870   86.9130 C.3   149  TYR149      0.1639
     47  C         14.7790  -31.9760   87.4440 C.2   149  TYR149      0.2290
     48  O         15.3350  -31.1980   86.6780 O.2   149  TYR149     -0.2864
     49  CB        15.3480  -34.3060   86.7940 C.3   149  TYR149      0.0560
     50  CG        16.0980  -34.5360   88.0610 C.ar  149  TYR149     -0.0198
     51  CD1       15.5770  -35.3320   89.0800 C.ar  149  TYR149     -0.0009
     52  CD2       17.3190  -33.9040   88.2970 C.ar  149  TYR149     -0.0009
     53  CE1       16.2650  -35.5100   90.2700 C.ar  149  TYR149      0.0417
     54  CE2       18.0080  -34.0790   89.4710 C.ar  149  TYR149      0.0417
     55  CZ        17.4680  -34.8720   90.4670 C.ar  149  TYR149      0.1957
     56  OH        18.1720  -35.0580   91.6280 O.3   149  TYR149     -0.2866
     57  N         15.2170  -32.8320   95.6140 N.3   174  ASP174     -0.1225
     58  CA        15.1890  -33.4190   94.2600 C.3   174  ASP174      0.1805
     59  C         13.7300  -33.5630   93.8060 C.2   174  ASP174      0.2598
     60  O         12.8620  -33.9930   94.5850 O.2   174  ASP174     -0.2718
     61  CB        15.8190  -34.8100   94.2010 C.3   174  ASP174      0.1424
     62  CG        17.3180  -34.8190   94.5920 C.2   174  ASP174      0.3668
     63  OD1       17.9990  -33.7840   94.5450 O.co2 174  ASP174     -0.2456
     64  OD2       17.8070  -35.9280   94.9130 O.co2 174  ASP174     -0.2456
     65  N         13.4500  -33.1430   92.5690 N.am  175  GLY175     -0.1942
     66  CA        12.0940  -33.1970   92.0740 C.3   175  GLY175      0.2014
     67  C         11.9550  -33.7360   90.6580 C.2   175  GLY175      0.2638
     68  O         12.9280  -33.7050   89.8800 O.2   175  GLY175     -0.2714
     69  N         10.7410  -34.1860   90.3330 N.am  176  VAL176     -0.1977
     70  CA        10.3910  -34.6890   89.0130 C.3   176  VAL176      0.1596
     71  C          9.0390  -34.1400   88.5870 C.2   176  VAL176      0.2287
     72  O          8.1200  -34.0240   89.4070 O.2   176  VAL176     -0.2864
     73  CB        10.4270  -36.2350   88.9490 C.3   176  VAL176      0.0276
     74  CG1        9.4810  -36.8810   89.9350 C.3   176  VAL176      0.0022
     75  CG2       10.1430  -36.7060   87.5300 C.3   176  VAL176      0.0022
     76  N         10.7970  -33.2960   96.5590 N.3   198  LYS198     -0.1245
     77  CA        11.1700  -33.4570   97.9660 C.3   198  LYS198      0.1561
     78  C         11.3360  -32.0710   98.5640 C.2   198  LYS198      0.2260
     79  O         11.7660  -31.1280   97.9000 O.2   198  LYS198     -0.2867
     80  CB        12.4720  -34.2340   98.1040 C.3   198  LYS198      0.0271
     81  CG        12.3330  -35.6940   97.7230 C.3   198  LYS198      0.0035
     82  CD        11.6620  -36.5190   98.8140 C.3   198  LYS198      0.0206
     83  CE        12.5720  -36.7540  100.0160 C.3   198  LYS198      0.1093
     84  NZ        12.0140  -37.7680  100.9660 N.3   198  LYS198     -0.1314
     85  N          6.8310  -33.9760  100.6000 N.3   213  ARG213     -0.1245
     86  CA         6.8570  -33.5300   99.2040 C.3   213  ARG213      0.1563
     87  C          5.9410  -32.3350   98.9320 C.2   213  ARG213      0.2260
     88  O          4.8780  -32.1830   99.5400 O.2   213  ARG213     -0.2867
     89  CB         6.4820  -34.7010   98.2850 C.3   213  ARG213      0.0307
     90  CG         7.6730  -35.6210   98.0520 C.3   213  ARG213      0.0489
     91  CD         7.3390  -36.8800   97.2470 C.3   213  ARG213      0.2205
     92  NE         8.5870  -37.5910   96.8770 N.pl3 213  ARG213     -0.0865
     93  CZ         9.3930  -37.3330   95.8340 C.cat 213  ARG213      0.5346
     94  NH1        9.1000  -36.3670   94.9830 N.pl3 213  ARG213      0.1354
     95  NH2       10.4740  -38.0580   95.7150 N.pl3 213  ARG213      0.1354
@<TRIPOS>BOND
     1    28    27    1
     2    27    25   ar
     3    27    26   ar
     4    25    23   ar
     5     1     2    1
     6    26    24   ar
     7     4     3    2
     8    23    22   ar
     9     2     5    1
    10     2     3    1
    11     5     6    1
    12    24    22   ar
    13    22    21    1
    14    19    18    1
    15    19    20    2
    16     6     8   ar
    17     6     7   ar
    18    18    21    1
    19    18    17    1
    20     8    10   ar
    21     7     9   ar
    22    10    11   ar
    23    29    30    1
    24     9    11   ar
    25    35    33    1
    26    33    30    1
    27    33    34    1
    28    32    31    2
    29    30    31    1
    30    31    36   am
    31    14    15    2
    32    14    13    1
    33    36    37    1
    34    13    16    1
    35    13    12    1
    36    44    42   am
    37    37    40    1
    38    37    38    1
    39    40    41    1
    40    41    42    1
    41    42    43    2
    42    38    45   am
    43    38    39    2
    44    45    46    1
    45    48    47    2
    46    49    46    1
    47    49    50    1
    48    46    47    1
    49    75    73    1
    50    50    52   ar
    51    50    51   ar
    52    52    54   ar
    53    71    70    1
    54    71    72    2
    55    73    70    1
    56    73    74    1
    57    70    69    1
    58    51    53   ar
    59    54    55   ar
    60    68    67    2
    61    53    55   ar
    62    69    67   am
    63    55    56    1
    64    67    66    1
    65    66    65    1
    66    65    59   am
    67    59    58    1
    68    59    60    2
    69    61    58    1
    70    61    62    1
    71    58    57    1
    72    63    62   ar
    73    62    64   ar
    74    94    93    1
    75    95    93    1
    76    93    92    2
    77    76    77    1
    78    92    91    1
    79    91    90    1
    80    81    80    1
    81    81    82    1
    82    79    78    2
    83    77    80    1
    84    77    78    1
    85    90    89    1
    86    89    86    1
    87    82    83    1
    88    87    86    1
    89    87    88    2
    90    86    85    1
    91    83    84    1
