@<TRIPOS>MOLECULE
tmp/5fvnF05.pdb
 97 92 0 0 0
SMALL
GASTEIGER

@<TRIPOS>ATOM
      1  N         12.4320   24.1480   75.0790 N.3   145  PHE145     -0.1227
      2  CA        12.0840   24.0410   76.4930 C.3   145  PHE145      0.1736
      3  C         11.6960   22.6330   76.9060 C.2   145  PHE145      0.2595
      4  O         11.3770   21.7870   76.0800 O.2   145  PHE145     -0.2718
      5  CB        11.0160   25.0880   76.8750 C.3   145  PHE145      0.0547
      6  CG         9.6200   24.7590   76.4340 C.ar  145  PHE145     -0.0202
      7  CD1        8.7590   24.0370   77.2470 C.ar  145  PHE145     -0.0042
      8  CD2        9.1350   25.2030   75.1990 C.ar  145  PHE145     -0.0042
      9  CE1        7.4690   23.7690   76.8470 C.ar  145  PHE145     -0.0003
     10  CE2        7.8540   24.9320   74.8000 C.ar  145  PHE145     -0.0003
     11  CZ         7.0090   24.1940   75.5940 C.ar  145  PHE145     -0.0000
     12  N         11.7560   22.3980   78.2170 N.am  146  ALA146     -0.1966
     13  CA        11.3950   21.1170   78.7950 C.3   146  ALA146      0.1728
     14  C         10.6390   21.3350   80.0870 C.2   146  ALA146      0.2616
     15  O         10.8860   22.3080   80.7900 O.2   146  ALA146     -0.2715
     16  CB        12.6360   20.2650   79.0580 C.3   146  ALA146      0.0334
     17  N          9.7080   20.4360   80.3510 N.am  147  VAL147     -0.1977
     18  CA         8.9780   20.4150   81.6070 C.3   147  VAL147      0.1596
     19  C          9.0790   18.9890   82.1370 C.2   147  VAL147      0.2287
     20  O          8.9050   18.0130   81.3940 O.2   147  VAL147     -0.2864
     21  CB         7.5030   20.8100   81.4280 C.3   147  VAL147      0.0276
     22  CG1        6.8140   20.9140   82.7880 C.3   147  VAL147      0.0022
     23  CG2        7.3740   22.1390   80.6780 C.3   147  VAL147      0.0022
     24  N          8.7930   19.1770   90.4920 N.3   176  VAL176     -0.1231
     25  CA         8.5750   19.7280   89.1540 C.3   176  VAL176      0.1692
     26  C          9.7080   20.6740   88.7800 C.2   176  VAL176      0.2593
     27  O         10.2520   21.3900   89.6120 O.2   176  VAL176     -0.2718
     28  CB         7.1880   20.4250   89.0330 C.3   176  VAL176      0.0266
     29  CG1        7.0420   21.5460   90.0480 C.3   176  VAL176      0.0020
     30  CG2        6.9400   20.9370   87.6050 C.3   176  VAL176      0.0020
     31  N         10.0810   20.6600   87.5010 N.am  177  GLY177     -0.1942
     32  CA        11.1280   21.5330   87.0150 C.3   177  GLY177      0.2014
     33  C         10.9660   21.8230   85.5440 C.2   177  GLY177      0.2639
     34  O         10.1410   21.2150   84.8430 O.2   177  GLY177     -0.2714
     35  N         11.7680   22.7670   85.0800 N.am  178  GLY178     -0.1939
     36  CA        11.7810   23.1110   83.6710 C.3   178  GLY178      0.2014
     37  C         13.0730   23.7480   83.2520 C.2   178  GLY178      0.2640
     38  O         13.8600   24.1950   84.0780 O.2   178  GLY178     -0.2714
     39  N         13.2740   23.7720   81.9440 N.am  179  SER179     -0.1935
     40  CA        14.4270   24.4510   81.3450 C.3   179  SER179      0.2055
     41  C         14.0220   25.1390   80.0620 C.2   179  SER179      0.2642
     42  O         13.0710   24.7300   79.4030 O.2   179  SER179     -0.2714
     43  CB        15.5620   23.4620   81.0320 C.3   179  SER179      0.2130
     44  OG        15.1750   22.5760   80.0000 O.3   179  SER179     -0.2179
     45  N         14.7830   26.1870   79.7370 N.am  180  ILE180     -0.1977
     46  CA        14.6580   26.9340   78.4940 C.3   180  ILE180      0.1596
     47  C         16.0750   27.2110   78.0010 C.2   180  ILE180      0.2287
     48  O         16.9040   27.6980   78.7610 O.2   180  ILE180     -0.2864
     49  CB        13.9260   28.2910   78.6660 C.3   180  ILE180      0.0276
     50  CG1       12.5420   28.0980   79.2970 C.3   180  ILE180      0.0022
     51  CG2       13.8120   28.9990   77.3120 C.3   180  ILE180      0.0022
     52  CD1       11.8660   29.4000   79.6890 C.3   180  ILE180      0.0001
     53  N         14.9050   25.6830   86.3630 N.3   194  VAL194     -0.1245
     54  CA        14.4060   25.8100   87.7300 C.3   194  VAL194      0.1561
     55  C         13.8670   24.4410   88.1310 C.2   194  VAL194      0.2260
     56  O         13.2850   23.7460   87.3070 O.2   194  VAL194     -0.2867
     57  CB        13.2800   26.8730   87.8230 C.3   194  VAL194      0.0252
     58  CG1       12.6710   26.9240   89.2220 C.3   194  VAL194      0.0019
     59  CG2       13.8170   28.2430   87.4360 C.3   194  VAL194      0.0019
     60  N         11.9100   22.3720   91.7130 N.3   196  SER196     -0.1217
     61  CA        11.2940   22.4820   93.0250 C.3   196  SER196      0.1889
     62  C         10.7470   21.1140   93.4200 C.2   196  SER196      0.2288
     63  O          9.8000   20.6280   92.8070 O.2   196  SER196     -0.2866
     64  CB        10.1550   23.4830   92.9610 C.3   196  SER196      0.2089
     65  OG         9.6230   23.6880   94.2410 O.3   196  SER196     -0.2183
     66  N         10.8900   22.2010  100.8480 N.3   213  ARG213     -0.1245
     67  CA        11.2640   21.9850   99.4440 C.3   213  ARG213      0.1563
     68  C         12.7540   22.1870   99.2210 C.2   213  ARG213      0.2260
     69  O         13.3950   23.0170   99.8730 O.2   213  ARG213     -0.2867
     70  CB        10.4890   22.9240   98.5180 C.3   213  ARG213      0.0307
     71  CG         9.0510   22.4640   98.2800 C.3   213  ARG213      0.0489
     72  CD         8.2870   23.3520   97.3090 C.3   213  ARG213      0.2205
     73  NE         6.9880   22.7240   97.0080 N.pl3 213  ARG213     -0.0865
     74  CZ         6.7860   21.8370   96.0350 C.cat 213  ARG213      0.5346
     75  NH1        5.5780   21.3060   95.9030 N.pl3 213  ARG213      0.1354
     76  NH2        7.7480   21.5030   95.1880 N.pl3 213  ARG213      0.1354
     77  N         15.0560   23.4540   96.2030 N.3   215  GLU215     -0.1245
     78  CA        14.8590   24.3080   95.0350 C.3   215  GLU215      0.1567
     79  C         16.1800   24.6770   94.4210 C.2   215  GLU215      0.2260
     80  O         17.1610   24.8790   95.1310 O.2   215  GLU215     -0.2867
     81  CB        14.1300   25.6020   95.4180 C.3   215  GLU215      0.0388
     82  CG        12.7510   25.3840   96.0170 C.3   215  GLU215      0.1160
     83  CD        12.1810   26.6470   96.6260 C.2   215  GLU215      0.3649
     84  OE1       12.4250   27.7680   96.1290 O.co2 215  GLU215     -0.2457
     85  OE2       11.4700   26.5100   97.5960 O.co2 215  GLU215     -0.2457
     86  N         17.8710   27.1830   91.0780 N.3   217  TYR217     -0.1241
     87  CA        17.7140   28.2020   90.0330 C.3   217  TYR217      0.1605
     88  C         19.0480   28.3720   89.3100 C.2   217  TYR217      0.2264
     89  O         20.0600   28.6900   89.9470 O.2   217  TYR217     -0.2867
     90  CB        17.2860   29.5340   90.6710 C.3   217  TYR217      0.0534
     91  CG        16.0740   29.3860   91.5590 C.ar  217  TYR217     -0.0201
     92  CD1       14.8040   29.3930   91.0190 C.ar  217  TYR217     -0.0009
     93  CD2       16.2020   29.1610   92.9300 C.ar  217  TYR217     -0.0009
     94  CE1       13.6920   29.2080   91.8060 C.ar  217  TYR217      0.0417
     95  CE2       15.0840   28.9840   93.7280 C.ar  217  TYR217      0.0417
     96  CZ        13.8260   29.0220   93.1600 C.ar  217  TYR217      0.1957
     97  OH        12.6910   28.8420   93.9160 O.3   217  TYR217     -0.2866
@<TRIPOS>BOND
     1    10     8   ar
     2    10    11   ar
     3     1     2    1
     4     8     6   ar
     5    11     9   ar
     6     4     3    2
     7     6     5    1
     8     6     7   ar
     9     2     5    1
    10     2     3    1
    11     9     7   ar
    12     3    12   am
    13    51    49    1
    14    47    46    1
    15    47    48    2
    16    12    13    1
    17    46    49    1
    18    46    45    1
    19    49    50    1
    20    13    16    1
    21    13    14    1
    22    50    52    1
    23    42    41    2
    24    45    41   am
    25    44    43    1
    26    41    40    1
    27    14    17   am
    28    14    15    2
    29    17    18    1
    30    23    21    1
    31    43    40    1
    32    40    39    1
    33    20    19    2
    34    21    18    1
    35    21    22    1
    36    18    19    1
    37    39    37   am
    38    37    36    1
    39    37    38    2
    40    36    35    1
    41    34    33    2
    42    35    33   am
    43    33    32    1
    44    53    54    1
    45    32    31    1
    46    56    55    2
    47    59    57    1
    48    31    26   am
    49    30    28    1
    50    54    57    1
    51    54    55    1
    52    57    58    1
    53    26    25    1
    54    26    27    2
    55    28    25    1
    56    28    29    1
    57    25    24    1
    58    88    89    2
    59    88    87    1
    60    87    90    1
    61    87    86    1
    62    90    91    1
    63    92    91   ar
    64    92    94   ar
    65    91    93   ar
    66    60    61    1
    67    94    96   ar
    68    63    62    2
    69    93    95   ar
    70    64    61    1
    71    64    65    1
    72    61    62    1
    73    96    95   ar
    74    96    97    1
    75    79    78    1
    76    79    80    2
    77    78    81    1
    78    78    77    1
    79    76    74    1
    80    81    82    1
    81    75    74    1
    82    82    83    1
    83    74    73    2
    84    84    83   ar
    85    83    85   ar
    86    73    72    1
    87    72    71    1
    88    71    70    1
    89    70    67    1
    90    68    67    1
    91    68    69    2
    92    67    66    1
