@<TRIPOS>MOLECULE
tmp/5fvnF02.pdb
 96 90 0 0 0
SMALL
GASTEIGER

@<TRIPOS>ATOM
      1  N         11.9100   22.3720   91.7130 N.3   196  SER196     -0.1217
      2  CA        11.2940   22.4820   93.0250 C.3   196  SER196      0.1889
      3  C         10.7470   21.1140   93.4200 C.2   196  SER196      0.2288
      4  O          9.8000   20.6280   92.8070 O.2   196  SER196     -0.2866
      5  CB        10.1550   23.4830   92.9610 C.3   196  SER196      0.2089
      6  OG         9.6230   23.6880   94.2410 O.3   196  SER196     -0.2183
      7  N         17.1600   21.5960  106.6210 N.3   210  ASN210     -0.1225
      8  CA        15.7140   21.3150  106.6630 C.3   210  ASN210      0.1785
      9  C         14.9240   22.3110  105.8470 C.2   210  ASN210      0.2598
     10  O         15.3250   23.4810  105.6640 O.2   210  ASN210     -0.2718
     11  CB        15.1350   21.4200  108.0850 C.3   210  ASN210      0.1169
     12  CG        15.6700   20.3950  109.0750 C.2   210  ASN210      0.2627
     13  OD1       15.2680   20.4520  110.2340 O.2   210  ASN210     -0.2716
     14  ND2       16.4920   19.4550  108.6710 N.am  210  ASN210     -0.0877
     15  N         13.7730   21.8410  105.3890 N.am  211  GLY211     -0.1942
     16  CA        12.8190   22.6750  104.7150 C.3   211  GLY211      0.2014
     17  C         11.7970   21.8530  103.9570 C.2   211  GLY211      0.2639
     18  O         12.0090   20.6720  103.6650 O.2   211  GLY211     -0.2714
     19  N         10.6940   22.5150  103.6170 N.am  212  ASP212     -0.1957
     20  CA         9.6200   21.8690  102.8790 C.3   212  ASP212      0.1840
     21  C         10.0540   21.3940  101.4950 C.2   212  ASP212      0.2621
     22  O          9.6420   20.3320  101.0460 O.2   212  ASP212     -0.2715
     23  CB         8.4490   22.8420  102.7200 C.3   212  ASP212      0.1450
     24  CG         7.2070   22.1760  102.1690 C.2   212  ASP212      0.3671
     25  OD1        6.8910   21.0390  102.5680 O.co2 212  ASP212     -0.2456
     26  OD2        6.5240   22.8050  101.3470 O.co2 212  ASP212     -0.2456
     27  N         10.8900   22.2010  100.8480 N.am  213  ARG213     -0.1977
     28  CA        11.2640   21.9850   99.4440 C.3   213  ARG213      0.1597
     29  C         12.7540   22.1870   99.2210 C.2   213  ARG213      0.2287
     30  O         13.3950   23.0170   99.8730 O.2   213  ARG213     -0.2864
     31  CB        10.4890   22.9240   98.5180 C.3   213  ARG213      0.0334
     32  CG         9.0510   22.4640   98.2800 C.3   213  ARG213      0.0492
     33  CD         8.2870   23.3520   97.3090 C.3   213  ARG213      0.2205
     34  NE         6.9880   22.7240   97.0080 N.pl3 213  ARG213     -0.0865
     35  CZ         6.7860   21.8370   96.0350 C.cat 213  ARG213      0.5346
     36  NH1        5.5780   21.3060   95.9030 N.pl3 213  ARG213      0.1354
     37  NH2        7.7480   21.5030   95.1880 N.pl3 213  ARG213      0.1354
     38  N         15.0560   23.4540   96.2030 N.3   215  GLU215     -0.1245
     39  CA        14.8590   24.3080   95.0350 C.3   215  GLU215      0.1567
     40  C         16.1800   24.6770   94.4210 C.2   215  GLU215      0.2260
     41  O         17.1610   24.8790   95.1310 O.2   215  GLU215     -0.2867
     42  CB        14.1300   25.6020   95.4180 C.3   215  GLU215      0.0388
     43  CG        12.7510   25.3840   96.0170 C.3   215  GLU215      0.1160
     44  CD        12.1810   26.6470   96.6260 C.2   215  GLU215      0.3649
     45  OE1       12.4250   27.7680   96.1290 O.co2 215  GLU215     -0.2457
     46  OE2       11.4700   26.5100   97.5960 O.co2 215  GLU215     -0.2457
     47  N         17.8710   27.1830   91.0780 N.3   217  TYR217     -0.1241
     48  CA        17.7140   28.2020   90.0330 C.3   217  TYR217      0.1605
     49  C         19.0480   28.3720   89.3100 C.2   217  TYR217      0.2264
     50  O         20.0600   28.6900   89.9470 O.2   217  TYR217     -0.2867
     51  CB        17.2860   29.5340   90.6710 C.3   217  TYR217      0.0534
     52  CG        16.0740   29.3860   91.5590 C.ar  217  TYR217     -0.0201
     53  CD1       14.8040   29.3930   91.0190 C.ar  217  TYR217     -0.0009
     54  CD2       16.2020   29.1610   92.9300 C.ar  217  TYR217     -0.0009
     55  CE1       13.6920   29.2080   91.8060 C.ar  217  TYR217      0.0417
     56  CE2       15.0840   28.9840   93.7280 C.ar  217  TYR217      0.0417
     57  CZ        13.8260   29.0220   93.1600 C.ar  217  TYR217      0.1957
     58  OH        12.6910   28.8420   93.9160 O.3   217  TYR217     -0.2866
     59  N         21.8490   28.7020   92.1910 N.3   236  GLN236     -0.1245
     60  CA        21.5720   28.9820   93.5840 C.3   236  GLN236      0.1566
     61  C         20.5760   27.9200   94.0520 C.2   236  GLN236      0.2260
     62  O         19.5540   27.6720   93.3960 O.2   236  GLN236     -0.2867
     63  CB        21.0210   30.3920   93.7250 C.3   236  GLN236      0.0367
     64  CG        20.7960   30.8330   95.1660 C.3   236  GLN236      0.0905
     65  CD        20.9720   32.3340   95.3350 C.2   236  GLN236      0.2608
     66  OE1       21.9580   32.9120   94.8640 O.2   236  GLN236     -0.2717
     67  NE2       19.9990   32.9820   95.9720 N.am  236  GLN236     -0.0878
     68  N         18.5280   25.7750   97.4420 N.3   238  TYR238     -0.1241
     69  CA        17.9030   25.8150   98.7580 C.3   238  TYR238      0.1605
     70  C         17.5810   24.3940   99.2160 C.2   238  TYR238      0.2264
     71  O         16.8050   23.6990   98.5620 O.2   238  TYR238     -0.2867
     72  CB        16.6190   26.6480   98.7120 C.3   238  TYR238      0.0534
     73  CG        16.8740   28.0910   98.3860 C.ar  238  TYR238     -0.0201
     74  CD1       16.9130   28.5260   97.0660 C.ar  238  TYR238     -0.0009
     75  CD2       17.1280   29.0220   99.3970 C.ar  238  TYR238     -0.0009
     76  CE1       17.1610   29.8380   96.7570 C.ar  238  TYR238      0.0417
     77  CE2       17.3930   30.3490   99.0940 C.ar  238  TYR238      0.0417
     78  CZ        17.4030   30.7530   97.7620 C.ar  238  TYR238      0.1957
     79  OH        17.6650   32.0560   97.4020 O.3   238  TYR238     -0.2866
     80  N         21.3010   27.0880  102.0600 N.3   251  LYS251     -0.1245
     81  CA        21.4530   27.7680  100.7770 C.3   251  LYS251      0.1561
     82  C         22.8440   27.4630  100.2660 C.2   251  LYS251      0.2260
     83  O         23.7850   27.3440  101.0540 O.2   251  LYS251     -0.2867
     84  CB        21.2320   29.2770  100.9440 C.3   251  LYS251      0.0271
     85  CG        21.3860   30.1570   99.7140 C.3   251  LYS251      0.0035
     86  CD        20.9080   31.5700  100.0540 C.3   251  LYS251      0.0206
     87  CE        21.5090   32.6190   99.1450 C.3   251  LYS251      0.1093
     88  NZ        20.8640   33.9360   99.4040 N.3   251  LYS251     -0.1314
     89  N         24.5350   29.3940  106.0020 N.3   280  ASP280     -0.1239
     90  CA        23.6200   29.1590  107.1280 C.3   280  ASP280      0.1674
     91  C         23.6050   27.7000  107.5870 C.2   280  ASP280      0.2266
     92  O         22.5660   27.1970  107.9850 O.2   280  ASP280     -0.2867
     93  CB        22.1700   29.6000  106.8010 C.3   280  ASP280      0.1410
     94  CG        22.0360   31.0770  106.5120 C.2   280  ASP280      0.3668
     95  OD1       22.9180   31.8780  106.8730 O.co2 280  ASP280     -0.2456
     96  OD2       20.9920   31.4380  105.9360 O.co2 280  ASP280     -0.2456
@<TRIPOS>BOND
     1    49    50    2
     2    49    48    1
     3    48    51    1
     4    48    47    1
     5    51    52    1
     6    53    52   ar
     7    53    55   ar
     8    52    54   ar
     9     1     2    1
    10    55    57   ar
    11    59    60    1
    12     4     3    2
    13    54    56   ar
    14     5     2    1
    15     5     6    1
    16     2     3    1
    17    57    56   ar
    18    57    58    1
    19    62    61    2
    20    60    63    1
    21    60    61    1
    22    63    64    1
    23    40    39    1
    24    40    41    2
    25    66    65    2
    26    39    42    1
    27    39    38    1
    28    64    65    1
    29    37    35    1
    30    65    67   am
    31    42    43    1
    32    36    35    1
    33    43    44    1
    34    35    34    2
    35    45    44   ar
    36    44    46   ar
    37    76    74   ar
    38    76    78   ar
    39    34    33    1
    40    74    73   ar
    41    33    32    1
    42    79    78    1
    43    68    69    1
    44    78    77   ar
    45    32    31    1
    46    73    72    1
    47    73    75   ar
    48    31    28    1
    49    71    70    2
    50    72    69    1
    51    69    70    1
    52    77    75   ar
    53    87    88    1
    54    87    86    1
    55    29    28    1
    56    29    30    2
    57    28    27    1
    58    85    86    1
    59    85    84    1
    60    82    81    1
    61    82    83    2
    62    81    84    1
    63    81    80    1
    64    27    21   am
    65    22    21    2
    66    26    24   ar
    67    21    20    1
    68    24    25   ar
    69    24    23    1
    70    23    20    1
    71    20    19    1
    72    19    17   am
    73    18    17    2
    74    17    16    1
    75    16    15    1
    76    15     9   am
    77    10     9    2
    78     9     8    1
    79    96    94   ar
    80    89    90    1
    81    94    93    1
    82    94    95   ar
    83     7     8    1
    84     8    11    1
    85    93    90    1
    86    90    91    1
    87    91    92    2
    88    11    12    1
    89    14    12   am
    90    12    13    2
