@<TRIPOS>MOLECULE
tmp/5fvnE00.pdb
 80 78 0 0 0
SMALL
GASTEIGER

@<TRIPOS>ATOM
      1  N         25.8620  -25.0040   81.4900 N.3    19  GLY19      -0.1210
      2  CA        24.9420  -25.7900   82.3000 C.3    19  GLY19       0.1956
      3  C         25.7850  -26.8340   82.9840 C.2    19  GLY19       0.2612
      4  O         26.2190  -27.7970   82.3620 O.2    19  GLY19      -0.2717
      5  N         26.0050  -26.6430   84.2980 N.am   20  LEU20      -0.1965
      6  CA        27.0770  -27.3230   84.9970 C.3    20  LEU20       0.1728
      7  C         26.5670  -27.8600   86.3570 C.2    20  LEU20       0.2616
      8  O         25.8820  -27.1440   87.0990 O.2    20  LEU20      -0.2715
      9  CB        28.2100  -26.3410   85.2760 C.3    20  LEU20       0.0311
     10  CG        29.4860  -26.8660   85.9780 C.3    20  LEU20       0.0022
     11  CD1       30.1910  -27.9960   85.2460 C.3    20  LEU20       0.0001
     12  CD2       30.4090  -25.6750   86.1870 C.3    20  LEU20       0.0001
     13  N         26.9160  -29.1050   86.6380 N.am   21  HIS21      -0.1973
     14  CA        26.5200  -29.7410   87.9090 C.3    21  HIS21       0.1656
     15  C         27.7100  -30.4780   88.5050 C.2    21  HIS21       0.2291
     16  O         28.4130  -31.1940   87.8030 O.2    21  HIS21      -0.2864
     17  CB        25.3760  -30.7260   87.6780 C.3    21  HIS21       0.0771
     18  CG        24.7050  -31.1330   88.9440 C.ar   21  HIS21       0.0820
     19  ND1       23.5480  -30.5330   89.3800 N.ar   21  HIS21      -0.2267
     20  CD2       25.0420  -32.0400   89.8830 C.ar   21  HIS21       0.1154
     21  CE1       23.2010  -31.0530   90.5420 C.ar   21  HIS21       0.1986
     22  NE2       24.1000  -31.9510   90.8780 N.ar   21  HIS21      -0.2212
     23  N         28.9630  -33.1730   91.6000 N.3    23  PHE23      -0.1241
     24  CA        28.5820  -34.2610   92.5020 C.3    23  PHE23       0.1605
     25  C         29.7360  -34.4050   93.4770 C.2    23  PHE23       0.2264
     26  O         30.8540  -34.7310   93.0580 O.2    23  PHE23      -0.2867
     27  CB        28.3880  -35.5570   91.7330 C.3    23  PHE23       0.0534
     28  CG        27.3780  -35.4650   90.6240 C.ar   23  PHE23      -0.0203
     29  CD1       27.7610  -35.0340   89.3620 C.ar   23  PHE23      -0.0042
     30  CD2       26.0510  -35.7920   90.8400 C.ar   23  PHE23      -0.0042
     31  CE1       26.8460  -34.9370   88.3350 C.ar   23  PHE23      -0.0003
     32  CE2       25.1290  -35.7100   89.8060 C.ar   23  PHE23      -0.0003
     33  CZ        25.5270  -35.2750   88.5520 C.ar   23  PHE23      -0.0000
     34  N         28.8790  -29.4510   96.1230 N.3    30  ASP30      -0.1239
     35  CA        27.8450  -30.2710   95.5080 C.3    30  ASP30       0.1674
     36  C         26.7110  -29.4130   94.9690 C.2    30  ASP30       0.2266
     37  O         26.2950  -28.4170   95.5950 O.2    30  ASP30      -0.2867
     38  CB        27.2770  -31.2380   96.5820 C.3    30  ASP30       0.1410
     39  CG        26.3530  -32.2880   96.0100 C.2    30  ASP30       0.3668
     40  OD1       26.7580  -33.0300   95.0820 O.co2  30  ASP30      -0.2456
     41  OD2       25.2130  -32.3880   96.5120 O.co2  30  ASP30      -0.2456
     42  N         30.5380  -30.5160   75.5190 N.3   308  THR308     -0.1203
     43  CA        30.1160  -31.1380   76.7600 C.3   308  THR308      0.1994
     44  C         31.2950  -31.8290   77.4070 C.2   308  THR308      0.2617
     45  O         32.2500  -32.2150   76.7360 O.2   308  THR308     -0.2717
     46  CB        28.9700  -32.1240   76.5230 C.3   308  THR308      0.1784
     47  OG1       28.4580  -32.5860   77.7700 O.3   308  THR308     -0.2211
     48  CG2       29.3990  -33.3120   75.6550 C.3   308  THR308      0.0376
     49  N         31.2650  -31.9330   78.7380 N.am  309  TYR309     -0.1975
     50  CA        32.4070  -32.5520   79.3960 C.3   309  TYR309      0.1639
     51  C         32.0790  -33.2430   80.7130 C.2   309  TYR309      0.2290
     52  O         31.0450  -32.9650   81.3010 O.2   309  TYR309     -0.2864
     53  CB        33.4940  -31.5030   79.6210 C.3   309  TYR309      0.0560
     54  CG        33.1080  -30.3060   80.4780 C.ar  309  TYR309     -0.0198
     55  CD1       33.0630  -30.3890   81.8810 C.ar  309  TYR309     -0.0009
     56  CD2       32.8730  -29.0680   79.9080 C.ar  309  TYR309     -0.0009
     57  CE1       32.7370  -29.2840   82.6540 C.ar  309  TYR309      0.0417
     58  CE2       32.5570  -27.9570   80.6690 C.ar  309  TYR309      0.0417
     59  CZ        32.5020  -28.0630   82.0580 C.ar  309  TYR309      0.1957
     60  OH        32.2210  -26.9160   82.7790 O.3   309  TYR309     -0.2866
     61  N         29.7900  -32.3980   85.5090 N.3   336  LEU336     -0.1231
     62  CA        29.2240  -32.6200   84.1840 C.3   336  LEU336      0.1693
     63  C         28.7980  -31.2640   83.6590 C.2   336  LEU336      0.2593
     64  O         28.0570  -30.5550   84.3200 O.2   336  LEU336     -0.2718
     65  CB        27.9860  -33.5120   84.2470 C.3   336  LEU336      0.0284
     66  CG        28.2740  -34.9730   84.6500 C.3   336  LEU336      0.0019
     67  CD1       26.9430  -35.7100   84.7200 C.3   336  LEU336      0.0001
     68  CD2       29.2200  -35.6750   83.6900 C.3   336  LEU336      0.0001
     69  N         29.2730  -30.8990   82.4610 N.am  337  GLY337     -0.1942
     70  CA        28.8810  -29.6220   81.8760 C.3   337  GLY337      0.2014
     71  C         28.4270  -29.7400   80.4290 C.2   337  GLY337      0.2638
     72  O         28.8730  -30.6380   79.7220 O.2   337  GLY337     -0.2714
     73  N         27.5640  -28.8170   80.0440 N.am  338  LEU338     -0.1977
     74  CA        27.1280  -28.6340   78.6550 C.3   338  LEU338      0.1596
     75  C         27.2490  -27.1360   78.3550 C.2   338  LEU338      0.2287
     76  O         26.6470  -26.3050   79.0270 O.2   338  LEU338     -0.2864
     77  CB        25.6800  -29.0670   78.5110 C.3   338  LEU338      0.0297
     78  CG        25.0510  -29.0280   77.1190 C.3   338  LEU338      0.0022
     79  CD1       25.8000  -29.8670   76.1140 C.3   338  LEU338      0.0001
     80  CD2       23.5970  -29.4790   77.1860 C.3   338  LEU338      0.0001
@<TRIPOS>BOND
     1    42    43    1
     2    48    46    1
     3    79    78    1
     4    46    43    1
     5    46    47    1
     6    45    44    2
     7    43    44    1
     8    78    80    1
     9    78    77    1
    10    44    49   am
    11    75    74    1
    12    75    76    2
    13    77    74    1
    14    74    73    1
    15    49    50    1
    16    50    53    1
    17    50    51    1
    18    53    54    1
    19    72    71    2
    20    56    54   ar
    21    56    58   ar
    22    73    71   am
    23    71    70    1
    24    54    55   ar
    25    58    59   ar
    26    51    52    2
    27     1     2    1
    28    70    69    1
    29    55    57   ar
    30    59    57   ar
    31    59    60    1
    32     2     3    1
    33     4     3    2
    34    69    63   am
    35     3     5   am
    36    63    62    1
    37    63    64    2
    38    68    66    1
    39    62    65    1
    40    62    61    1
    41    65    66    1
    42     5     6    1
    43    66    67    1
    44     6     9    1
    45     6     7    1
    46    11    10    1
    47     9    10    1
    48    10    12    1
    49     7    13   am
    50     7     8    2
    51    13    14    1
    52    17    14    1
    53    17    18    1
    54    16    15    2
    55    14    15    1
    56    31    33   ar
    57    31    29   ar
    58    33    32   ar
    59    18    19   ar
    60    18    20   ar
    61    29    28   ar
    62    19    21   ar
    63    32    30   ar
    64    20    22   ar
    65    21    22   ar
    66    28    30   ar
    67    28    27    1
    68    23    24    1
    69    27    24    1
    70    24    25    1
    71    26    25    2
    72    36    35    1
    73    36    37    2
    74    40    39   ar
    75    35    34    1
    76    35    38    1
    77    39    41   ar
    78    39    38    1
