@<TRIPOS>MOLECULE
tmp/5fvnD02.pdb
 80 78 0 0 0
SMALL
GASTEIGER

@<TRIPOS>ATOM
      1  N          9.4380    1.6980   81.2120 N.3    19  GLY19      -0.1210
      2  CA         9.2210    2.8660   82.0630 C.3    19  GLY19       0.1956
      3  C          7.8630    2.6770   82.7010 C.2    19  GLY19       0.2612
      4  O          6.8610    2.7810   82.0300 O.2    19  GLY19      -0.2717
      5  N          7.8630    2.4130   84.0090 N.am   20  LEU20      -0.1965
      6  CA         6.7230    1.8080   84.6810 C.3    20  LEU20       0.1728
      7  C          6.4950    2.5020   86.0100 C.2    20  LEU20       0.2616
      8  O          7.4440    2.7150   86.7650 O.2    20  LEU20      -0.2715
      9  CB         7.0230    0.3360   84.9200 C.3    20  LEU20       0.0311
     10  CG         5.9510   -0.5170   85.5960 C.3    20  LEU20       0.0022
     11  CD1        4.6310   -0.5160   84.8370 C.3    20  LEU20       0.0001
     12  CD2        6.4780   -1.9380   85.7300 C.3    20  LEU20       0.0001
     13  N          5.2330    2.8350   86.2850 N.am   21  HIS21      -0.1973
     14  CA         4.8610    3.4600   87.5500 C.3    21  HIS21       0.1656
     15  C          3.6310    2.7830   88.1200 C.2    21  HIS21       0.2291
     16  O          2.6750    2.5140   87.3840 O.2    21  HIS21      -0.2864
     17  CB         4.6220    4.9650   87.3470 C.3    21  HIS21       0.0771
     18  CG         4.5790    5.7270   88.6340 C.ar   21  HIS21       0.0820
     19  ND1        5.6500    6.4340   89.1260 N.ar   21  HIS21      -0.2267
     20  CD2        3.6070    5.8210   89.5710 C.ar   21  HIS21       0.1154
     21  CE1        5.3380    6.9440   90.3020 C.ar   21  HIS21       0.1986
     22  NE2        4.1010    6.5920   90.5930 N.ar   21  HIS21      -0.2212
     23  N          0.5750    2.9540   91.1370 N.3    23  PHE23      -0.1241
     24  CA        -0.1880    3.7920   92.0510 C.3    23  PHE23       0.1605
     25  C         -0.9190    2.8480   92.9950 C.2    23  PHE23       0.2264
     26  O         -1.7530    2.0590   92.5500 O.2    23  PHE23      -0.2867
     27  CB        -1.1870    4.6560   91.2900 C.3    23  PHE23       0.0534
     28  CG        -0.5720    5.5130   90.2080 C.ar   23  PHE23      -0.0203
     29  CD1       -0.4160    4.9960   88.9260 C.ar   23  PHE23      -0.0042
     30  CD2       -0.1600    6.8070   90.4520 C.ar   23  PHE23      -0.0042
     31  CE1        0.1390    5.7640   87.9070 C.ar   23  PHE23      -0.0003
     32  CE2        0.3910    7.5780   89.4170 C.ar   23  PHE23      -0.0003
     33  CZ         0.5280    7.0420   88.1560 C.ar   23  PHE23      -0.0000
     34  N          3.7150    1.0830   95.6840 N.3    30  ASP30      -0.1239
     35  CA         3.5650    2.4020   95.1080 C.3    30  ASP30       0.1674
     36  C          4.8880    2.9560   94.6280 C.2    30  ASP30       0.2266
     37  O          5.9200    2.7670   95.2690 O.2    30  ASP30      -0.2867
     38  CB         3.0140    3.3530   96.1920 C.3    30  ASP30       0.1410
     39  CG         2.5380    4.6810   95.6520 C.2    30  ASP30       0.3668
     40  OD1        1.7410    4.6970   94.6960 O.co2  30  ASP30      -0.2456
     41  OD2        2.9870    5.7180   96.1820 O.co2  30  ASP30      -0.2456
     42  N          2.4460    0.5700   75.0520 N.3   308  THR308     -0.1203
     43  CA         2.1190    1.2420   76.2980 C.3   308  THR308      0.1994
     44  C          0.9020    0.5670   76.8920 C.2   308  THR308      0.2617
     45  O          0.0920   -0.0260   76.1720 O.2   308  THR308     -0.2717
     46  CB         1.8860    2.7480   76.0730 C.3   308  THR308      0.1784
     47  OG1        1.6810    3.4080   77.3310 O.3   308  THR308     -0.2211
     48  CG2        0.6660    2.9960   75.1670 C.3   308  THR308      0.0376
     49  N          0.7870    0.6310   78.2180 N.am  309  TYR309     -0.1975
     50  CA        -0.3200   -0.0400   78.8610 C.3   309  TYR309      0.1639
     51  C         -0.7730    0.5750   80.1530 C.2   309  TYR309      0.2290
     52  O         -0.0420    1.3350   80.7990 O.2   309  TYR309     -0.2864
     53  CB         0.0100   -1.5240   79.0710 C.3   309  TYR309      0.0560
     54  CG         1.2270   -1.8340   79.9360 C.ar  309  TYR309     -0.0198
     55  CD1        1.1570   -1.7890   81.3290 C.ar  309  TYR309     -0.0009
     56  CD2        2.4230   -2.2430   79.3800 C.ar  309  TYR309     -0.0009
     57  CE1        2.2410   -2.1070   82.1100 C.ar  309  TYR309      0.0417
     58  CE2        3.5200   -2.5620   80.1600 C.ar  309  TYR309      0.0417
     59  CZ         3.4210   -2.4960   81.5390 C.ar  309  TYR309      0.1957
     60  OH         4.5100   -2.8320   82.2900 O.3   309  TYR309     -0.2866
     61  N          0.9910    1.9810   85.0310 N.3   336  LEU336     -0.1231
     62  CA         1.1400    2.5920   83.7180 C.3   336  LEU336      0.1693
     63  C          2.5440    2.2880   83.2250 C.2   336  LEU336      0.2593
     64  O          3.5090    2.5340   83.9390 O.2   336  LEU336     -0.2718
     65  CB         0.9860    4.0990   83.8100 C.3   336  LEU336      0.0284
     66  CG        -0.3840    4.6320   84.2320 C.3   336  LEU336      0.0019
     67  CD1       -0.3170    6.1460   84.3270 C.3   336  LEU336      0.0001
     68  CD2       -1.4630    4.2060   83.2660 C.3   336  LEU336      0.0001
     69  N          2.6410    1.7580   82.0020 N.am  337  GLY337     -0.1942
     70  CA         3.9440    1.4220   81.4380 C.3   337  GLY337      0.2014
     71  C          4.0980    1.9050   80.0130 C.2   337  GLY337      0.2638
     72  O          3.1240    1.9770   79.2530 O.2   337  GLY337     -0.2714
     73  N          5.3430    2.2350   79.6810 N.am  338  LEU338     -0.1977
     74  CA         5.7650    2.5520   78.3150 C.3   338  LEU338      0.1596
     75  C          6.9940    1.7000   78.0340 C.2   338  LEU338      0.2287
     76  O          7.9830    1.7940   78.7610 O.2   338  LEU338     -0.2864
     77  CB         6.1030    4.0270   78.2100 C.3   338  LEU338      0.0297
     78  CG         6.4980    4.5760   76.8350 C.3   338  LEU338      0.0022
     79  CD1        5.4220    4.3520   75.7670 C.3   338  LEU338      0.0001
     80  CD2        6.8030    6.0570   76.9720 C.3   338  LEU338      0.0001
@<TRIPOS>BOND
     1    42    43    1
     2    48    46    1
     3    79    78    1
     4    46    43    1
     5    46    47    1
     6    45    44    2
     7    43    44    1
     8    78    80    1
     9    78    77    1
    10    44    49   am
    11    75    74    1
    12    75    76    2
    13    77    74    1
    14    49    50    1
    15    74    73    1
    16    50    53    1
    17    50    51    1
    18    53    54    1
    19    72    71    2
    20    56    54   ar
    21    56    58   ar
    22    73    71   am
    23    54    55   ar
    24    71    70    1
    25    51    52    2
    26    58    59   ar
    27     1     2    1
    28    55    57   ar
    29    70    69    1
    30    59    57   ar
    31    59    60    1
    32    69    63   am
    33     4     3    2
    34     2     3    1
    35     3     5   am
    36    63    62    1
    37    63    64    2
    38    68    66    1
    39    62    65    1
    40    62    61    1
    41    65    66    1
    42     5     6    1
    43    66    67    1
    44     6     9    1
    45     6     7    1
    46    11    10    1
    47     9    10    1
    48    10    12    1
    49     7    13   am
    50     7     8    2
    51    13    14    1
    52    17    14    1
    53    17    18    1
    54    16    15    2
    55    14    15    1
    56    31    33   ar
    57    31    29   ar
    58    33    32   ar
    59    18    19   ar
    60    18    20   ar
    61    29    28   ar
    62    19    21   ar
    63    32    30   ar
    64    20    22   ar
    65    28    30   ar
    66    28    27    1
    67    21    22   ar
    68    23    24    1
    69    27    24    1
    70    24    25    1
    71    26    25    2
    72    36    35    1
    73    36    37    2
    74    40    39   ar
    75    35    34    1
    76    35    38    1
    77    39    41   ar
    78    39    38    1
