@<TRIPOS>MOLECULE
tmp/5fvnC02.pdb
 102 97 0 0 0
SMALL
GASTEIGER

@<TRIPOS>ATOM
      1  N         45.8600   13.7440   30.6160 N.3   149  TYR149     -0.1241
      2  CA        46.3880   13.2860   29.3290 C.3   149  TYR149      0.1605
      3  C         45.4310   12.2280   28.7720 C.2   149  TYR149      0.2264
      4  O         44.8840   11.4180   29.5320 O.2   149  TYR149     -0.2867
      5  CB        47.7860   12.6820   29.5130 C.3   149  TYR149      0.0534
      6  CG        48.3000   12.0190   28.2450 C.ar  149  TYR149     -0.0201
      7  CD1       48.8500   12.7930   27.2210 C.ar  149  TYR149     -0.0009
      8  CD2       48.2110   10.6590   28.0730 C.ar  149  TYR149     -0.0009
      9  CE1       49.2900   12.2040   26.0410 C.ar  149  TYR149      0.0417
     10  CE2       48.6320   10.0530   26.8910 C.ar  149  TYR149      0.0417
     11  CZ        49.1810   10.8360   25.8920 C.ar  149  TYR149      0.1957
     12  OH        49.6370   10.2250   24.7380 O.3   149  TYR149     -0.2866
     13  N         45.9680    8.4700   22.1550 N.3   152  LYS152     -0.1245
     14  CA        45.2760    8.2190   20.9040 C.3   152  LYS152      0.1561
     15  C         44.3170    7.0210   21.0170 C.2   152  LYS152      0.2260
     16  O         44.7080    5.9680   21.5160 O.2   152  LYS152     -0.2867
     17  CB        46.3370    7.9240   19.8290 C.3   152  LYS152      0.0271
     18  CG        45.8320    7.7190   18.4180 C.3   152  LYS152      0.0035
     19  CD        47.0250    7.3920   17.5200 C.3   152  LYS152      0.0206
     20  CE        46.6300    7.3740   16.0760 C.3   152  LYS152      0.1093
     21  NZ        47.8540    7.1110   15.2580 N.3   152  LYS152     -0.1314
     22  N         46.1250    3.5810    8.7210 N.3   159  GLU159     -0.1231
     23  CA        47.1610    4.4870    9.1890 C.3   159  GLU159      0.1699
     24  C         46.9430    4.9310   10.6470 C.2   159  GLU159      0.2592
     25  O         47.9110    5.1030   11.3830 O.2   159  GLU159     -0.2718
     26  CB        47.2940    5.6980    8.2490 C.3   159  GLU159      0.0402
     27  CG        47.8760    5.3930    6.8610 C.3   159  GLU159      0.1161
     28  CD        47.8670    6.6000    5.9350 C.2   159  GLU159      0.3649
     29  OE1       47.1270    7.5780    6.2000 O.co2 159  GLU159     -0.2457
     30  OE2       48.6010    6.5670    4.9230 O.co2 159  GLU159     -0.2457
     31  N         45.6840    5.0670   11.0760 N.am  160  ASP160     -0.1974
     32  CA        45.3970    5.5500   12.4320 C.3   160  ASP160      0.1709
     33  C         45.2020    4.4460   13.4430 C.2   160  ASP160      0.2293
     34  O         44.7180    4.7340   14.5210 O.2   160  ASP160     -0.2864
     35  CB        44.1230    6.4160   12.4610 C.3   160  ASP160      0.1436
     36  CG        44.1990    7.6300   11.5720 C.2   160  ASP160      0.3671
     37  OD1       45.2950    8.2040   11.3910 O.co2 160  ASP160     -0.2456
     38  OD2       43.1310    8.0390   11.0840 O.co2 160  ASP160     -0.2456
     39  N         43.4160   11.7950   18.8100 N.3   173  GLY173     -0.1210
     40  CA        44.8500   11.6610   18.9840 C.3   173  GLY173      0.1956
     41  C         45.2730   11.9690   20.4120 C.2   173  GLY173      0.2611
     42  O         44.4300   12.1160   21.3080 O.2   173  GLY173     -0.2717
     43  N         46.5780   12.0440   20.6260 N.am  174  ASP174     -0.1973
     44  CA        47.1080   12.3350   21.9540 C.3   174  ASP174      0.1709
     45  C         46.6340   13.7320   22.3640 C.2   174  ASP174      0.2293
     46  O         46.6820   14.6840   21.5750 O.2   174  ASP174     -0.2864
     47  CB        48.6400   12.2980   21.9760 C.3   174  ASP174      0.1436
     48  CG        49.2180   10.9280   21.6670 C.2   174  ASP174      0.3671
     49  OD1       48.5060    9.8930   21.6970 O.co2 174  ASP174     -0.2456
     50  OD2       50.4640   10.9030   21.3960 O.co2 174  ASP174     -0.2456
     51  N         45.2840   16.2220   19.6040 N.3   198  LYS198     -0.1231
     52  CA        45.5640   15.8860   18.2130 C.3   198  LYS198      0.1693
     53  C         44.3470   15.2290   17.5780 C.2   198  LYS198      0.2592
     54  O         43.6480   14.4480   18.2150 O.2   198  LYS198     -0.2718
     55  CB        46.7840   14.9730   18.1100 C.3   198  LYS198      0.0285
     56  CG        48.0940   15.6460   18.4860 C.3   198  LYS198      0.0035
     57  CD        48.6210   16.5920   17.4020 C.3   198  LYS198      0.0206
     58  CE        49.2550   15.8240   16.2570 C.3   198  LYS198      0.1093
     59  NZ        50.0610   16.7580   15.4170 N.3   198  LYS198     -0.1314
     60  N         44.0950   15.5630   16.3050 N.am  199  ARG199     -0.1966
     61  CA        43.1110   14.8660   15.4930 C.3   199  ARG199      0.1729
     62  C         43.7980   13.8260   14.6260 C.2   199  ARG199      0.2617
     63  O         44.9980   13.9210   14.3800 O.2   199  ARG199     -0.2715
     64  CB        42.3230   15.8590   14.6600 C.3   199  ARG199      0.0348
     65  CG        41.3830   16.7470   15.5020 C.3   199  ARG199      0.0492
     66  CD        40.8980   18.0550   14.8630 C.3   199  ARG199      0.2205
     67  NE        40.4280   17.7050   13.5100 N.pl3 199  ARG199     -0.0865
     68  CZ        39.2360   17.2110   13.2260 C.cat 199  ARG199      0.5346
     69  NH1       38.2680   17.1630   14.1360 N.pl3 199  ARG199      0.1354
     70  NH2       38.9890   16.7820   11.9960 N.pl3 199  ARG199      0.1354
     71  N         43.0530   12.8300   14.1760 N.am  200  THR200     -0.1937
     72  CA        43.6460   11.7670   13.3720 C.3   200  THR200      0.2028
     73  C         43.4660   12.0250   11.8720 C.2   200  THR200      0.2642
     74  O         42.6080   12.8030   11.4500 O.2   200  THR200     -0.2714
     75  CB        43.0660   10.3870   13.6920 C.3   200  THR200      0.1808
     76  OG1       41.7210   10.3080   13.2080 O.3   200  THR200     -0.2208
     77  CG2       43.1080   10.0940   15.2380 C.3   200  THR200      0.0379
     78  N         44.2680   11.3410   11.0620 N.am  201  SER201     -0.1949
     79  CA        44.1760   11.5340    9.6110 C.3   201  SER201      0.1924
     80  C         42.7850   11.1640    9.0610 C.2   201  SER201      0.2314
     81  O         42.2210   11.9010    8.2550 O.2   201  SER201     -0.2863
     82  CB        45.3060   10.7870    8.9010 C.3   201  SER201      0.2116
     83  OG        45.1580    9.3860    8.9810 O.3   201  SER201     -0.2180
     84  N         44.6450   20.1750   12.5890 N.3   212  ASP212     -0.1225
     85  CA        45.5900   19.3090   13.2730 C.3   212  ASP212      0.1805
     86  C         45.1490   19.0080   14.7000 C.2   212  ASP212      0.2597
     87  O         45.4430   17.9140   15.2030 O.2   212  ASP212     -0.2718
     88  CB        46.9480   19.9500   13.3200 C.3   212  ASP212      0.1424
     89  CG        48.0190   18.9910   13.7790 C.2   212  ASP212      0.3668
     90  OD1       48.2140   17.9250   13.1460 O.co2 212  ASP212     -0.2456
     91  OD2       48.6790   19.3020   14.7610 O.co2 212  ASP212     -0.2456
     92  N         44.4570   19.9670   15.3310 N.am  213  ARG213     -0.1979
     93  CA        44.0330   19.8000   16.7320 C.3   213  ARG213      0.1597
     94  C         42.5940   20.2100   16.9560 C.2   213  ARG213      0.2287
     95  O         42.0930   21.1360   16.3340 O.2   213  ARG213     -0.2864
     96  CB        44.9260   20.6060   17.6880 C.3   213  ARG213      0.0334
     97  CG        46.2690   19.9540   17.9740 C.3   213  ARG213      0.0492
     98  CD        47.1390   20.8120   18.8820 C.3   213  ARG213      0.2205
     99  NE        48.3110   20.0340   19.2940 N.pl3 213  ARG213     -0.0865
    100  CZ        48.3630   19.1950   20.3190 C.cat 213  ARG213      0.5346
    101  NH1       47.3060   18.9970   21.1170 N.pl3 213  ARG213      0.1354
    102  NH2       49.4900   18.5150   20.5190 N.pl3 213  ARG213      0.1354
@<TRIPOS>BOND
     1    30    28   ar
     2    28    29   ar
     3    28    27    1
     4    27    26    1
     5    26    23    1
     6    81    80    2
     7    22    23    1
     8    82    83    1
     9    82    79    1
    10    80    79    1
    11    23    24    1
    12    79    78    1
    13    24    31   am
    14    24    25    2
    15    78    73   am
    16    31    32    1
    17    38    36   ar
    18    37    36   ar
    19    74    73    2
    20    36    35    1
    21    73    72    1
    22    70    68    1
    23    32    35    1
    24    32    33    1
    25    84    85    1
    26    90    89   ar
    27    76    75    1
    28    68    67    2
    29    68    69    1
    30    85    88    1
    31    85    86    1
    32    88    89    1
    33    72    75    1
    34    72    71    1
    35    33    34    2
    36    67    66    1
    37    75    77    1
    38    89    91   ar
    39    71    62   am
    40    63    62    2
    41    62    61    1
    42    64    61    1
    43    64    65    1
    44    86    87    2
    45    86    92   am
    46    66    65    1
    47    21    20    1
    48    92    93    1
    49    59    58    1
    50    61    60    1
    51    20    19    1
    52    58    57    1
    53    60    53   am
    54    95    94    2
    55    93    94    1
    56    93    96    1
    57    57    56    1
    58    19    18    1
    59    53    52    1
    60    53    54    2
    61    96    97    1
    62    97    98    1
    63    55    52    1
    64    55    56    1
    65    52    51    1
    66    18    17    1
    67    39    40    1
    68    98    99    1
    69    40    41    1
    70    99   100    2
    71    17    14    1
    72   100   102    1
    73   100   101    1
    74    41    43   am
    75    41    42    2
    76    43    44    1
    77    14    15    1
    78    14    13    1
    79    15    16    2
    80    50    48   ar
    81    46    45    2
    82    48    49   ar
    83    48    47    1
    84    44    47    1
    85    44    45    1
    86    12    11    1
    87    11     9   ar
    88    11    10   ar
    89     9     7   ar
    90    10     8   ar
    91     7     6   ar
    92     8     6   ar
    93     6     5    1
    94     3     2    1
    95     3     4    2
    96     2     5    1
    97     2     1    1
