@<TRIPOS>MOLECULE
tmp/5fvnD03.pdb
 65 62 0 0 0
SMALL
GASTEIGER

@<TRIPOS>ATOM
      1  N          5.0830  -33.2890   74.8110 N.3   145  PHE145     -0.1227
      2  CA         5.2760  -33.6090   76.2290 C.3   145  PHE145      0.1736
      3  C          6.6830  -33.2430   76.6780 C.2   145  PHE145      0.2595
      4  O          7.5640  -32.9730   75.8470 O.2   145  PHE145     -0.2718
      5  CB         4.9030  -35.0680   76.5280 C.3   145  PHE145      0.0547
      6  CG         5.9130  -36.0810   76.0700 C.ar  145  PHE145     -0.0202
      7  CD1        6.9300  -36.5000   76.9170 C.ar  145  PHE145     -0.0042
      8  CD2        5.8180  -36.6650   74.8070 C.ar  145  PHE145     -0.0042
      9  CE1        7.8480  -37.4490   76.4960 C.ar  145  PHE145     -0.0003
     10  CE2        6.7420  -37.6130   74.4050 C.ar  145  PHE145     -0.0003
     11  CZ         7.7350  -38.0000   75.2220 C.ar  145  PHE145     -0.0000
     12  N          6.8390  -33.1360   77.9980 N.am  146  ALA146     -0.1966
     13  CA         8.1290  -32.8410   78.6130 C.3   146  ALA146      0.1728
     14  C          8.2390  -33.6420   79.8830 C.2   146  ALA146      0.2616
     15  O          7.2130  -33.9210   80.5450 O.2   146  ALA146     -0.2715
     16  CB         8.2140  -31.3480   78.9090 C.3   146  ALA146      0.0334
     17  N          9.4770  -34.0400   80.1750 N.am  147  VAL147     -0.1977
     18  CA         9.8260  -34.6770   81.4330 C.3   147  VAL147      0.1596
     19  C         10.9900  -33.8830   82.0180 C.2   147  VAL147      0.2287
     20  O         11.9510  -33.5490   81.3030 O.2   147  VAL147     -0.2864
     21  CB        10.2130  -36.1500   81.2210 C.3   147  VAL147      0.0276
     22  CG1       10.4770  -36.8340   82.5670 C.3   147  VAL147      0.0022
     23  CG2        9.1080  -36.8810   80.4720 C.3   147  VAL147      0.0022
     24  N         10.7410  -34.1860   90.3330 N.3   176  VAL176     -0.1231
     25  CA        10.3910  -34.6890   89.0130 C.3   176  VAL176      0.1692
     26  C          9.0390  -34.1400   88.5870 C.2   176  VAL176      0.2593
     27  O          8.1200  -34.0240   89.4070 O.2   176  VAL176     -0.2718
     28  CB        10.4270  -36.2350   88.9490 C.3   176  VAL176      0.0266
     29  CG1        9.4810  -36.8810   89.9350 C.3   176  VAL176      0.0020
     30  CG2       10.1430  -36.7060   87.5300 C.3   176  VAL176      0.0020
     31  N          8.9240  -33.7690   87.3090 N.am  177  GLY177     -0.1942
     32  CA         7.6430  -33.3350   86.7900 C.3   177  GLY177      0.2014
     33  C          7.4910  -33.6280   85.3100 C.2   177  GLY177      0.2639
     34  O          8.4530  -34.0380   84.6430 O.2   177  GLY177     -0.2714
     35  N          6.2690  -33.4520   84.8340 N.am  178  GLY178     -0.1939
     36  CA         5.9950  -33.6310   83.4090 C.3   178  GLY178      0.2014
     37  C          4.8110  -32.8040   82.9650 C.2   178  GLY178      0.2640
     38  O          3.9870  -32.3650   83.7820 O.2   178  GLY178     -0.2714
     39  N          4.7730  -32.5490   81.6480 N.am  179  SER179     -0.1935
     40  CA         3.6500  -31.8740   81.0450 C.3   179  SER179      0.2055
     41  C          3.2540  -32.5660   79.7480 C.2   179  SER179      0.2642
     42  O          4.0760  -33.2360   79.1440 O.2   179  SER179     -0.2714
     43  CB         3.9720  -30.4140   80.7650 C.3   179  SER179      0.2130
     44  OG         4.9430  -30.2840   79.7430 O.3   179  SER179     -0.2179
     45  N          1.9890  -32.3850   79.3790 N.am  180  ILE180     -0.1977
     46  CA         1.4600  -32.8290   78.0740 C.3   180  ILE180      0.1596
     47  C          0.5450  -31.7280   77.5680 C.2   180  ILE180      0.2287
     48  O         -0.3400  -31.2700   78.3160 O.2   180  ILE180     -0.2864
     49  CB         0.6220  -34.1400   78.1930 C.3   180  ILE180      0.0276
     50  CG1        1.4660  -35.2460   78.8380 C.3   180  ILE180      0.0022
     51  CG2        0.1010  -34.5650   76.8110 C.3   180  ILE180      0.0022
     52  CD1        0.7350  -36.5580   79.0370 C.3   180  ILE180      0.0001
     53  N          2.1010  -32.0980   86.0450 N.3   194  VAL194     -0.1245
     54  CA         2.2440  -32.6460   87.3950 C.3   194  VAL194      0.1561
     55  C          3.6970  -32.4790   87.8250 C.2   194  VAL194      0.2260
     56  O          4.6090  -32.6100   87.0150 O.2   194  VAL194     -0.2867
     57  CB         1.8490  -34.1370   87.4370 C.3   194  VAL194      0.0252
     58  CG1        2.0770  -34.7100   88.8340 C.3   194  VAL194      0.0019
     59  CG2        0.3750  -34.2690   87.0700 C.3   194  VAL194      0.0019
     60  N          6.3850  -33.1620   91.4810 N.3   196  SER196     -0.1217
     61  CA         6.5810  -33.6960   92.8280 C.3   196  SER196      0.1889
     62  C          8.0280  -33.4970   93.2430 C.2   196  SER196      0.2288
     63  O          8.9350  -34.1070   92.6740 O.2   196  SER196     -0.2866
     64  CB         6.2310  -35.1750   92.8680 C.3   196  SER196      0.2089
     65  OG         6.3880  -35.6580   94.1810 O.3   196  SER196     -0.2183
@<TRIPOS>BOND
     1    10     8   ar
     2    10    11   ar
     3     8     6   ar
     4     1     2    1
     5    11     9   ar
     6     4     3    2
     7     6     5    1
     8     6     7   ar
     9     2     5    1
    10     2     3    1
    11     9     7   ar
    12     3    12   am
    13    51    49    1
    14    47    46    1
    15    47    48    2
    16    12    13    1
    17    46    49    1
    18    46    45    1
    19    49    50    1
    20    13    16    1
    21    13    14    1
    22    50    52    1
    23    42    41    2
    24    45    41   am
    25    44    43    1
    26    41    40    1
    27    14    17   am
    28    14    15    2
    29    17    18    1
    30    23    21    1
    31    43    40    1
    32    40    39    1
    33    21    18    1
    34    21    22    1
    35    20    19    2
    36    18    19    1
    37    39    37   am
    38    37    36    1
    39    37    38    2
    40    36    35    1
    41    34    33    2
    42    35    33   am
    43    33    32    1
    44    53    54    1
    45    32    31    1
    46    56    55    2
    47    59    57    1
    48    31    26   am
    49    54    57    1
    50    54    55    1
    51    57    58    1
    52    30    28    1
    53    26    25    1
    54    26    27    2
    55    28    25    1
    56    28    29    1
    57    25    24    1
    58    60    61    1
    59    63    62    2
    60    61    64    1
    61    61    62    1
    62    64    65    1
