@<TRIPOS>MOLECULE
tmp/5fvoA02.pdb
 167 163 0 0 0
SMALL
GASTEIGER

@<TRIPOS>ATOM
      1  N         37.1090   11.0830   34.6770 N.3    40  MET40      -0.1230
      2  CA        37.3220   10.5780   33.3200 C.3    40  MET40       0.1702
      3  C         37.5070   11.6920   32.2810 C.2    40  MET40       0.2592
      4  O         38.4860   11.6810   31.5330 O.2    40  MET40      -0.2718
      5  CB        36.1850    9.6470   32.9090 C.3    40  MET40       0.0401
      6  CG        36.3730    8.2160   33.3980 C.3    40  MET40       0.0596
      7  SD        37.1820    7.1690   32.1750 S.3    40  MET40      -0.1393
      8  CE        36.4390    7.8660   30.7130 C.3    40  MET40       0.0692
      9  N         36.5750   12.6460   32.2500 N.am   41  LEU41      -0.1980
     10  CA        36.6110   13.7330   31.2720 C.3    41  LEU41       0.1596
     11  C         36.3890   15.0880   31.9210 C.2    41  LEU41       0.2287
     12  O         35.2630   15.5800   31.9380 O.2    41  LEU41      -0.2864
     13  CB        35.5150   13.5450   30.2160 C.3    41  LEU41       0.0297
     14  CG        35.0590   12.1440   29.8030 C.3    41  LEU41       0.0022
     15  CD1       33.7100   12.2160   29.1060 C.3    41  LEU41       0.0001
     16  CD2       36.0840   11.4740   28.9110 C.3    41  LEU41       0.0001
     17  N         36.6000    2.3450   18.0730 N.3   173  GLN173     -0.1245
     18  CA        37.7780    1.6250   17.5930 C.3   173  GLN173      0.1566
     19  C         37.4890    1.0830   16.2120 C.2   173  GLN173      0.2260
     20  O         36.3380    0.8350   15.8730 O.2   173  GLN173     -0.2867
     21  CB        38.1490    0.4680   18.5110 C.3   173  GLN173      0.0367
     22  CG        38.5130    0.8690   19.9280 C.3   173  GLN173      0.0905
     23  CD        38.7530   -0.3470   20.8040 C.2   173  GLN173      0.2608
     24  OE1       39.2020   -1.4020   20.3180 O.2   173  GLN173     -0.2717
     25  NE2       38.4370   -0.2210   22.0970 N.am  173  GLN173     -0.0878
     26  N         35.8220   -3.6300   16.6740 N.3   176  ARG176     -0.1245
     27  CA        35.0950   -3.8860   17.9210 C.3   176  ARG176      0.1563
     28  C         33.9520   -4.8470   17.6130 C.2   176  ARG176      0.2260
     29  O         33.4980   -4.9070   16.4740 O.2   176  ARG176     -0.2867
     30  CB        34.5050   -2.5900   18.4840 C.3   176  ARG176      0.0307
     31  CG        35.4510   -1.7650   19.3330 C.3   176  ARG176      0.0489
     32  CD        34.7010   -1.0490   20.4530 C.3   176  ARG176      0.2205
     33  NE        35.2880   -1.3270   21.7620 N.pl3 176  ARG176     -0.0865
     34  CZ        34.8500   -0.8070   22.9110 C.cat 176  ARG176      0.5346
     35  NH1       33.8170    0.0270   22.9250 N.pl3 176  ARG176      0.1354
     36  NH2       35.4520   -1.1160   24.0560 N.pl3 176  ARG176      0.1354
     37  N         44.4270   -3.3030   18.5880 N.3   260  PRO260     -0.2116
     38  CA        43.7400   -2.2170   19.3020 C.3   260  PRO260      0.1372
     39  C         43.9730   -0.9150   18.5540 C.2   260  PRO260      0.2244
     40  O         45.1140   -0.4750   18.3930 O.2   260  PRO260     -0.2868
     41  CB        44.4430   -2.1830   20.6730 C.3   260  PRO260      0.0268
     42  CG        45.8450   -2.6740   20.4070 C.3   260  PRO260      0.0207
     43  CD        45.7780   -3.5630   19.1340 C.3   260  PRO260      0.0892
     44  N         42.3960    2.9350   18.1760 N.3   262  VAL262     -0.1245
     45  CA        41.4350    3.9430   18.6280 C.3   262  VAL262      0.1561
     46  C         41.0850    4.9030   17.5030 C.2   262  VAL262      0.2260
     47  O         41.9800    5.4460   16.8600 O.2   262  VAL262     -0.2867
     48  CB        41.9780    4.7240   19.8430 C.3   262  VAL262      0.0252
     49  CG1       41.2610    6.0900   20.0030 C.3   262  VAL262      0.0019
     50  CG2       41.8650    3.8630   21.1050 C.3   262  VAL262      0.0019
     51  N         38.0920    7.3280   17.7340 N.3   264  ASN264     -0.1225
     52  CA        37.1340    8.3870   18.0920 C.3   264  ASN264      0.1785
     53  C         37.7620    9.6450   18.6820 C.2   264  ASN264      0.2597
     54  O         37.0490   10.5380   19.1320 O.2   264  ASN264     -0.2718
     55  CB        36.0310    7.8630   19.0260 C.3   264  ASN264      0.1169
     56  CG        36.5700    7.3230   20.3360 C.2   264  ASN264      0.2627
     57  OD1       37.7790    7.1920   20.5310 O.2   264  ASN264     -0.2716
     58  ND2       35.6620    6.9890   21.2420 N.am  264  ASN264     -0.0877
     59  N         39.0900    9.7180   18.6590 N.am  265  MET265     -0.1979
     60  CA        39.7920   10.8370   19.2710 C.3   265  MET265      0.1605
     61  C         40.1950   11.9300   18.2990 C.2   265  MET265      0.2287
     62  O         40.1690   11.7370   17.0890 O.2   265  MET265     -0.2864
     63  CB        40.9870   10.3470   20.0900 C.3   265  MET265      0.0413
     64  CG        40.5440    9.7170   21.4130 C.3   265  MET265      0.0598
     65  SD        41.9060    9.3330   22.5000 S.3   265  MET265     -0.1393
     66  CE        42.1040   10.8980   23.3560 C.3   265  MET265      0.0692
     67  N         44.3760    5.4310   15.3770 N.3   279  PHE279     -0.1227
     68  CA        45.7320    5.0000   15.7120 C.3   279  PHE279      0.1736
     69  C         45.7530    3.6720   16.4630 C.2   279  PHE279      0.2596
     70  O         44.8040    3.3040   17.1690 O.2   279  PHE279     -0.2718
     71  CB        46.4900    6.0800   16.4970 C.3   279  PHE279      0.0547
     72  CG        45.8080    6.5120   17.7890 C.ar  279  PHE279     -0.0202
     73  CD1       45.9950    5.8010   18.9630 C.ar  279  PHE279     -0.0042
     74  CD2       45.0040    7.6520   17.8250 C.ar  279  PHE279     -0.0042
     75  CE1       45.3950    6.2080   20.1580 C.ar  279  PHE279     -0.0003
     76  CE2       44.3860    8.0620   19.0140 C.ar  279  PHE279     -0.0003
     77  CZ        44.5890    7.3450   20.1800 C.ar  279  PHE279     -0.0000
     78  N         46.8540    2.9550   16.3210 N.am  280  SER280     -0.1938
     79  CA        46.8720    1.5940   16.7830 C.3   280  SER280      0.2055
     80  C         48.2510    1.2180   17.2810 C.2   280  SER280      0.2644
     81  O         49.2480    1.7630   16.8330 O.2   280  SER280     -0.2714
     82  CB        46.4240    0.6490   15.6480 C.3   280  SER280      0.2130
     83  OG        47.4130    0.5550   14.6330 O.3   280  SER280     -0.2179
     84  N         48.2940    0.2900   18.2310 N.am  281  GLY281     -0.1939
     85  CA        49.5480   -0.2700   18.6960 C.3   281  GLY281      0.2014
     86  C         49.3410   -1.7580   18.9070 C.2   281  GLY281      0.2639
     87  O         48.8600   -2.4550   18.0100 O.2   281  GLY281     -0.2714
     88  N         49.6870   -2.2440   20.0940 N.am  282  TRP282     -0.1959
     89  CA        49.3680   -3.6160   20.4770 C.3   282  TRP282      0.1771
     90  C         48.8720   -3.6860   21.9220 C.2   282  TRP282      0.2619
     91  O         49.0610   -2.7600   22.7160 O.2   282  TRP282     -0.2715
     92  CB        50.5600   -4.5400   20.2710 C.3   282  TRP282      0.0590
     93  CG        51.7840   -4.1160   20.9580 C.ar  282  TRP282      0.0006
     94  CD1       52.0450   -4.2100   22.2930 C.ar  282  TRP282      0.0946
     95  CD2       52.9440   -3.5330   20.3620 C.ar  282  TRP282      0.0152
     96  NE1       53.2980   -3.7190   22.5650 N.ar  282  TRP282     -0.2442
     97  CE2       53.8740   -3.3020   21.3960 C.ar  282  TRP282      0.0810
     98  CE3       53.2880   -3.1810   19.0590 C.ar  282  TRP282      0.0012
     99  CZ2       55.1210   -2.7290   21.1670 C.ar  282  TRP282      0.0191
    100  CZ3       54.5430   -2.6110   18.8310 C.ar  282  TRP282      0.0001
    101  CH2       55.4400   -2.3960   19.8780 C.ar  282  TRP282      0.0015
    102  N         48.2250   -4.7910   22.2410 N.am  283  TYR283     -0.1974
    103  CA        47.4870   -4.9100   23.4760 C.3   283  TYR283      0.1639
    104  C         48.3700   -5.2090   24.6970 C.2   283  TYR283      0.2290
    105  O         49.3810   -5.9180   24.6250 O.2   283  TYR283     -0.2864
    106  CB        46.4330   -5.9920   23.3320 C.3   283  TYR283      0.0560
    107  CG        45.0350   -5.5310   22.9790 C.ar  283  TYR283     -0.0198
    108  CD1       44.3330   -4.6690   23.8080 C.ar  283  TYR283     -0.0009
    109  CD2       44.3920   -6.0110   21.8330 C.ar  283  TYR283     -0.0009
    110  CE1       43.0270   -4.2790   23.5080 C.ar  283  TYR283      0.0417
    111  CE2       43.0910   -5.6200   21.5220 C.ar  283  TYR283      0.0417
    112  CZ        42.4130   -4.7580   22.3620 C.ar  283  TYR283      0.1957
    113  OH        41.1210   -4.3670   22.0680 O.3   283  TYR283     -0.2866
    114  N         43.8700   -5.3540   29.2640 N.3   287  GLU287     -0.1245
    115  CA        42.8470   -4.6320   28.5140 C.3   287  GLU287      0.1567
    116  C         41.7480   -5.5750   28.0400 C.2   287  GLU287      0.2260
    117  O         40.5620   -5.2500   28.1020 O.2   287  GLU287     -0.2867
    118  CB        43.4630   -3.9200   27.3080 C.3   287  GLU287      0.0388
    119  CG        44.6160   -2.9940   27.6400 C.3   287  GLU287      0.1160
    120  CD        45.1020   -2.2180   26.4130 C.2   287  GLU287      0.3649
    121  OE1       44.3510   -1.3390   25.9450 O.co2 287  GLU287     -0.2457
    122  OE2       46.2270   -2.4830   25.9200 O.co2 287  GLU287     -0.2457
    123  N         37.7900   -5.7200   29.1510 N.3   292  ASP292     -0.1239
    124  CA        36.8980   -6.2470   28.1080 C.3   292  ASP292      0.1674
    125  C         36.0960   -7.4790   28.5790 C.2   292  ASP292      0.2266
    126  O         34.8810   -7.5680   28.3720 O.2   292  ASP292     -0.2867
    127  CB        37.6790   -6.5460   26.8010 C.3   292  ASP292      0.1410
    128  CG        38.1860   -5.2770   26.1130 C.2   292  ASP292      0.3668
    129  OD1       37.4380   -4.2750   26.0720 O.co2 292  ASP292     -0.2456
    130  OD2       39.3400   -5.2650   25.6290 O.co2 292  ASP292     -0.2456
    131  N         30.6520   -4.8390   30.5620 N.3   298  ARG298     -0.1245
    132  CA        31.1590   -5.3800   29.2970 C.3   298  ARG298      0.1563
    133  C         30.7310   -6.8390   29.1150 C.2   298  ARG298      0.2260
    134  O         29.5520   -7.1440   29.2460 O.2   298  ARG298     -0.2867
    135  CB        32.6760   -5.2330   29.2120 C.3   298  ARG298      0.0307
    136  CG        33.1650   -3.8030   29.4080 C.3   298  ARG298      0.0489
    137  CD        32.7790   -2.8820   28.2540 C.3   298  ARG298      0.2205
    138  NE        33.2030   -3.3880   26.9450 N.pl3 298  ARG298     -0.0865
    139  CZ        34.4710   -3.5530   26.5660 C.cat 298  ARG298      0.5346
    140  NH1       35.4620   -3.2660   27.4050 N.pl3 298  ARG298      0.1354
    141  NH2       34.7510   -4.0170   25.3400 N.pl3 298  ARG298      0.1354
    142  N         45.3610    5.8790   35.3720 N.3   373  TRP373     -0.1241
    143  CA        45.3130    5.0850   34.1450 C.3   373  TRP373      0.1605
    144  C         46.5500    4.1930   33.9480 C.2   373  TRP373      0.2264
    145  O         46.4350    3.0750   33.4430 O.2   373  TRP373     -0.2867
    146  CB        45.1190    5.9930   32.9230 C.3   373  TRP373      0.0550
    147  CG        43.6850    6.3170   32.6230 C.ar  373  TRP373      0.0003
    148  CD1       42.8260    7.0590   33.3860 C.ar  373  TRP373      0.0946
    149  CD2       42.9440    5.9180   31.4570 C.ar  373  TRP373      0.0152
    150  NE1       41.5910    7.1320   32.7740 N.ar  373  TRP373     -0.2442
    151  CE2       41.6370    6.4360   31.5940 C.ar  373  TRP373      0.0810
    152  CE3       43.2610    5.1670   30.3180 C.ar  373  TRP373      0.0012
    153  CZ2       40.6470    6.2390   30.6250 C.ar  373  TRP373      0.0191
    154  CZ3       42.2710    4.9620   29.3610 C.ar  373  TRP373      0.0001
    155  CH2       40.9790    5.4990   29.5260 C.ar  373  TRP373      0.0015
    156  N         39.6010   14.0860   23.6260 N.3   401  TYR401     -0.1241
    157  CA        38.2840   13.5260   23.4370 C.3   401  TYR401      0.1605
    158  C         37.4740   14.5160   22.6240 C.2   401  TYR401      0.2264
    159  O         37.8370   15.6800   22.5300 O.2   401  TYR401     -0.2867
    160  CB        37.6170   13.2780   24.7840 C.3   401  TYR401      0.0534
    161  CG        38.3070   12.2410   25.6510 C.ar  401  TYR401     -0.0201
    162  CD1       38.4750   10.9300   25.2080 C.ar  401  TYR401     -0.0009
    163  CD2       38.7740   12.5660   26.9240 C.ar  401  TYR401     -0.0009
    164  CE1       39.0960    9.9720   26.0030 C.ar  401  TYR401      0.0417
    165  CE2       39.3920   11.6130   27.7320 C.ar  401  TYR401      0.0417
    166  CZ        39.5500   10.3220   27.2680 C.ar  401  TYR401      0.1957
    167  OH        40.1660    9.3780   28.0670 O.3   401  TYR401     -0.2866
@<TRIPOS>BOND
     1    83    82    1
     2    67    68    1
     3    82    79    1
     4    68    69    1
     5    68    71    1
     6    20    19    2
     7    19    18    1
     8    78    69   am
     9    78    79    1
    10    69    70    2
    11    29    28    2
    12    71    72    1
    13    26    27    1
    14    79    80    1
    15    81    80    2
    16    47    46    2
    17    62    61    2
    18    80    84   am
    19    46    45    1
    20    18    17    1
    21    18    21    1
    22    28    27    1
    23    51    52    1
    24    72    74   ar
    25    72    73   ar
    26    74    76   ar
    27    27    30    1
    28    87    86    2
    29    52    53    1
    30    52    55    1
    31    44    45    1
    32    84    85    1
    33    61    60    1
    34    40    39    2
    35    30    31    1
    36    21    22    1
    37    39    38    1
    38    37    43    1
    39    37    38    1
    40    45    48    1
    41    59    53   am
    42    59    60    1
    43    53    54    2
    44    85    86    1
    45   100    98   ar
    46   100   101   ar
    47    86    88   am
    48    73    75   ar
    49    76    77   ar
    50    55    56    1
    51    98    95   ar
    52    43    42    1
    53    60    63    1
    54    38    41    1
    55    31    32    1
    56    48    49    1
    57    48    50    1
    58   101    99   ar
    59    22    23    1
    60    63    64    1
    61    88    89    1
    62    75    77   ar
    63    92    89    1
    64    92    93    1
    65    24    23    2
    66    56    57    2
    67    56    58   am
    68    95    93   ar
    69    95    97   ar
    70    42    41    1
    71    32    33    1
    72    89    90    1
    73    23    25   am
    74    93    94   ar
    75    99    97   ar
    76    97    96   ar
    77    64    65    1
    78   111   109   ar
    79   111   112   ar
    80    33    34    2
    81   109   107   ar
    82    90   102   am
    83    90    91    2
    84   113   112    1
    85   102   103    1
    86    94    96   ar
    87   112   110   ar
    88    65    66    1
    89   159   158    2
    90   158   157    1
    91    34    35    1
    92    34    36    1
    93   107   106    1
    94   107   108   ar
    95   106   103    1
    96   157   156    1
    97   157   160    1
    98   103   104    1
    99   110   108   ar
   100   105   104    2
   101   160   161    1
   102   162   161   ar
   103   162   164   ar
   104   141   139    1
   105   130   128   ar
   106   161   163   ar
   107   122   120   ar
   108   121   120   ar
   109   164   166   ar
   110   129   128   ar
   111   128   127    1
   112   120   119    1
   113   139   138    2
   114   139   140    1
   115   127   124    1
   116   163   165   ar
   117   138   137    1
   118   166   165   ar
   119   166   167    1
   120   118   119    1
   121   118   115    1
   122   116   117    2
   123   116   115    1
   124   124   125    1
   125   124   123    1
   126   137   136    1
   127   126   125    2
   128   115   114    1
   129    16    14    1
   130    15    14    1
   131   133   134    2
   132   133   132    1
   133   135   132    1
   134   135   136    1
   135   132   131    1
   136   154   155   ar
   137   154   152   ar
   138   155   153   ar
   139    14    13    1
   140    13    10    1
   141   152   149   ar
   142   153   151   ar
   143     8     7    1
   144    10    11    1
   145    10     9    1
   146   149   151   ar
   147   149   147   ar
   148     4     3    2
   149   151   150   ar
   150    11    12    2
   151     7     6    1
   152     9     3   am
   153     3     2    1
   154   147   146    1
   155   147   148   ar
   156   150   148   ar
   157     5     2    1
   158     5     6    1
   159   146   143    1
   160     2     1    1
   161   145   144    2
   162   144   143    1
   163   143   142    1
