@<TRIPOS>MOLECULE
tmp/5fvpA02.pdb
 148 148 0 0 0
SMALL
GASTEIGER

@<TRIPOS>ATOM
      1  N          2.7050    9.0410   34.5420 N.3    38  MET38      -0.1245
      2  CA         3.0690    8.6250   33.1920 C.3    38  MET38       0.1570
      3  C          3.0180    9.7410   32.1460 C.2    38  MET38       0.2261
      4  O          3.9180    9.8420   31.3200 O.2    38  MET38      -0.2867
      5  CB         2.1960    7.4540   32.7420 C.3    38  MET38       0.0387
      6  CG         2.7790    6.0900   33.0840 C.3    38  MET38       0.0595
      7  SD         2.8010    5.0030   31.6490 S.3    38  MET38      -0.1393
      8  CE         3.3050    6.1820   30.3930 C.3    38  MET38       0.0692
      9  N          1.7810    1.6990   17.6030 N.3   168  SER168     -0.1202
     10  CA         2.6270    2.2600   18.6670 C.3   168  SER168      0.2020
     11  C          4.0870    1.8570   18.4870 C.2   168  SER168      0.2618
     12  O          4.9970    2.6310   18.7670 O.2   168  SER168     -0.2717
     13  CB         2.1350    1.8220   20.0420 C.3   168  SER168      0.2103
     14  OG         2.3280    0.4270   20.2180 O.3   168  SER168     -0.2182
     15  N          4.3090    0.6350   18.0190 N.am  169  GLN169     -0.1979
     16  CA         5.6310    0.2260   17.5480 C.3   169  GLN169      0.1601
     17  C          5.4470   -0.3390   16.1460 C.2   169  GLN169      0.2287
     18  O          4.3590   -0.7990   15.8130 O.2   169  GLN169     -0.2864
     19  CB         6.2590   -0.8260   18.4670 C.3   169  GLN169      0.0394
     20  CG         6.4180   -0.3880   19.9180 C.3   169  GLN169      0.0908
     21  CD         6.9000   -1.5200   20.8130 C.2   169  GLN169      0.2608
     22  OE1        7.7630   -2.3060   20.4230 O.2   169  GLN169     -0.2717
     23  NE2        6.3240   -1.6230   22.0070 N.am  169  GLN169     -0.0878
     24  N         13.0030   -3.2190   18.5260 N.3   256  PRO256     -0.2102
     25  CA        12.0450   -2.3310   19.1860 C.3   256  PRO256      0.1504
     26  C         12.0080   -1.0150   18.4260 C.2   256  PRO256      0.2576
     27  O         13.0520   -0.4230   18.1790 O.2   256  PRO256     -0.2718
     28  CB        12.6420   -2.1510   20.5770 C.3   256  PRO256      0.0282
     29  CG        14.1300   -2.2800   20.3650 C.3   256  PRO256      0.0208
     30  CD        14.3230   -3.2160   19.1800 C.3   256  PRO256      0.0893
     31  N         10.8200   -0.5620   18.0460 N.am  257  ALA257     -0.1966
     32  CA        10.7350    0.5330   17.0890 C.3   257  ALA257      0.1728
     33  C          9.5500    1.4200   17.3920 C.2   257  ALA257      0.2616
     34  O          8.4310    1.1540   16.9430 O.2   257  ALA257     -0.2715
     35  CB        10.6140   -0.0220   15.7010 C.3   257  ALA257      0.0334
     36  N          9.7900    2.4820   18.1440 N.am  258  VAL258     -0.1977
     37  CA         8.6920    3.3100   18.6220 C.3   258  VAL258      0.1596
     38  C          8.1970    4.2080   17.5130 C.2   258  VAL258      0.2287
     39  O          8.9970    4.8890   16.8750 O.2   258  VAL258     -0.2864
     40  CB         9.1470    4.1690   19.7940 C.3   258  VAL258      0.0276
     41  CG1        8.1170    5.2670   20.0880 C.3   258  VAL258      0.0022
     42  CG2        9.3570    3.2820   20.9990 C.3   258  VAL258      0.0022
     43  N          4.8520    6.1390   17.6420 N.3   260  ASN260     -0.1225
     44  CA         3.7410    7.0490   17.9110 C.3   260  ASN260      0.1785
     45  C          4.1540    8.3720   18.5400 C.2   260  ASN260      0.2597
     46  O          3.3060    9.1280   18.9820 O.2   260  ASN260     -0.2718
     47  CB         2.6990    6.3760   18.8060 C.3   260  ASN260      0.1169
     48  CG         3.3170    5.8340   20.0690 C.2   260  ASN260      0.2627
     49  OD1        4.5000    6.0600   20.3150 O.2   260  ASN260     -0.2716
     50  ND2        2.5480    5.1050   20.8630 N.am  260  ASN260     -0.0877
     51  N          5.4410    8.6720   18.5960 N.am  261  MET261     -0.1979
     52  CA         5.8060    9.8930   19.2790 C.3   261  MET261      0.1605
     53  C          5.9740   11.0770   18.3550 C.2   261  MET261      0.2287
     54  O          5.9670   10.9220   17.1340 O.2   261  MET261     -0.2864
     55  CB         7.0270    9.6610   20.1340 C.3   261  MET261      0.0413
     56  CG         6.6980    8.7170   21.2710 C.3   261  MET261      0.0598
     57  SD         8.0180    8.6130   22.4850 S.3   261  MET261     -0.1393
     58  CE         7.8780   10.2140   23.2910 C.3   261  MET261      0.0692
     59  N         11.2730    5.4660   15.2590 N.3   275  PHE275     -0.1227
     60  CA        12.6800    5.2610   15.5960 C.3   275  PHE275      0.1736
     61  C         12.9090    3.9360   16.3290 C.2   275  PHE275      0.2596
     62  O         12.0000    3.4020   16.9690 O.2   275  PHE275     -0.2718
     63  CB        13.2020    6.4160   16.4290 C.3   275  PHE275      0.0547
     64  CG        12.4900    6.5990   17.7390 C.ar  275  PHE275     -0.0202
     65  CD1       12.9240    5.9500   18.8750 C.ar  275  PHE275     -0.0042
     66  CD2       11.4160    7.4600   17.8430 C.ar  275  PHE275     -0.0042
     67  CE1       12.2890    6.1370   20.0980 C.ar  275  PHE275     -0.0003
     68  CE2       10.7700    7.6380   19.0610 C.ar  275  PHE275     -0.0003
     69  CZ        11.2180    6.9780   20.1900 C.ar  275  PHE275     -0.0000
     70  N         14.1300    3.4170   16.2370 N.am  276  SER276     -0.1938
     71  CA        14.4230    2.0810   16.7170 C.3   276  SER276      0.2055
     72  C         15.8580    1.9660   17.1840 C.2   276  SER276      0.2644
     73  O         16.7360    2.7260   16.7690 O.2   276  SER276     -0.2714
     74  CB        14.1790    1.0630   15.6080 C.3   276  SER276      0.2130
     75  OG        15.1230    1.2120   14.5470 O.3   276  SER276     -0.2179
     76  N         16.0990    1.0060   18.0640 N.am  277  GLY277     -0.1939
     77  CA        17.4480    0.7060   18.5070 C.3   277  GLY277      0.2014
     78  C         17.4820   -0.7770   18.7550 C.2   277  GLY277      0.2639
     79  O         17.2740   -1.5780   17.8490 O.2   277  GLY277     -0.2714
     80  N         17.7010   -1.1500   20.0010 N.am  278  TRP278     -0.1959
     81  CA        17.7110   -2.5590   20.3550 C.3   278  TRP278      0.1771
     82  C         17.2990   -2.7070   21.7970 C.2   278  TRP278      0.2620
     83  O         17.3660   -1.7620   22.5740 O.2   278  TRP278     -0.2715
     84  CB        19.0960   -3.1710   20.1530 C.3   278  TRP278      0.0590
     85  CG        20.2100   -2.4840   20.8770 C.ar  278  TRP278      0.0006
     86  CD1       20.5320   -2.6020   22.2020 C.ar  278  TRP278      0.0946
     87  CD2       21.1720   -1.6000   20.3060 C.ar  278  TRP278      0.0152
     88  NE1       21.6340   -1.8370   22.4900 N.ar  278  TRP278     -0.2442
     89  CE2       22.0430   -1.2040   21.3440 C.ar  278  TRP278      0.0810
     90  CE3       21.3810   -1.0940   19.0140 C.ar  278  TRP278      0.0012
     91  CZ2       23.1150   -0.3350   21.1300 C.ar  278  TRP278      0.0191
     92  CZ3       22.4420   -0.2330   18.8030 C.ar  278  TRP278      0.0001
     93  CH2       23.3020    0.1340   19.8530 C.ar  278  TRP278      0.0015
     94  N         16.9140   -3.9210   22.1470 N.am  279  TYR279     -0.1960
     95  CA        16.2220   -4.1910   23.3950 C.3   279  TYR279      0.1771
     96  C         17.1720   -4.3300   24.5680 C.2   279  TYR279      0.2619
     97  O         18.2940   -4.8280   24.4280 O.2   279  TYR279     -0.2715
     98  CB        15.4730   -5.5050   23.2330 C.3   279  TYR279      0.0574
     99  CG        14.0070   -5.4030   22.8900 C.ar  279  TYR279     -0.0198
    100  CD1       13.1430   -4.6130   23.6430 C.ar  279  TYR279     -0.0009
    101  CD2       13.4690   -6.1590   21.8470 C.ar  279  TYR279     -0.0009
    102  CE1       11.7900   -4.5620   23.3430 C.ar  279  TYR279      0.0417
    103  CE2       12.1230   -6.1170   21.5450 C.ar  279  TYR279      0.0417
    104  CZ        11.2900   -5.3180   22.2920 C.ar  279  TYR279      0.1957
    105  OH         9.9510   -5.2770   21.9860 O.3   279  TYR279     -0.2866
    106  N         16.7120   -3.8930   25.7340 N.am  280  MET280     -0.1977
    107  CA        17.3270   -4.2840   26.9850 C.3   280  MET280      0.1605
    108  C         16.5440   -5.5180   27.4130 C.2   280  MET280      0.2287
    109  O         15.3140   -5.5400   27.3040 O.2   280  MET280     -0.2864
    110  CB        17.1990   -3.1640   28.0140 C.3   280  MET280      0.0413
    111  CG        17.7540   -3.5330   29.3980 C.3   280  MET280      0.0598
    112  SD        18.0040   -2.0500   30.4150 S.3   280  MET280     -0.1393
    113  CE        16.3350   -1.7710   31.0330 C.3   280  MET280      0.0692
    114  N         12.9750   -5.4970   29.2130 N.3   283  GLU283     -0.1245
    115  CA        11.8040   -5.0180   28.4850 C.3   283  GLU283      0.1567
    116  C         10.9080   -6.1500   28.0110 C.2   283  GLU283      0.2260
    117  O          9.6830   -6.0620   28.1140 O.2   283  GLU283     -0.2867
    118  CB        12.2310   -4.2110   27.2830 C.3   283  GLU283      0.0388
    119  CG        12.8990   -2.8960   27.6570 C.3   283  GLU283      0.1160
    120  CD        13.3190   -2.0920   26.4190 C.2   283  GLU283      0.3649
    121  OE1       14.3910   -2.3860   25.8430 O.co2 283  GLU283     -0.2457
    122  OE2       12.5700   -1.1740   26.0210 O.co2 283  GLU283     -0.2457
    123  N         12.0330    5.7540   35.3790 N.3   369  TRP369     -0.1241
    124  CA        12.0890    4.9910   34.1320 C.3   369  TRP369      0.1605
    125  C         13.4540    4.4040   33.8320 C.2   369  TRP369      0.2264
    126  O         13.5600    3.4650   33.0500 O.2   369  TRP369     -0.2867
    127  CB        11.6650    5.8790   32.9600 C.3   369  TRP369      0.0550
    128  CG        10.1940    6.0470   32.9100 C.ar  369  TRP369      0.0003
    129  CD1        9.4010    6.6340   33.8470 C.ar  369  TRP369      0.0946
    130  CD2        9.3290    5.6020   31.8620 C.ar  369  TRP369      0.0152
    131  NE1        8.0810    6.5830   33.4450 N.ar  369  TRP369     -0.2442
    132  CE2        8.0150    5.9480   32.2300 C.ar  369  TRP369      0.0810
    133  CE3        9.5420    4.9430   30.6450 C.ar  369  TRP369      0.0012
    134  CZ2        6.9130    5.6660   31.4160 C.ar  369  TRP369      0.0191
    135  CZ3        8.4460    4.6520   29.8370 C.ar  369  TRP369      0.0001
    136  CH2        7.1480    5.0190   30.2270 C.ar  369  TRP369      0.0015
    137  N          4.8800   12.8940   23.7350 N.3   397  TYR397     -0.1241
    138  CA         3.7580   12.0220   23.4550 C.3   397  TYR397      0.1605
    139  C          2.7440   12.7760   22.6360 C.2   397  TYR397      0.2264
    140  O          2.7600   14.0050   22.5780 O.2   397  TYR397     -0.2867
    141  CB         3.1110   11.5410   24.7400 C.3   397  TYR397      0.0534
    142  CG         4.0560   10.7890   25.6310 C.ar  397  TYR397     -0.0201
    143  CD1        4.4440    9.4800   25.3330 C.ar  397  TYR397     -0.0009
    144  CD2        4.5760   11.3880   26.7710 C.ar  397  TYR397     -0.0009
    145  CE1        5.3170    8.7890   26.1700 C.ar  397  TYR397      0.0417
    146  CE2        5.4440   10.7100   27.6070 C.ar  397  TYR397      0.0417
    147  CZ         5.8080    9.4210   27.3070 C.ar  397  TYR397      0.1957
    148  OH         6.6730    8.7750   28.1550 O.3   397  TYR397     -0.2866
@<TRIPOS>BOND
     1    75    74    1
     2    59    60    1
     3    60    61    1
     4    60    63    1
     5    74    71    1
     6    35    32    1
     7    18    17    2
     8    17    16    1
     9    70    61   am
    10    70    71    1
    11    61    62    2
    12    63    64    1
    13    71    72    1
    14    73    72    2
    15    39    38    2
    16    34    33    2
    17    32    33    1
    18    32    31    1
    19    54    53    2
    20    72    76   am
    21    33    36   am
    22    38    37    1
    23    16    15    1
    24    16    19    1
    25     9    10    1
    26    43    44    1
    27    64    66   ar
    28    64    65   ar
    29    66    68   ar
    30    79    78    2
    31    44    45    1
    32    44    47    1
    33    15    11   am
    34    31    26   am
    35    76    77    1
    36    36    37    1
    37    27    26    2
    38    53    52    1
    39    26    25    1
    40    19    20    1
    41    11    10    1
    42    11    12    2
    43    77    78    1
    44    24    30    1
    45    24    25    1
    46    45    51   am
    47    45    46    2
    48    51    52    1
    49    37    40    1
    50    10    13    1
    51    78    80   am
    52    92    90   ar
    53    92    93   ar
    54    47    48    1
    55    65    67   ar
    56    90    87   ar
    57    68    69   ar
    58    30    29    1
    59    25    28    1
    60    52    55    1
    61    40    41    1
    62    40    42    1
    63    93    91   ar
    64    20    21    1
    65    80    81    1
    66    13    14    1
    67    48    49    2
    68    48    50   am
    69    67    69   ar
    70    55    56    1
    71    84    81    1
    72    84    85    1
    73    87    85   ar
    74    87    89   ar
    75    81    82    1
    76    29    28    1
    77    22    21    2
    78    21    23   am
    79    85    86   ar
    80    91    89   ar
    81    56    57    1
    82    89    88   ar
    83   103   101   ar
    84   103   104   ar
    85    82    94   am
    86    82    83    2
    87   101    99   ar
    88   105   104    1
    89    94    95    1
    90    86    88   ar
    91   104   102   ar
    92    57    58    1
    93   140   139    2
    94   139   138    1
    95    99    98    1
    96    99   100   ar
    97    98    95    1
    98   102   100   ar
    99    95    96    1
   100   138   137    1
   101   138   141    1
   102    97    96    2
   103    96   106   am
   104   141   142    1
   105   143   142   ar
   106   143   145   ar
   107   142   144   ar
   108   106   107    1
   109   121   120   ar
   110   122   120   ar
   111   145   147   ar
   112   120   119    1
   113   144   146   ar
   114   107   108    1
   115   107   110    1
   116   118   119    1
   117   118   115    1
   118   109   108    2
   119   147   146   ar
   120   147   148    1
   121   116   117    2
   122   116   115    1
   123   110   111    1
   124   115   114    1
   125   111   112    1
   126   135   136   ar
   127   135   133   ar
   128   136   134   ar
   129     8     7    1
   130   112   113    1
   131   133   130   ar
   132     4     3    2
   133   134   132   ar
   134     7     6    1
   135   130   132   ar
   136   130   128   ar
   137     3     2    1
   138   132   131   ar
   139     5     6    1
   140     5     2    1
   141   128   127    1
   142   128   129   ar
   143   127   124    1
   144   126   125    2
   145     2     1    1
   146   131   129   ar
   147   125   124    1
   148   124   123    1
