@<TRIPOS>MOLECULE
tmp/5fvqA02.pdb
 172 169 0 0 0
SMALL
GASTEIGER

@<TRIPOS>ATOM
      1  N          2.9460    8.8770   34.3750 N.3    38  MET38      -0.1245
      2  CA         3.3980    8.5050   33.0340 C.3    38  MET38       0.1570
      3  C          3.2720    9.6540   32.0280 C.2    38  MET38       0.2261
      4  O          4.2000    9.9140   31.2600 O.2    38  MET38      -0.2867
      5  CB         2.6180    7.2920   32.5170 C.3    38  MET38       0.0387
      6  CG         3.1450    6.7530   31.1980 C.3    38  MET38       0.0595
      7  SD         4.2470    5.3460   31.4310 S.3    38  MET38      -0.1393
      8  CE         3.1080    4.0990   32.0410 C.3    38  MET38       0.0692
      9  N          4.2730    1.1090   17.9850 N.3   169  GLN169     -0.1245
     10  CA         5.6080    0.6410   17.6060 C.3   169  GLN169      0.1566
     11  C          5.5230   -0.0010   16.2130 C.2   169  GLN169      0.2260
     12  O          4.4760   -0.5390   15.8650 O.2   169  GLN169     -0.2867
     13  CB         6.1320   -0.3570   18.6440 C.3   169  GLN169      0.0367
     14  CG         6.3590    0.2390   20.0510 C.3   169  GLN169      0.0905
     15  CD         5.0630    0.4730   20.8530 C.2   169  GLN169      0.2608
     16  OE1        3.9920   -0.0200   20.4890 O.2   169  GLN169     -0.2717
     17  NE2        5.1640    1.2350   21.9440 N.am  169  GLN169     -0.0878
     18  N          4.6440   -5.0380   16.3600 N.3   172  ARG172     -0.1245
     19  CA         3.9160   -5.5640   17.5280 C.3   172  ARG172      0.1563
     20  C          2.8960   -6.6520   17.1990 C.2   172  ARG172      0.2260
     21  O          2.4570   -6.7960   16.0580 O.2   172  ARG172     -0.2867
     22  CB         3.2260   -4.4460   18.2970 C.3   172  ARG172      0.0307
     23  CG         4.1800   -3.7030   19.1890 C.3   172  ARG172      0.0489
     24  CD         3.4810   -2.8760   20.1810 C.3   172  ARG172      0.2205
     25  NE         3.0780   -3.6150   21.3690 N.pl3 172  ARG172     -0.0865
     26  CZ         2.6520   -3.0190   22.4720 C.cat 172  ARG172      0.5346
     27  NH1        2.6070   -1.6960   22.5070 N.pl3 172  ARG172      0.1354
     28  NH2        2.2830   -3.7360   23.5290 N.pl3 172  ARG172      0.1354
     29  N         -2.5680   -5.6590   25.3530 N.3   188  ALA188     -0.1245
     30  CA        -2.4080   -4.2090   25.1950 C.3   188  ALA188      0.1562
     31  C         -2.7900   -3.6930   23.8060 C.2   188  ALA188      0.2260
     32  O         -2.8840   -2.4790   23.5900 O.2   188  ALA188     -0.2867
     33  CB        -0.9780   -3.8040   25.5050 C.3   188  ALA188      0.0290
     34  N          9.9180  -10.1970   18.7890 N.3   253  TYR253     -0.1241
     35  CA        10.5480   -9.5580   17.6320 C.3   253  TYR253      0.1605
     36  C         11.8640   -8.9190   18.0600 C.2   253  TYR253      0.2264
     37  O         12.0030   -8.4940   19.2140 O.2   253  TYR253     -0.2867
     38  CB         9.6010   -8.5300   17.0090 C.3   253  TYR253      0.0534
     39  CG         8.8940   -7.6250   18.0030 C.ar  253  TYR253     -0.0201
     40  CD1        7.6650   -7.9860   18.5590 C.ar  253  TYR253     -0.0009
     41  CD2        9.4440   -6.3990   18.3640 C.ar  253  TYR253     -0.0009
     42  CE1        7.0190   -7.1540   19.4590 C.ar  253  TYR253      0.0417
     43  CE2        8.8050   -5.5670   19.2480 C.ar  253  TYR253      0.0417
     44  CZ         7.5940   -5.9500   19.7960 C.ar  253  TYR253      0.1957
     45  OH         6.9520   -5.1150   20.6840 O.3   253  TYR253     -0.2866
     46  N         13.1170   -3.1670   18.4070 N.3   256  PRO256     -0.2102
     47  CA        12.2510   -2.2330   19.1290 C.3   256  PRO256      0.1504
     48  C         12.2200   -0.8910   18.4030 C.2   256  PRO256      0.2576
     49  O         13.2360   -0.2080   18.2590 O.2   256  PRO256     -0.2718
     50  CB        12.9230   -2.1130   20.4990 C.3   256  PRO256      0.0282
     51  CG        14.3870   -2.3810   20.2410 C.3   256  PRO256      0.0208
     52  CD        14.4680   -3.2640   18.9960 C.3   256  PRO256      0.0893
     53  N         11.0410   -0.5180   17.9340 N.am  257  ALA257     -0.1966
     54  CA        10.9270    0.6400   17.0660 C.3   257  ALA257      0.1728
     55  C          9.7220    1.4910   17.4380 C.2   257  ALA257      0.2616
     56  O          8.5910    1.1630   17.0840 O.2   257  ALA257     -0.2715
     57  CB        10.8330    0.1800   15.6210 C.3   257  ALA257      0.0334
     58  N          9.9670    2.5950   18.1350 N.am  258  VAL258     -0.1977
     59  CA         8.8750    3.4340   18.6110 C.3   258  VAL258      0.1596
     60  C          8.3640    4.3060   17.4900 C.2   258  VAL258      0.2287
     61  O          9.1460    4.9980   16.8470 O.2   258  VAL258     -0.2864
     62  CB         9.3430    4.3320   19.7530 C.3   258  VAL258      0.0276
     63  CG1        8.2640    5.3660   20.0900 C.3   258  VAL258      0.0022
     64  CG2        9.6910    3.4730   20.9620 C.3   258  VAL258      0.0022
     65  N         11.6190    5.5630   15.3200 N.3   275  PHE275     -0.1227
     66  CA        13.0210    5.3170   15.6500 C.3   275  PHE275      0.1736
     67  C         13.2040    3.9660   16.3370 C.2   275  PHE275      0.2596
     68  O         12.2690    3.4190   16.9220 O.2   275  PHE275     -0.2718
     69  CB        13.6040    6.4370   16.5170 C.3   275  PHE275      0.0547
     70  CG        12.8480    6.6830   17.8020 C.ar  275  PHE275     -0.0202
     71  CD1       13.1350    5.9510   18.9600 C.ar  275  PHE275     -0.0042
     72  CD2       11.8640    7.6620   17.8550 C.ar  275  PHE275     -0.0042
     73  CE1       12.4480    6.2070   20.1610 C.ar  275  PHE275     -0.0003
     74  CE2       11.1650    7.9170   19.0380 C.ar  275  PHE275     -0.0003
     75  CZ        11.4640    7.1800   20.1960 C.ar  275  PHE275     -0.0000
     76  N         14.4230    3.4410   16.2620 N.am  276  SER276     -0.1938
     77  CA        14.7060    2.1010   16.7490 C.3   276  SER276      0.2055
     78  C         16.1560    1.9720   17.1980 C.2   276  SER276      0.2644
     79  O         17.0530    2.6500   16.6800 O.2   276  SER276     -0.2714
     80  CB        14.3940    1.0560   15.6680 C.3   276  SER276      0.2130
     81  OG        15.2080    1.2430   14.5160 O.3   276  SER276     -0.2179
     82  N         16.3810    1.0910   18.1700 N.am  277  GLY277     -0.1939
     83  CA        17.7270    0.7350   18.5760 C.3   277  GLY277      0.2014
     84  C         17.7960   -0.7680   18.7320 C.2   277  GLY277      0.2639
     85  O         17.5660   -1.5110   17.7840 O.2   277  GLY277     -0.2714
     86  N         18.1020   -1.2290   19.9390 N.am  278  TRP278     -0.1959
     87  CA        18.0400   -2.6590   20.2210 C.3   278  TRP278      0.1771
     88  C         17.5720   -2.8360   21.6520 C.2   278  TRP278      0.2620
     89  O         17.7080   -1.9220   22.4700 O.2   278  TRP278     -0.2715
     90  CB        19.3910   -3.3520   20.0000 C.3   278  TRP278      0.0590
     91  CG        20.5080   -2.7060   20.7350 C.ar  278  TRP278      0.0006
     92  CD1       20.7930   -2.8200   22.0730 C.ar  278  TRP278      0.0946
     93  CD2       21.5000   -1.8350   20.1820 C.ar  278  TRP278      0.0152
     94  NE1       21.9010   -2.0670   22.3800 N.ar  278  TRP278     -0.2442
     95  CE2       22.3530   -1.4490   21.2390 C.ar  278  TRP278      0.0810
     96  CE3       21.7490   -1.3410   18.8920 C.ar  278  TRP278      0.0012
     97  CZ2       23.4470   -0.5980   21.0440 C.ar  278  TRP278      0.0191
     98  CZ3       22.8310   -0.4920   18.6980 C.ar  278  TRP278      0.0001
     99  CH2       23.6700   -0.1320   19.7680 C.ar  278  TRP278      0.0015
    100  N         17.0300   -4.0140   21.9380 N.am  279  TYR279     -0.1960
    101  CA        16.3530   -4.2850   23.2070 C.3   279  TYR279      0.1771
    102  C         17.2960   -4.4170   24.3880 C.2   279  TYR279      0.2619
    103  O         18.4530   -4.8260   24.2450 O.2   279  TYR279     -0.2715
    104  CB        15.5820   -5.5920   23.0970 C.3   279  TYR279      0.0574
    105  CG        14.1180   -5.4420   22.7720 C.ar  279  TYR279     -0.0198
    106  CD1       13.2790   -4.7520   23.6280 C.ar  279  TYR279     -0.0009
    107  CD2       13.5690   -6.0090   21.6130 C.ar  279  TYR279     -0.0009
    108  CE1       11.9400   -4.6270   23.3630 C.ar  279  TYR279      0.0417
    109  CE2       12.2140   -5.8800   21.3300 C.ar  279  TYR279      0.0417
    110  CZ        11.4090   -5.1830   22.2260 C.ar  279  TYR279      0.1957
    111  OH        10.0610   -5.0230   22.0050 O.3   279  TYR279     -0.2866
    112  N         16.7750   -4.0610   25.5590 N.am  280  MET280     -0.1977
    113  CA        17.3490   -4.4680   26.8240 C.3   280  MET280      0.1605
    114  C         16.4470   -5.6070   27.2670 C.2   280  MET280      0.2287
    115  O         15.2190   -5.4780   27.2280 O.2   280  MET280     -0.2864
    116  CB        17.3100   -3.3030   27.8310 C.3   280  MET280      0.0413
    117  CG        17.8530   -3.6780   29.2180 C.3   280  MET280      0.0598
    118  SD        18.1000   -2.2320   30.2830 S.3   280  MET280     -0.1393
    119  CE        16.4010   -1.8790   30.7860 C.3   280  MET280      0.0692
    120  N         12.9170   -5.5800   29.0940 N.3   283  GLU283     -0.1245
    121  CA        11.7570   -5.0660   28.3750 C.3   283  GLU283      0.1567
    122  C         10.8470   -6.2110   27.9330 C.2   283  GLU283      0.2260
    123  O          9.6310   -6.1770   28.1450 O.2   283  GLU283     -0.2867
    124  CB        12.1940   -4.2510   27.1520 C.3   283  GLU283      0.0388
    125  CG        12.9860   -2.9740   27.4530 C.3   283  GLU283      0.1160
    126  CD        13.3540   -2.2080   26.1730 C.2   283  GLU283      0.3649
    127  OE1       12.4640   -1.5030   25.6360 O.co2 283  GLU283     -0.2457
    128  OE2       14.5140   -2.3290   25.6950 O.co2 283  GLU283     -0.2457
    129  N          8.6170   -7.0870   31.3770 N.3   287  ARG287     -0.1231
    130  CA         7.4020   -6.3350   31.0830 C.3   287  ARG287      0.1694
    131  C          6.4810   -7.0920   30.1090 C.2   287  ARG287      0.2592
    132  O          5.3650   -7.4590   30.4660 O.2   287  ARG287     -0.2718
    133  CB         7.7370   -4.9190   30.5720 C.3   287  ARG287      0.0321
    134  CG         8.6120   -4.0810   31.5270 C.3   287  ARG287      0.0489
    135  CD         7.9590   -3.8650   32.9230 C.3   287  ARG287      0.2205
    136  NE         6.5560   -3.4580   32.8080 N.pl3 287  ARG287     -0.0865
    137  CZ         6.1490   -2.2200   32.5190 C.cat 287  ARG287      0.5346
    138  NH1        7.0360   -1.2490   32.3470 N.pl3 287  ARG287      0.1354
    139  NH2        4.8540   -1.9510   32.4060 N.pl3 287  ARG287      0.1354
    140  N          6.9590   -7.3350   28.8880 N.am  288  ASP288     -0.1974
    141  CA         6.1470   -7.9950   27.8640 C.3   288  ASP288      0.1709
    142  C          5.6230   -9.3710   28.2750 C.2   288  ASP288      0.2293
    143  O          4.4720   -9.7070   27.9930 O.2   288  ASP288     -0.2864
    144  CB         6.9290   -8.1010   26.5430 C.3   288  ASP288      0.1436
    145  CG         7.2850   -6.7440   25.9760 C.2   288  ASP288      0.3671
    146  OD1        6.5650   -5.7750   26.2910 O.co2 288  ASP288     -0.2456
    147  OD2        8.2800   -6.6410   25.2240 O.co2 288  ASP288     -0.2456
    148  N         -0.1690   -7.9980   30.3590 N.3   294  ARG294     -0.1245
    149  CA         0.4590   -8.3570   29.0850 C.3   294  ARG294      0.1563
    150  C          0.3470   -9.8640   28.8460 C.2   294  ARG294      0.2260
    151  O         -0.7380  -10.4210   29.0040 O.2   294  ARG294     -0.2867
    152  CB         1.9060   -7.8700   29.0430 C.3   294  ARG294      0.0307
    153  CG         2.0140   -6.3610   29.1050 C.3   294  ARG294      0.0489
    154  CD         1.3670   -5.7210   27.8880 C.3   294  ARG294      0.2205
    155  NE         1.9890   -6.1680   26.6380 N.pl3 294  ARG294     -0.0865
    156  CZ         3.2100   -5.8050   26.2420 C.cat 294  ARG294      0.5346
    157  NH1        3.9460   -4.9920   26.9980 N.pl3 294  ARG294      0.1354
    158  NH2        3.7020   -6.2490   25.0880 N.pl3 294  ARG294      0.1354
    159  N         12.0830    5.6360   35.2240 N.3   369  TRP369     -0.1241
    160  CA        12.1620    4.8490   33.9800 C.3   369  TRP369      0.1605
    161  C         13.5250    4.2230   33.7350 C.2   369  TRP369      0.2264
    162  O         13.6420    3.1930   33.0510 O.2   369  TRP369     -0.2867
    163  CB        11.8070    5.7320   32.7850 C.3   369  TRP369      0.0550
    164  CG        10.3710    5.7000   32.4660 C.ar  369  TRP369      0.0003
    165  CD1        9.3330    6.1140   33.2690 C.ar  369  TRP369      0.0946
    166  CD2        9.7840    5.2420   31.2430 C.ar  369  TRP369      0.0152
    167  NE1        8.1390    5.9270   32.6080 N.ar  369  TRP369     -0.2442
    168  CE2        8.3890    5.3950   31.3650 C.ar  369  TRP369      0.0810
    169  CE3       10.3060    4.7250   30.0520 C.ar  369  TRP369      0.0012
    170  CZ2        7.5020    5.0410   30.3340 C.ar  369  TRP369      0.0191
    171  CZ3        9.4250    4.3700   29.0280 C.ar  369  TRP369      0.0001
    172  CH2        8.0400    4.5340   29.1770 C.ar  369  TRP369      0.0015
@<TRIPOS>BOND
     1    81    80    1
     2    65    66    1
     3    57    54    1
     4    66    67    1
     5    66    69    1
     6    80    77    1
     7    12    11    2
     8    21    20    2
     9    11    10    1
    10    76    67   am
    11    76    77    1
    12    67    68    2
    13    18    19    1
    14    69    70    1
    15    79    78    2
    16    77    78    1
    17    61    60    2
    18    38    35    1
    19    38    39    1
    20    54    55    1
    21    54    53    1
    22    56    55    2
    23    78    82   am
    24    20    19    1
    25    55    58   am
    26    60    59    1
    27    19    22    1
    28    10     9    1
    29    10    13    1
    30    35    36    1
    31    35    34    1
    32    85    84    2
    33    70    72   ar
    34    70    71   ar
    35    72    74   ar
    36    53    48   am
    37    39    41   ar
    38    39    40   ar
    39    36    37    2
    40    58    59    1
    41    82    83    1
    42    49    48    2
    43    22    23    1
    44    41    43   ar
    45    48    47    1
    46    46    52    1
    47    46    47    1
    48    40    42   ar
    49    83    84    1
    50    59    62    1
    51    13    14    1
    52    98    96   ar
    53    98    99   ar
    54    84    86   am
    55    96    93   ar
    56    71    73   ar
    57    52    51    1
    58    74    75   ar
    59    47    50    1
    60    23    24    1
    61    43    44   ar
    62    42    44   ar
    63    62    63    1
    64    62    64    1
    65    99    97   ar
    66    44    45    1
    67    86    87    1
    68    90    87    1
    69    90    91    1
    70    14    15    1
    71    73    75   ar
    72    24    25    1
    73    93    91   ar
    74    93    95   ar
    75    87    88    1
    76    51    50    1
    77    16    15    2
    78    91    92   ar
    79    15    17   am
    80    97    95   ar
    81    95    94   ar
    82   109   107   ar
    83   109   110   ar
    84    25    26    2
    85   107   105   ar
    86    88   100   am
    87    88    89    2
    88   100   101    1
    89   111   110    1
    90    92    94   ar
    91   110   108   ar
    92    26    27    1
    93    26    28    1
    94   105   104    1
    95   105   106   ar
    96   104   101    1
    97   101   102    1
    98   108   106   ar
    99    32    31    2
   100    31    30    1
   101   103   102    2
   102   102   112   am
   103   158   156    1
   104    30    29    1
   105    30    33    1
   106   147   145   ar
   107   112   113    1
   108   127   126   ar
   109   128   126   ar
   110   145   146   ar
   111   145   144    1
   112   126   125    1
   113   156   155    2
   114   156   157    1
   115   144   141    1
   116   155   154    1
   117   113   114    1
   118   113   116    1
   119   124   125    1
   120   124   121    1
   121   115   114    2
   122   116   117    1
   123   141   142    1
   124   141   140    1
   125   154   153    1
   126   122   123    2
   127   122   121    1
   128   143   142    2
   129   121   120    1
   130   150   151    2
   131   150   149    1
   132   140   131   am
   133   171   172   ar
   134   171   169   ar
   135   152   149    1
   136   152   153    1
   137   149   148    1
   138   172   170   ar
   139   117   118    1
   140   169   166   ar
   141   131   132    2
   142   131   130    1
   143   118   119    1
   144   170   168   ar
   145   133   130    1
   146   133   134    1
   147   130   129    1
   148     6     7    1
   149     6     5    1
   150   166   168   ar
   151   166   164   ar
   152     4     3    2
   153   168   167   ar
   154     7     8    1
   155   134   135    1
   156     3     2    1
   157   138   137    1
   158   139   137    1
   159   164   163    1
   160   164   165   ar
   161     5     2    1
   162   137   136    2
   163   167   165   ar
   164   163   160    1
   165   136   135    1
   166     2     1    1
   167   162   161    2
   168   161   160    1
   169   160   159    1
