@<TRIPOS>MOLECULE
tmp/5fvvA02.pdb
 173 170 0 0 0
SMALL
GASTEIGER

@<TRIPOS>ATOM
      1  N        123.4800  255.4400  346.6180 N.3    40  MET40      -0.1245
      2  CA       123.2300  254.9370  347.9730 C.3    40  MET40       0.1570
      3  C        122.9360  256.0110  349.0430 C.2    40  MET40       0.2261
      4  O        121.9660  255.8980  349.7940 O.2    40  MET40      -0.2867
      5  CB       124.3900  254.0580  348.4070 C.3    40  MET40       0.0387
      6  CG       124.2650  253.5590  349.8470 C.3    40  MET40       0.0595
      7  SD       124.3320  251.7570  349.9470 S.3    40  MET40      -0.1393
      8  CE       125.5360  251.3650  348.6750 C.3    40  MET40       0.0692
      9  N        112.8060  249.0760  352.8310 N.3   111  CYS111     -0.1235
     10  CA       112.5980  247.8730  353.6420 C.3   111  CYS111      0.1677
     11  C        111.5390  246.9670  353.0640 C.2   111  CYS111      0.2270
     12  O        110.3700  247.3270  353.0100 O.2   111  CYS111     -0.2867
     13  CB       112.1900  248.2330  355.0750 C.3   111  CYS111      0.0956
     14  SG       111.9090  246.7960  356.1850 S.3   111  CYS111     -0.0801
     15  N        125.8920  248.1840  363.2140 N.3   174  GLN174     -0.1245
     16  CA       124.9220  247.1710  363.6140 C.3   174  GLN174      0.1566
     17  C        125.3080  246.6110  364.9960 C.2   174  GLN174      0.2260
     18  O        126.4910  246.4770  365.2970 O.2   174  GLN174     -0.2867
     19  CB       124.8300  246.0390  362.5790 C.3   174  GLN174      0.0367
     20  CG       124.3760  246.4590  361.1630 C.3   174  GLN174      0.0905
     21  CD       125.5230  247.0110  360.3220 C.2   174  GLN174      0.2608
     22  OE1      126.6540  246.5390  360.4180 O.2   174  GLN174     -0.2717
     23  NE2      125.2400  248.0300  359.5170 N.am  174  GLN174     -0.0878
     24  N        128.0520  242.5060  364.7690 N.3   177  ARG177     -0.1245
     25  CA       128.8730  242.3360  363.5690 C.3   177  ARG177      0.1563
     26  C        130.1400  241.5570  363.9220 C.2   177  ARG177      0.2260
     27  O        130.5380  241.5170  365.0820 O.2   177  ARG177     -0.2867
     28  CB       129.2980  243.6880  362.9830 C.3   177  ARG177      0.0307
     29  CG       128.2880  244.4170  362.1120 C.3   177  ARG177      0.0489
     30  CD       127.7300  243.5870  360.9390 C.3   177  ARG177      0.2205
     31  NE       128.6340  243.3460  359.8090 N.pl3 177  ARG177     -0.0865
     32  CZ       128.8890  244.2160  358.8250 C.cat 177  ARG177      0.5346
     33  NH1      128.3590  245.4370  358.8320 N.pl3 177  ARG177      0.1354
     34  NH2      129.7090  243.8750  357.8300 N.pl3 177  ARG177      0.1354
     35  N        125.3270  235.2980  362.7910 N.3   258  TYR258     -0.1241
     36  CA       124.4760  235.6850  363.9120 C.3   258  TYR258      0.1605
     37  C        123.0120  235.6960  363.4840 C.2   258  TYR258      0.2264
     38  O        122.7120  235.9310  362.3220 O.2   258  TYR258     -0.2867
     39  CB       124.9010  237.0440  364.4740 C.3   258  TYR258      0.0534
     40  CG       125.2300  238.0980  363.4260 C.ar  258  TYR258     -0.0201
     41  CD1      126.5140  238.2240  362.9140 C.ar  258  TYR258     -0.0009
     42  CD2      124.2610  238.9970  362.9890 C.ar  258  TYR258     -0.0009
     43  CE1      126.8140  239.2000  361.9670 C.ar  258  TYR258      0.0417
     44  CE2      124.5470  239.9700  362.0380 C.ar  258  TYR258      0.0417
     45  CZ       125.8290  240.0640  361.5320 C.ar  258  TYR258      0.1957
     46  OH       126.1270  241.0350  360.5990 O.3   258  TYR258     -0.2866
     47  N        119.5440  240.5640  363.0310 N.3   261  PRO261     -0.2102
     48  CA       119.9570  241.7170  362.2300 C.3   261  PRO261      0.1504
     49  C        119.4450  242.9770  362.9050 C.2   261  PRO261      0.2576
     50  O        118.2320  243.1420  363.0310 O.2   261  PRO261     -0.2718
     51  CB       119.2280  241.4980  360.9050 C.3   261  PRO261      0.0282
     52  CG       118.0050  240.6540  361.2660 C.3   261  PRO261      0.0208
     53  CD       118.2090  240.0730  362.6540 C.3   261  PRO261      0.0893
     54  N        120.3490  243.8470  363.3360 N.am  262  ALA262     -0.1966
     55  CA       119.9810  244.9810  364.1740 C.3   262  ALA262      0.1728
     56  C        120.7800  246.1930  363.7720 C.2   262  ALA262      0.2616
     57  O        121.9660  246.2800  364.0760 O.2   262  ALA262     -0.2715
     58  CB       120.2560  244.6640  365.6210 C.3   262  ALA262      0.0334
     59  N        120.1340  247.1350  363.1000 N.am  263  VAL263     -0.1977
     60  CA       120.8090  248.3410  362.6360 C.3   263  VAL263      0.1596
     61  C        120.8740  249.3920  363.7350 C.2   263  VAL263      0.2287
     62  O        119.8560  249.7350  364.3270 O.2   263  VAL263     -0.2864
     63  CB       120.0490  248.9430  361.4680 C.3   263  VAL263      0.0276
     64  CG1      120.6240  250.3120  361.1200 C.3   263  VAL263      0.0022
     65  CG2      120.0910  247.9960  360.3010 C.3   263  VAL263      0.0022
     66  N        117.4180  249.2850  366.1200 N.3   280  PHE280     -0.1227
     67  CA       116.2020  248.5430  365.8040 C.3   280  PHE280      0.1736
     68  C        116.5380  247.2380  365.0940 C.2   280  PHE280      0.2596
     69  O        117.5480  247.1470  364.3960 O.2   280  PHE280     -0.2718
     70  CB       115.2390  249.3900  364.9670 C.3   280  PHE280      0.0547
     71  CG       115.8050  249.8470  363.6580 C.ar  280  PHE280     -0.0202
     72  CD1      115.7860  249.0070  362.5400 C.ar  280  PHE280     -0.0042
     73  CD2      116.3480  251.1270  363.5280 C.ar  280  PHE280     -0.0042
     74  CE1      116.2890  249.4260  361.3250 C.ar  280  PHE280     -0.0003
     75  CE2      116.8710  251.5480  362.3070 C.ar  280  PHE280     -0.0003
     76  CZ       116.8390  250.7020  361.2030 C.ar  280  PHE280     -0.0000
     77  N        115.7020  246.2210  365.2760 N.am  281  SER281     -0.1938
     78  CA       116.0290  244.9030  364.7400 C.3   281  SER281      0.2055
     79  C        114.7850  244.1450  364.3110 C.2   281  SER281      0.2644
     80  O        113.6910  244.3700  364.8470 O.2   281  SER281     -0.2714
     81  CB       116.7740  244.0830  365.7900 C.3   281  SER281      0.2130
     82  OG       115.9900  243.9530  366.9610 O.3   281  SER281     -0.2179
     83  N        114.9660  243.2520  363.3400 N.am  282  GLY282     -0.1939
     84  CA       113.8990  242.3990  362.8430 C.3   282  GLY282      0.2014
     85  C        114.3940  240.9710  362.7540 C.2   282  GLY282      0.2639
     86  O        114.9530  240.4420  363.7190 O.2   282  GLY282     -0.2714
     87  N        114.1680  240.3440  361.6060 N.am  283  TRP283     -0.1959
     88  CA       114.7600  239.0400  361.2860 C.3   283  TRP283      0.1771
     89  C        115.2480  239.0430  359.8330 C.2   283  TRP283      0.2620
     90  O        114.8430  239.8810  359.0290 O.2   283  TRP283     -0.2715
     91  CB       113.7990  237.8660  361.5620 C.3   283  TRP283      0.0590
     92  CG       112.4510  237.9610  360.9020 C.ar  283  TRP283      0.0006
     93  CD1      112.1440  237.6810  359.5980 C.ar  283  TRP283      0.0946
     94  CD2      111.2200  238.3450  361.5250 C.ar  283  TRP283      0.0152
     95  NE1      110.8000  237.8770  359.3700 N.ar  283  TRP283     -0.2442
     96  CE2      110.2130  238.2920  360.5400 C.ar  283  TRP283      0.0810
     97  CE3      110.8730  238.7460  362.8180 C.ar  283  TRP283      0.0012
     98  CZ2      108.8900  238.6200  360.8110 C.ar  283  TRP283      0.0191
     99  CZ3      109.5600  239.0650  363.0850 C.ar  283  TRP283      0.0001
    100  CH2      108.5840  238.9970  362.0910 C.ar  283  TRP283      0.0015
    101  N        116.1360  238.1190  359.5110 N.am  284  TYR284     -0.1960
    102  CA       116.8600  238.1560  358.2500 C.3   284  TYR284      0.1771
    103  C        116.0630  237.5960  357.0820 C.2   284  TYR284      0.2619
    104  O        115.3160  236.6210  357.2360 O.2   284  TYR284     -0.2715
    105  CB       118.1180  237.3030  358.3820 C.3   284  TYR284      0.0574
    106  CG       119.3960  238.0460  358.6940 C.ar  284  TYR284     -0.0198
    107  CD1      119.9070  238.9710  357.8060 C.ar  284  TYR284     -0.0009
    108  CD2      120.1100  237.7940  359.8600 C.ar  284  TYR284     -0.0009
    109  CE1      121.0780  239.6480  358.0640 C.ar  284  TYR284      0.0417
    110  CE2      121.3020  238.4620  360.1250 C.ar  284  TYR284      0.0417
    111  CZ       121.7750  239.3920  359.2200 C.ar  284  TYR284      0.1957
    112  OH       122.9420  240.0820  359.4360 O.3   284  TYR284     -0.2866
    113  N        116.2380  238.2110  355.9120 N.am  285  MET285     -0.1977
    114  CA       115.9290  237.5650  354.6440 C.3   285  MET285      0.1605
    115  C        117.1940  236.8010  354.2600 C.2   285  MET285      0.2287
    116  O        118.3040  237.3070  354.4410 O.2   285  MET285     -0.2864
    117  CB       115.5580  238.6000  353.5800 C.3   285  MET285      0.0413
    118  CG       115.0770  238.0190  352.2270 C.3   285  MET285      0.0598
    119  SD       114.2680  239.2610  351.1700 S.3   285  MET285     -0.1393
    120  CE       115.7060  240.0630  350.4430 C.3   285  MET285      0.0692
    121  N        120.4380  238.1210  352.3710 N.3   288  GLU288     -0.1245
    122  CA       121.2880  239.0860  353.0440 C.3   288  GLU288      0.1567
    123  C        122.5880  238.4170  353.4500 C.2   288  GLU288      0.2260
    124  O        123.6670  239.0030  353.3400 O.2   288  GLU288     -0.2867
    125  CB       120.5900  239.6420  354.2830 C.3   288  GLU288      0.0388
    126  CG       119.4990  240.6630  353.9870 C.3   288  GLU288      0.1160
    127  CD       118.8410  241.1990  355.2720 C.2   288  GLU288      0.3649
    128  OE1      117.8910  240.5610  355.7830 O.co2 288  GLU288     -0.2457
    129  OE2      119.2700  242.2670  355.7630 O.co2 288  GLU288     -0.2457
    130  N        124.9920  238.5340  350.0060 N.3   292  ARG292     -0.1231
    131  CA       125.8250  239.7100  350.2630 C.3   292  ARG292      0.1694
    132  C        126.9910  239.4050  351.2310 C.2   292  ARG292      0.2592
    133  O        128.1560  239.5140  350.8410 O.2   292  ARG292     -0.2718
    134  CB       124.9800  240.9040  350.7350 C.3   292  ARG292      0.0321
    135  CG       123.7750  241.2630  349.8190 C.3   292  ARG292      0.0489
    136  CD       124.1950  241.6970  348.4000 C.3   292  ARG292      0.2205
    137  NE       125.3130  242.6330  348.4740 N.pl3 292  ARG292     -0.0865
    138  CZ       125.2110  243.9090  348.8550 C.cat 292  ARG292      0.5346
    139  NH1      124.0270  244.4370  349.1750 N.pl3 292  ARG292      0.1354
    140  NH2      126.3030  244.6620  348.9110 N.pl3 292  ARG292      0.1354
    141  N        126.6780  239.0040  352.4700 N.am  293  ASP293     -0.1974
    142  CA       127.7080  238.6990  353.4690 C.3   293  ASP293      0.1709
    143  C        128.6710  237.6090  353.0250 C.2   293  ASP293      0.2293
    144  O        129.8780  237.7220  353.2310 O.2   293  ASP293     -0.2864
    145  CB       127.0920  238.2930  354.8200 C.3   293  ASP293      0.1436
    146  CG       126.1000  239.3160  355.3430 C.2   293  ASP293      0.3671
    147  OD1      126.3890  240.5300  355.2540 O.co2 293  ASP293     -0.2456
    148  OD2      125.0240  238.9070  355.8340 O.co2 293  ASP293     -0.2456
    149  N        133.4970  241.1470  350.8220 N.3   299  ARG299     -0.1245
    150  CA       133.0230  240.5450  352.0690 C.3   299  ARG299      0.1563
    151  C        133.7010  239.1960  352.2760 C.2   299  ARG299      0.2260
    152  O        134.9010  239.0610  352.0260 O.2   299  ARG299     -0.2867
    153  CB       131.5010  240.3980  352.0740 C.3   299  ARG299      0.0307
    154  CG       130.7480  241.7300  351.9780 C.3   299  ARG299      0.0489
    155  CD       130.9720  242.6660  353.1800 C.3   299  ARG299      0.2205
    156  NE       130.6740  242.0420  354.4720 N.pl3 299  ARG299     -0.0865
    157  CZ       129.4570  241.6690  354.8750 C.cat 299  ARG299      0.5346
    158  NH1      128.3980  241.8570  354.0920 N.pl3 299  ARG299      0.1354
    159  NH2      129.2970  241.0980  356.0640 N.pl3 299  ARG299      0.1354
    160  N        116.5130  248.6410  346.2030 N.3   374  TRP374     -0.1241
    161  CA       116.7290  247.9060  347.4540 C.3   374  TRP374      0.1605
    162  C        115.7420  246.7690  347.6710 C.2   374  TRP374      0.2264
    163  O        116.0990  245.7260  348.2320 O.2   374  TRP374     -0.2867
    164  CB       116.6880  248.8480  348.6860 C.3   374  TRP374      0.0550
    165  CG       118.0030  249.4860  348.9600 C.ar  374  TRP374      0.0003
    166  CD1      118.7170  250.2770  348.1160 C.ar  374  TRP374      0.0946
    167  CD2      118.7840  249.3500  350.1480 C.ar  374  TRP374      0.0152
    168  NE1      119.8900  250.6570  348.7080 N.ar  374  TRP374     -0.2442
    169  CE2      119.9580  250.1010  349.9590 C.ar  374  TRP374      0.0810
    170  CE3      118.6000  248.6840  351.3610 C.ar  374  TRP374      0.0012
    171  CZ2      120.9450  250.2050  350.9360 C.ar  374  TRP374      0.0191
    172  CZ3      119.5840  248.7810  352.3340 C.ar  374  TRP374      0.0001
    173  CH2      120.7370  249.5390  352.1170 C.ar  374  TRP374      0.0015
@<TRIPOS>BOND
     1   160   161    1
     2     1     2    1
     3   161   162    1
     4   161   164    1
     5   162   163    2
     6     2     5    1
     7     2     3    1
     8   166   168   ar
     9   166   165   ar
    10   136   137    1
    11   136   135    1
    12     5     6    1
    13   137   138    2
    14     8     7    1
    15   164   165    1
    16   168   169   ar
    17   138   140    1
    18   138   139    1
    19   165   167   ar
    20     3     4    2
    21   135   134    1
    22     6     7    1
    23   169   167   ar
    24   169   171   ar
    25   130   131    1
    26   167   170   ar
    27   131   134    1
    28   131   132    1
    29   120   119    1
    30   149   150    1
    31   133   132    2
    32   171   173   ar
    33   119   118    1
    34   132   141   am
    35   170   172   ar
    36   154   153    1
    37   154   155    1
    38   152   151    2
    39   150   153    1
    40   150   151    1
    41   173   172   ar
    42   118   117    1
    43   121   122    1
    44   141   142    1
    45     9    10    1
    46    12    11    2
    47   143   144    2
    48   143   142    1
    49   122   123    1
    50   122   125    1
    51    11    10    1
    52   155   156    1
    53   124   123    2
    54   142   145    1
    55   117   114    1
    56    10    13    1
    57   126   125    1
    58   126   127    1
    59   158   157    1
    60   115   116    2
    61   115   114    1
    62   156   157    2
    63   114   113    1
    64   145   146    1
    65   157   159    1
    66    13    14    1
    67   147   146   ar
    68   127   129   ar
    69   127   128   ar
    70   146   148   ar
    71   113   103   am
    72   103   104    2
    73   103   102    1
    74   107   109   ar
    75   107   106   ar
    76    34    32    1
    77   109   111   ar
    78   102   105    1
    79   102   101    1
    80   105   106    1
    81   106   108   ar
    82    32    33    1
    83    32    31    2
    84    90    89    2
    85   111   112    1
    86   111   110   ar
    87    95    93   ar
    88    95    96   ar
    89   101    89   am
    90    23    21   am
    91    93    92   ar
    92    31    30    1
    93    89    88    1
    94   108   110   ar
    95    65    63    1
    96    21    22    2
    97    21    20    1
    98    96    98   ar
    99    96    94   ar
   100    46    45    1
   101    98   100   ar
   102    92    94   ar
   103    92    91    1
   104    51    52    1
   105    51    48    1
   106    30    29    1
   107    64    63    1
   108    20    19    1
   109    76    74   ar
   110    76    75   ar
   111    52    53    1
   112    88    91    1
   113    88    87    1
   114    74    72   ar
   115    63    60    1
   116    94    97   ar
   117    45    43   ar
   118    45    44   ar
   119    87    85   am
   120    43    41   ar
   121    44    42   ar
   122   100    99   ar
   123    29    28    1
   124    48    49    1
   125    48    47    1
   126    75    73   ar
   127    38    37    2
   128    72    71   ar
   129    19    16    1
   130    60    59    1
   131    60    61    1
   132    53    47    1
   133    85    84    1
   134    85    86    2
   135    35    36    1
   136    97    99   ar
   137    84    83    1
   138    49    50    2
   139    49    54   am
   140    41    40   ar
   141    28    25    1
   142    42    40   ar
   143    59    56   am
   144    15    16    1
   145    54    55    1
   146    83    79   am
   147    40    39    1
   148    37    36    1
   149    73    71   ar
   150    25    26    1
   151    25    24    1
   152    16    17    1
   153    71    70    1
   154    61    62    2
   155    56    57    2
   156    56    55    1
   157    36    39    1
   158    26    27    2
   159    55    58    1
   160    79    78    1
   161    79    80    2
   162    69    68    2
   163    78    77    1
   164    78    81    1
   165    70    67    1
   166    17    18    2
   167    68    77   am
   168    68    67    1
   169    81    82    1
   170    67    66    1
