@<TRIPOS>MOLECULE
tmp/5fvyA02.pdb
 158 156 0 0 0
SMALL
GASTEIGER

@<TRIPOS>ATOM
      1  N         19.3670   11.5230   43.4760 N.3    41  LEU41      -0.1245
      2  CA        20.5590   11.1220   42.7340 C.3    41  LEU41       0.1561
      3  C         21.6410   10.6840   43.7120 C.2    41  LEU41       0.2260
      4  O         22.4370   11.5150   44.1620 O.2    41  LEU41      -0.2867
      5  CB        21.1210   12.3160   41.9580 C.3    41  LEU41       0.0270
      6  CG        20.2280   13.1130   41.0070 C.3    41  LEU41       0.0019
      7  CD1       20.7930   14.5070   40.7630 C.3    41  LEU41       0.0001
      8  CD2       20.0900   12.3660   39.7010 C.3    41  LEU41       0.0001
      9  N          8.9230    5.3350   36.8660 N.3   109  CYS109     -0.1235
     10  CA         7.9030    5.6800   35.8870 C.3   109  CYS109      0.1677
     11  C          6.5570    4.9950   36.1330 C.2   109  CYS109      0.2270
     12  O          6.4640    3.7600   36.0870 O.2   109  CYS109     -0.2867
     13  CB         8.3780    5.3420   34.4770 C.3   109  CYS109      0.0956
     14  SG         7.0980    5.6080   33.2640 S.3   109  CYS109     -0.0801
     15  N         17.4610   19.3960   29.2120 N.3   171  SER171     -0.1202
     16  CA        16.9450   18.2660   29.9750 C.3   171  SER171      0.2020
     17  C         15.6540   17.7610   29.3560 C.2   171  SER171      0.2618
     18  O         15.3090   16.5840   29.5140 O.2   171  SER171     -0.2717
     19  CB        16.6780   18.6620   31.4300 C.3   171  SER171      0.2103
     20  OG        15.6590   19.6430   31.4880 O.3   171  SER171     -0.2182
     21  N         14.9300   18.6460   28.6670 N.am  172  GLN172     -0.1979
     22  CA        13.7670   18.2120   27.8750 C.3   172  GLN172      0.1601
     23  C         13.7670   18.9370   26.5380 C.2   172  GLN172      0.2287
     24  O         14.3650   20.0130   26.4230 O.2   172  GLN172     -0.2864
     25  CB        12.4530   18.5150   28.5870 C.3   172  GLN172      0.0394
     26  CG        12.1870   17.7400   29.8370 C.3   172  GLN172      0.0908
     27  CD        10.7740   17.9800   30.3480 C.2   172  GLN172      0.2608
     28  OE1        9.8620   18.3270   29.5750 O.2   172  GLN172     -0.2717
     29  NE2       10.5850   17.8100   31.6530 N.am  172  GLN172     -0.0878
     30  N          5.8960   15.8020   26.9450 N.3   259  PRO259     -0.2116
     31  CA         7.0050   15.6140   27.8800 C.3   259  PRO259      0.1372
     32  C          8.0840   14.7220   27.2510 C.2   259  PRO259      0.2244
     33  O          7.8800   13.5150   27.0600 O.2   259  PRO259     -0.2868
     34  CB         6.3420   14.9050   29.0720 C.3   259  PRO259      0.0268
     35  CG         5.0550   14.2840   28.5240 C.3   259  PRO259      0.0207
     36  CD         4.8420   14.7860   27.1120 C.3   259  PRO259      0.0892
     37  N         11.9840   13.6880   27.6370 N.3   261  VAL261     -0.1245
     38  CA        13.2320   13.7420   28.3980 C.3   261  VAL261      0.1561
     39  C         14.4140   13.5580   27.4630 C.2   261  VAL261      0.2260
     40  O         14.4490   12.6020   26.6700 O.2   261  VAL261     -0.2867
     41  CB        13.2790   12.6750   29.5180 C.3   261  VAL261      0.0252
     42  CG1       14.6190   12.7190   30.2360 C.3   261  VAL261      0.0019
     43  CG2       12.1500   12.9170   30.5250 C.3   261  VAL261      0.0019
     44  N         18.0420   14.2940   28.3830 N.3   263  ASN263     -0.1225
     45  CA        19.4050   14.3110   28.9160 C.3   263  ASN263      0.1785
     46  C         19.8080   12.9880   29.5630 C.2   263  ASN263      0.2597
     47  O         20.8690   12.8850   30.2040 O.2   263  ASN263     -0.2718
     48  CB        19.6090   15.4780   29.9020 C.3   263  ASN263      0.1169
     49  CG        18.7140   15.3750   31.1200 C.2   263  ASN263      0.2627
     50  OD1       17.7820   14.5580   31.1660 O.2   263  ASN263     -0.2716
     51  ND2       18.9810   16.2130   32.1150 N.am  263  ASN263     -0.0877
     52  N         18.9710   11.9690   29.3920 N.am  264  MET264     -0.1979
     53  CA        19.2470   10.6900   30.0220 C.3   264  MET264      0.1605
     54  C         20.0100    9.7320   29.1240 C.2   264  MET264      0.2287
     55  O         19.8830    9.7540   27.8970 O.2   264  MET264     -0.2864
     56  CB        17.9600   10.0500   30.5240 C.3   264  MET264      0.0413
     57  CG        17.4240   10.7740   31.7470 C.3   264  MET264      0.0598
     58  SD        16.1600    9.8270   32.5840 S.3   264  MET264     -0.1393
     59  CE        17.2020    8.7540   33.5940 C.3   264  MET264      0.0692
     60  N         13.3120   10.5730   24.7280 N.3   278  PHE278     -0.1227
     61  CA        12.0670    9.8140   24.7200 C.3   278  PHE278      0.1736
     62  C         10.9170   10.6650   25.2440 C.2   278  PHE278      0.2596
     63  O         11.1210   11.5680   26.0630 O.2   278  PHE278     -0.2718
     64  CB        12.2050    8.5380   25.5550 C.3   278  PHE278      0.0547
     65  CG        12.5710    8.7770   26.9980 C.ar  278  PHE278     -0.0202
     66  CD1       11.5890    9.0490   27.9430 C.ar  278  PHE278     -0.0042
     67  CD2       13.8920    8.7090   27.4130 C.ar  278  PHE278     -0.0042
     68  CE1       11.9180    9.2430   29.2850 C.ar  278  PHE278     -0.0003
     69  CE2       14.2330    8.9050   28.7360 C.ar  278  PHE278     -0.0003
     70  CZ        13.2380    9.1800   29.6820 C.ar  278  PHE278     -0.0000
     71  N          9.7080   10.3630   24.7880 N.am  279  SER279     -0.1938
     72  CA         8.5360   11.1170   25.1970 C.3   279  SER279      0.2055
     73  C          7.3030   10.2460   25.3210 C.2   279  SER279      0.2644
     74  O          7.1920    9.1900   24.6680 O.2   279  SER279     -0.2714
     75  CB         8.2530   12.2060   24.1790 C.3   279  SER279      0.2130
     76  OG         7.9420   11.6270   22.9310 O.3   279  SER279     -0.2179
     77  N          6.3680   10.6940   26.1510 N.am  280  GLY280     -0.1939
     78  CA         5.1090    9.9920   26.3310 C.3   280  GLY280      0.2014
     79  C          4.0170   11.0370   26.3360 C.2   280  GLY280      0.2639
     80  O          3.9630   11.8610   25.4380 O.2   280  GLY280     -0.2714
     81  N          3.1460   10.9960   27.3370 N.am  281  TRP281     -0.1959
     82  CA         2.2050   12.0850   27.5840 C.3   281  TRP281      0.1771
     83  C          2.2090   12.3840   29.0820 C.2   281  TRP281      0.2620
     84  O          2.6850   11.5680   29.8890 O.2   281  TRP281     -0.2715
     85  CB         0.7970   11.7320   27.0810 C.3   281  TRP281      0.0590
     86  CG         0.2940   10.4050   27.5580 C.ar  281  TRP281      0.0006
     87  CD1       -0.2180   10.1130   28.7990 C.ar  281  TRP281      0.0946
     88  CD2        0.2600    9.1740   26.8060 C.ar  281  TRP281      0.0152
     89  NE1       -0.5740    8.7770   28.8540 N.ar  281  TRP281     -0.2442
     90  CE2       -0.2910    8.1850   27.6470 C.ar  281  TRP281      0.0810
     91  CE3        0.6480    8.8190   25.5100 C.ar  281  TRP281      0.0012
     92  CZ2       -0.4640    6.8590   27.2280 C.ar  281  TRP281      0.0191
     93  CZ3        0.4660    7.5060   25.0880 C.ar  281  TRP281      0.0001
     94  CH2       -0.0800    6.5390   25.9490 C.ar  281  TRP281      0.0015
     95  N          1.6930   13.5500   29.4620 N.am  282  TYR282     -0.1960
     96  CA         1.7370   13.9670   30.8550 C.3   282  TYR282      0.1771
     97  C          0.7330   13.2340   31.7510 C.2   282  TYR282      0.2619
     98  O         -0.3620   12.8660   31.3240 O.2   282  TYR282     -0.2715
     99  CB         1.4850   15.4730   30.9700 C.3   282  TYR282      0.0574
    100  CG         2.7420   16.3070   30.9590 C.ar  282  TYR282     -0.0198
    101  CD1        3.6630   16.2250   31.9940 C.ar  282  TYR282     -0.0009
    102  CD2        3.0030   17.1910   29.9120 C.ar  282  TYR282     -0.0009
    103  CE1        4.8080   17.0140   31.9910 C.ar  282  TYR282      0.0417
    104  CE2        4.1490   17.9760   29.8950 C.ar  282  TYR282      0.0417
    105  CZ         5.0420   17.8890   30.9400 C.ar  282  TYR282      0.1957
    106  OH         6.1830   18.6570   30.9350 O.3   282  TYR282     -0.2866
    107  N          1.1210   13.0300   33.0010 N.am  283  MET283     -0.1977
    108  CA         0.1420   12.8070   34.0520 C.3   283  MET283      0.1605
    109  C         -0.1430   14.1910   34.6220 C.2   283  MET283      0.2287
    110  O          0.7940   14.9660   34.8510 O.2   283  MET283     -0.2864
    111  CB         0.7100   11.9140   35.1400 C.3   283  MET283      0.0413
    112  CG        -0.2540   11.7240   36.3040 C.3   283  MET283      0.0598
    113  SD         0.3300   10.4310   37.4130 S.3   283  MET283     -0.1393
    114  CE         1.6540   11.3080   38.2550 C.3   283  MET283      0.0692
    115  N          1.9910   16.2200   37.2710 N.3   286  GLU286     -0.1245
    116  CA         3.3320   16.7050   36.9570 C.3   286  GLU286      0.1567
    117  C          3.2670   18.1900   36.6070 C.2   286  GLU286      0.2260
    118  O          4.1730   18.9610   36.9310 O.2   286  GLU286     -0.2867
    119  CB         3.9430   15.9490   35.7690 C.3   286  GLU286      0.0388
    120  CG         4.1590   14.4680   35.9430 C.3   286  GLU286      0.1160
    121  CD         4.6050   13.8250   34.6160 C.2   286  GLU286      0.3649
    122  OE1        5.8220   13.8420   34.3190 O.co2 286  GLU286     -0.2457
    123  OE2        3.7350   13.3350   33.8550 O.co2 286  GLU286     -0.2457
    124  N          8.2600    7.9080   44.0950 N.3   371  TRP371     -0.1241
    125  CA         8.0840    8.5590   42.7940 C.3   371  TRP371      0.1605
    126  C          6.7980    8.1220   42.1360 C.2   371  TRP371      0.2264
    127  O          6.2380    8.8400   41.2990 O.2   371  TRP371     -0.2867
    128  CB         9.2570    8.2240   41.8780 C.3   371  TRP371      0.0550
    129  CG        10.4260    9.1240   42.0990 C.ar  371  TRP371      0.0003
    130  CD1       11.2240    9.1830   43.2070 C.ar  371  TRP371      0.0946
    131  CD2       10.9330   10.1030   41.1810 C.ar  371  TRP371      0.0152
    132  NE1       12.1960   10.1450   43.0310 N.ar  371  TRP371     -0.2442
    133  CE2       12.0380   10.7200   41.7960 C.ar  371  TRP371      0.0810
    134  CE3       10.5600   10.5120   39.8940 C.ar  371  TRP371      0.0012
    135  CZ2       12.7760   11.7350   41.1670 C.ar  371  TRP371      0.0191
    136  CZ3       11.2930   11.5210   39.2670 C.ar  371  TRP371      0.0001
    137  CH2       12.3880   12.1190   39.9060 C.ar  371  TRP371      0.0015
    138  N         21.0230    8.4890   34.7890 N.3   399  TYR399     -0.1227
    139  CA        21.5140    9.8610   34.7830 C.3   399  TYR399      0.1736
    140  C         22.9150    9.9080   34.1980 C.2   399  TYR399      0.2595
    141  O         23.6460    8.9080   34.2130 O.2   399  TYR399     -0.2718
    142  CB        21.5170   10.4210   36.1990 C.3   399  TYR399      0.0548
    143  CG        20.1340   10.4680   36.8000 C.ar  399  TYR399     -0.0200
    144  CD1       19.2470   11.4610   36.4400 C.ar  399  TYR399     -0.0009
    145  CD2       19.7140    9.5190   37.7200 C.ar  399  TYR399     -0.0009
    146  CE1       17.9840   11.5190   36.9750 C.ar  399  TYR399      0.0417
    147  CE2       18.4470    9.5760   38.2690 C.ar  399  TYR399      0.0417
    148  CZ        17.5870   10.5830   37.8890 C.ar  399  TYR399      0.1957
    149  OH        16.3160   10.6600   38.4150 O.3   399  TYR399     -0.2866
    150  N         23.2810   11.0600   33.6500 N.am  400  GLN400     -0.1979
    151  CA        24.6280   11.2500   33.1450 C.3   400  GLN400      0.1601
    152  C         25.0210   12.6730   33.4700 C.2   400  GLN400      0.2287
    153  O         24.1700   13.5590   33.5060 O.2   400  GLN400     -0.2864
    154  CB        24.7270   10.9630   31.6320 C.3   400  GLN400      0.0394
    155  CG        23.7970   11.7860   30.7420 C.3   400  GLN400      0.0908
    156  CD        23.9230   11.4190   29.2540 C.2   400  GLN400      0.2608
    157  OE1       24.9310   10.8530   28.8110 O.2   400  GLN400     -0.2717
    158  NE2       22.8950   11.7540   28.4810 N.am  400  GLN400     -0.0878
@<TRIPOS>BOND
     1    76    75    1
     2    75    72    1
     3    74    73    2
     4    61    60    1
     5    61    62    1
     6    61    64    1
     7    71    72    1
     8    71    62   am
     9    93    91   ar
    10    93    94   ar
    11    72    73    1
    12    62    63    2
    13    73    77   am
    14    80    79    2
    15    91    88   ar
    16    64    65    1
    17    94    92   ar
    18    77    78    1
    19    78    79    1
    20    79    81   am
    21    24    23    2
    22    23    22    1
    23    40    39    2
    24    88    86   ar
    25    88    90   ar
    26    30    36    1
    27    30    31    1
    28    65    67   ar
    29    65    66   ar
    30    33    32    2
    31    85    86    1
    32    85    82    1
    33    36    35    1
    34    92    90   ar
    35    32    31    1
    36    81    82    1
    37    67    69   ar
    38    39    38    1
    39    86    87   ar
    40    82    83    1
    41    37    38    1
    42    90    89   ar
    43    22    25    1
    44    22    21    1
    45    31    34    1
    46    55    54    2
    47    66    68   ar
    48    44    45    1
    49    38    41    1
    50   158   156   am
    51    35    34    1
    52    25    26    1
    53    21    17   am
    54    69    70   ar
    55    87    89   ar
    56   157   156    2
    57    45    46    1
    58    45    48    1
    59    83    95   am
    60    83    84    2
    61    54    53    1
    62    15    16    1
    63   156   155    1
    64    68    70   ar
    65    17    18    2
    66    17    16    1
    67    52    46   am
    68    52    53    1
    69    95    96    1
    70    41    42    1
    71    41    43    1
    72    46    47    2
    73    28    27    2
    74    26    27    1
    75   104   102   ar
    76   104   105   ar
    77    48    49    1
    78   102   100   ar
    79    16    19    1
    80    53    56    1
    81    27    29   am
    82    56    57    1
    83   155   154    1
    84    96    99    1
    85    96    97    1
    86   106   105    1
    87   105   103   ar
    88   100    99    1
    89   100   101   ar
    90    49    50    2
    91    49    51   am
    92    98    97    2
    93    19    20    1
    94   154   151    1
    95    57    58    1
    96    97   107   am
    97   103   101   ar
    98    58    59    1
    99   107   108    1
   100   151   152    1
   101   151   150    1
   102    14    13    1
   103   152   153    2
   104   150   140   am
   105   123   121   ar
   106   108   109    1
   107   108   111    1
   108   140   141    2
   109   140   139    1
   110   122   121   ar
   111    13    10    1
   112   121   120    1
   113   109   110    2
   114   139   138    1
   115   139   142    1
   116   111   112    1
   117   119   120    1
   118   119   116    1
   119    10    11    1
   120    10     9    1
   121    12    11    2
   122   142   143    1
   123   112   113    1
   124   144   143   ar
   125   144   146   ar
   126   117   118    2
   127   117   116    1
   128   143   145   ar
   129   116   115    1
   130   146   148   ar
   131   113   114    1
   132   145   147   ar
   133   148   147   ar
   134   148   149    1
   135   136   134   ar
   136   136   137   ar
   137     8     6    1
   138   134   131   ar
   139   137   135   ar
   140     7     6    1
   141     6     5    1
   142   135   133   ar
   143   131   133   ar
   144   131   129   ar
   145   127   126    2
   146   133   132   ar
   147   128   129    1
   148   128   125    1
   149     5     2    1
   150   129   130   ar
   151   126   125    1
   152     2     1    1
   153     2     3    1
   154   125   124    1
   155   132   130   ar
   156     3     4    2
