@<TRIPOS>MOLECULE
tmp/5fvzB03.pdb
 197 194 0 0 0
SMALL
GASTEIGER

@<TRIPOS>ATOM
      1  N          6.0840   -2.1920   55.8250 N.3    38  VAL38      -0.1231
      2  CA         5.5330   -1.6640   57.0780 C.3    38  VAL38       0.1692
      3  C          6.1480   -2.3850   58.2850 C.2    38  VAL38       0.2591
      4  O          6.6230   -1.7490   59.2260 O.2    38  VAL38      -0.2718
      5  CB         3.9960   -1.7830   57.1100 C.3    38  VAL38       0.0266
      6  CG1        3.4440   -1.4400   58.5070 C.3    38  VAL38       0.0020
      7  CG2        3.3660   -0.8990   56.0350 C.3    38  VAL38       0.0020
      8  N          6.1410   -3.7150   58.2270 N.am   39  LEU39      -0.1980
      9  CA         6.6330   -4.5640   59.3050 C.3    39  LEU39       0.1596
     10  C          7.9080   -5.3090   58.9140 C.2    39  LEU39       0.2287
     11  O          8.1570   -5.5520   57.7330 O.2    39  LEU39      -0.2864
     12  CB         5.5700   -5.5960   59.6820 C.3    39  LEU39       0.0297
     13  CG         4.1870   -5.0920   60.0810 C.3    39  LEU39       0.0022
     14  CD1        3.2890   -6.2850   60.3530 C.3    39  LEU39       0.0001
     15  CD2        4.2760   -4.1940   61.3120 C.3    39  LEU39       0.0001
     16  N         11.2060    7.9370   72.0690 N.3   101  TRP101     -0.1241
     17  CA        10.3340    8.7860   71.2680 C.3   101  TRP101      0.1605
     18  C         11.2020    9.5730   70.2890 C.2   101  TRP101      0.2264
     19  O         10.9340    9.6000   69.0880 O.2   101  TRP101     -0.2867
     20  CB         9.5350    9.7380   72.1630 C.3   101  TRP101      0.0550
     21  CG         8.5880   10.6440   71.4250 C.ar  101  TRP101      0.0003
     22  CD1        8.2140   10.5650   70.1030 C.ar  101  TRP101      0.0946
     23  CD2        7.8870   11.7700   71.9720 C.ar  101  TRP101      0.0152
     24  NE1        7.3240   11.5770   69.8050 N.ar  101  TRP101     -0.2442
     25  CE2        7.1120   12.3300   70.9350 C.ar  101  TRP101      0.0810
     26  CE3        7.8360   12.3530   73.2380 C.ar  101  TRP101      0.0012
     27  CZ2        6.3000   13.4490   71.1320 C.ar  101  TRP101      0.0191
     28  CZ3        7.0310   13.4630   73.4320 C.ar  101  TRP101      0.0001
     29  CH2        6.2710   13.9950   72.3900 C.ar  101  TRP101      0.0015
     30  N         -4.7380   -2.4630   70.4000 N.3   169  SER169     -0.1202
     31  CA        -3.6640   -1.7380   69.7230 C.3   169  SER169      0.2020
     32  C         -3.6090   -0.2790   70.1750 C.2   169  SER169      0.2618
     33  O         -2.5780    0.3790   70.0440 O.2   169  SER169     -0.2717
     34  CB        -3.8160   -1.8100   68.1950 C.3   169  SER169      0.2103
     35  OG        -4.9940   -1.1410   67.7760 O.3   169  SER169     -0.2182
     36  N         -4.7280    0.2330   70.6800 N.am  170  GLN170     -0.1979
     37  CA        -4.7610    1.5670   71.2730 C.3   170  GLN170      0.1601
     38  C         -5.6670    1.5150   72.4950 C.2   170  GLN170      0.2287
     39  O         -6.5210    0.6340   72.5900 O.2   170  GLN170     -0.2864
     40  CB        -5.3100    2.6130   70.2810 C.3   170  GLN170      0.0394
     41  CG        -4.4660    2.9410   69.0420 C.3   170  GLN170      0.0908
     42  CD        -4.9790    4.2040   68.3220 C.2   170  GLN170      0.2608
     43  OE1       -5.4760    5.1370   68.9670 O.2   170  GLN170     -0.2717
     44  NE2       -4.8630    4.2330   66.9900 N.am  170  GLN170     -0.0878
     45  N        -10.4700    2.4350   70.9820 N.3   173  ARG173     -0.1245
     46  CA       -10.7180    1.8020   69.6880 C.3   173  ARG173      0.1563
     47  C        -12.2200    1.6060   69.5230 C.2   173  ARG173      0.2260
     48  O        -12.9030    1.2140   70.4740 O.2   173  ARG173     -0.2867
     49  CB       -10.0210    0.4360   69.6170 C.3   173  ARG173      0.0307
     50  CG        -8.4870    0.4660   69.6510 C.3   173  ARG173      0.0489
     51  CD        -7.8970    0.5780   68.2470 C.3   173  ARG173      0.2205
     52  NE        -8.0270    1.9340   67.7230 N.pl3 173  ARG173     -0.0865
     53  CZ        -7.8620    2.2680   66.4450 C.cat 173  ARG173      0.5346
     54  NH1       -7.5630    1.3380   65.5510 N.pl3 173  ARG173      0.1354
     55  NH2       -7.9970    3.5340   66.0630 N.pl3 173  ARG173      0.1354
     56  N         -4.9170    9.8930   71.1660 N.3   257  PRO257     -0.2116
     57  CA        -4.2160    8.8290   70.4470 C.3   257  PRO257      0.1372
     58  C         -3.2040    8.1570   71.3730 C.2   257  PRO257      0.2244
     59  O         -2.1790    8.7460   71.7080 O.2   257  PRO257     -0.2868
     60  CB        -3.5140    9.5860   69.3080 C.3   257  PRO257      0.0268
     61  CG        -3.2380   10.9310   69.8690 C.3   257  PRO257      0.0207
     62  CD        -4.3110   11.2160   70.9220 C.3   257  PRO257      0.0892
     63  N         -1.1140    4.6370   71.7560 N.3   259  VAL259     -0.1245
     64  CA        -0.6880    3.3400   71.2270 C.3   259  VAL259      0.1561
     65  C         -0.2750    2.4180   72.3800 C.2   259  VAL259      0.2260
     66  O          0.4710    2.8460   73.2710 O.2   259  VAL259     -0.2867
     67  CB         0.4900    3.4940   70.2580 C.3   259  VAL259      0.0252
     68  CG1        1.0110    2.1180   69.8320 C.3   259  VAL259      0.0019
     69  CG2        0.0700    4.3340   69.0310 C.3   259  VAL259      0.0019
     70  N          0.3310   -1.3090   71.9380 N.3   261  ASN261     -0.1240
     71  CA         0.7780   -2.6330   71.4650 C.3   261  ASN261      0.1653
     72  C          2.2700   -2.6960   71.1350 C.2   261  ASN261      0.2266
     73  O          2.7590   -3.7090   70.6060 O.2   261  ASN261     -0.2867
     74  CB        -0.0240   -3.0740   70.2260 C.3   261  ASN261      0.1155
     75  CG         0.1400   -2.1150   69.0470 C.2   261  ASN261      0.2627
     76  OD1        0.8620   -1.1200   69.1310 O.2   261  ASN261     -0.2716
     77  ND2       -0.5180   -2.4260   67.9320 N.am  261  ASN261     -0.0877
     78  N          1.6490    4.7330   75.2090 N.3   276  PHE276     -0.1227
     79  CA         2.0240    6.1320   75.1240 C.3   276  PHE276      0.1736
     80  C          0.9960    6.9560   74.3420 C.2   276  PHE276      0.2596
     81  O          0.3650    6.4580   73.4040 O.2   276  PHE276     -0.2718
     82  CB         3.4310    6.2700   74.5310 C.3   276  PHE276      0.0547
     83  CG         3.6160    5.5770   73.1950 C.ar  276  PHE276     -0.0202
     84  CD1        3.2630    6.2160   72.0070 C.ar  276  PHE276     -0.0042
     85  CD2        4.1910    4.3100   73.1300 C.ar  276  PHE276     -0.0042
     86  CE1        3.4550    5.5890   70.7620 C.ar  276  PHE276     -0.0003
     87  CE2        4.3920    3.6660   71.8950 C.ar  276  PHE276     -0.0003
     88  CZ         4.0210    4.3070   70.7090 C.ar  276  PHE276     -0.0000
     89  N          0.8280    8.2140   74.7360 N.am  277  SER277     -0.1938
     90  CA        -0.1500    9.0930   74.0940 C.3   277  SER277      0.2055
     91  C          0.3950   10.4970   73.8500 C.2   277  SER277      0.2644
     92  O          1.3430   10.9470   74.5110 O.2   277  SER277     -0.2714
     93  CB        -1.4360    9.1920   74.9190 C.3   277  SER277      0.2130
     94  OG        -1.1730    9.6440   76.2430 O.3   277  SER277     -0.2179
     95  N         -0.2120   11.1770   72.8810 N.am  278  GLY278     -0.1939
     96  CA         0.1050   12.5590   72.5940 C.3   278  GLY278      0.2014
     97  C         -1.1690   13.2380   72.1480 C.2   278  GLY278      0.2639
     98  O         -2.2000   13.1730   72.8310 O.2   278  GLY278     -0.2714
     99  N         -1.1060   13.8930   70.9980 N.am  279  TRP279     -0.1959
    100  CA        -2.2910   14.4970   70.4140 C.3   279  TRP279      0.1771
    101  C         -2.2830   14.2680   68.8940 C.2   279  TRP279      0.2620
    102  O         -1.2350   13.9840   68.3120 O.2   279  TRP279     -0.2715
    103  CB        -2.4020   15.9810   70.7850 C.3   279  TRP279      0.0590
    104  CG        -1.2100   16.8340   70.4200 C.ar  279  TRP279      0.0006
    105  CD1       -0.8700   17.2680   69.1720 C.ar  279  TRP279      0.0946
    106  CD2       -0.2410   17.4010   71.3190 C.ar  279  TRP279      0.0152
    107  NE1        0.2640   18.0470   69.2330 N.ar  279  TRP279     -0.2442
    108  CE2        0.6700   18.1440   70.5390 C.ar  279  TRP279      0.0810
    109  CE3       -0.0520   17.3450   72.7090 C.ar  279  TRP279      0.0012
    110  CZ2        1.7570   18.8330   71.1010 C.ar  279  TRP279      0.0191
    111  CZ3        1.0330   18.0200   73.2690 C.ar  279  TRP279      0.0001
    112  CH2        1.9230   18.7540   72.4660 C.ar  279  TRP279      0.0015
    113  N         -3.4530   14.3640   68.2690 N.am  280  TYR280     -0.1960
    114  CA        -3.5980   13.9850   66.8710 C.3   280  TYR280      0.1771
    115  C         -3.0180   15.0050   65.9140 C.2   280  TYR280      0.2619
    116  O         -3.0400   16.2070   66.1810 O.2   280  TYR280     -0.2715
    117  CB        -5.0750   13.7760   66.5240 C.3   280  TYR280      0.0574
    118  CG        -5.5410   12.3440   66.6610 C.ar  280  TYR280     -0.0198
    119  CD1       -5.1200   11.3760   65.7630 C.ar  280  TYR280     -0.0009
    120  CD2       -6.4160   11.9660   67.6740 C.ar  280  TYR280     -0.0009
    121  CE1       -5.5430   10.0680   65.8740 C.ar  280  TYR280      0.0417
    122  CE2       -6.8450   10.6540   67.7910 C.ar  280  TYR280      0.0417
    123  CZ        -6.4080    9.7170   66.8780 C.ar  280  TYR280      0.1957
    124  OH        -6.8220    8.4110   66.9760 O.3   280  TYR280     -0.2866
    125  N         -2.4750   14.5130   64.8070 N.am  281  MET281     -0.1977
    126  CA        -2.3420   15.3450   63.6190 C.3   281  MET281      0.1605
    127  C         -3.5830   15.0470   62.7780 C.2   281  MET281      0.2287
    128  O         -3.9390   13.8790   62.5870 O.2   281  MET281     -0.2864
    129  CB        -1.0740   15.0280   62.8330 C.3   281  MET281      0.0413
    130  CG        -1.0600   15.6970   61.4500 C.3   281  MET281      0.0598
    131  SD         0.5580   15.5810   60.6690 S.3   281  MET281     -0.1393
    132  CE         0.4380   13.9520   59.8870 C.3   281  MET281      0.0692
    133  N         -4.5110   11.9670   60.2790 N.3   284  GLU284     -0.1245
    134  CA        -4.6800   10.6120   60.8060 C.3   284  GLU284      0.1567
    135  C         -6.1530   10.2470   60.8390 C.2   284  GLU284      0.2260
    136  O         -6.5430    9.1320   60.4770 O.2   284  GLU284     -0.2867
    137  CB        -4.0860   10.5080   62.2150 C.3   284  GLU284      0.0388
    138  CG        -2.5890   10.7640   62.2660 C.3   284  GLU284      0.1160
    139  CD        -2.0200   10.6760   63.6770 C.2   284  GLU284      0.3649
    140  OE1       -1.7610    9.5360   64.1250 O.co2 284  GLU284     -0.2457
    141  OE2       -1.8220   11.7360   64.3340 O.co2 284  GLU284     -0.2457
    142  N         -6.7200    9.1520   56.7340 N.3   288  ARG288     -0.1231
    143  CA        -6.5600    7.7010   56.8480 C.3   288  ARG288      0.1694
    144  C         -7.7760    6.9790   57.4570 C.2   288  ARG288      0.2592
    145  O         -8.4080    6.1490   56.7860 O.2   288  ARG288     -0.2718
    146  CB        -5.2560    7.3500   57.5830 C.3   288  ARG288      0.0321
    147  CG        -4.0030    8.0460   57.0060 C.3   288  ARG288      0.0489
    148  CD        -3.6930    7.6120   55.5510 C.3   288  ARG288      0.2205
    149  NE        -3.9110    6.1800   55.4070 N.pl3 288  ARG288     -0.0865
    150  CZ        -3.0520    5.2400   55.8010 C.cat 288  ARG288      0.5346
    151  NH1       -1.8810    5.5690   56.3380 N.pl3 288  ARG288      0.1354
    152  NH2       -3.3730    3.9580   55.6580 N.pl3 288  ARG288      0.1354
    153  N         -8.1230    7.2970   58.7010 N.am  289  ASN289     -0.1974
    154  CA        -9.2200    6.6000   59.3910 C.3   289  ASN289      0.1688
    155  C        -10.5750    6.7410   58.6910 C.2   289  ASN289      0.2292
    156  O        -11.3470    5.7890   58.6060 O.2   289  ASN289     -0.2864
    157  CB        -9.3290    7.0610   60.8580 C.3   289  ASN289      0.1181
    158  CG        -8.0270    6.8970   61.6280 C.2   289  ASN289      0.2629
    159  OD1       -7.0930    6.2390   61.1580 O.2   289  ASN289     -0.2716
    160  ND2       -7.9580    7.4950   62.8260 N.am  289  ASN289     -0.0877
    161  N        -11.1110    1.2150   55.7250 N.3   295  ARG295     -0.1245
    162  CA       -11.5180    1.7790   57.0130 C.3   295  ARG295      0.1563
    163  C        -12.9860    2.2350   56.9260 C.2   295  ARG295      0.2260
    164  O        -13.8460    1.4680   56.4910 O.2   295  ARG295     -0.2867
    165  CB       -10.5830    2.9230   57.4260 C.3   295  ARG295      0.0307
    166  CG        -9.1100    2.5310   57.6230 C.3   295  ARG295      0.0489
    167  CD        -8.9090    1.5280   58.7610 C.3   295  ARG295      0.2205
    168  NE        -9.2640    2.0610   60.0790 N.pl3 295  ARG295     -0.0865
    169  CZ        -8.5020    2.8820   60.8050 C.cat 295  ARG295      0.5346
    170  NH1       -7.3240    3.2980   60.3550 N.pl3 295  ARG295      0.1354
    171  NH2       -8.9220    3.2980   61.9910 N.pl3 295  ARG295      0.1354
    172  N          6.5900    7.7860   55.8920 N.3   369  TRP369     -0.1241
    173  CA         5.7090    8.0300   57.0390 C.3   369  TRP369      0.1605
    174  C          5.6660    9.4910   57.4680 C.2   369  TRP369      0.2264
    175  O          4.6550    9.9550   57.9960 O.2   369  TRP369     -0.2867
    176  CB         6.1110    7.1510   58.2400 C.3   369  TRP369      0.0550
    177  CG         5.6910    5.7320   58.0420 C.ar  369  TRP369      0.0003
    178  CD1        6.1260    4.8760   57.0730 C.ar  369  TRP369      0.0946
    179  CD2        4.7300    5.0120   58.8150 C.ar  369  TRP369      0.0152
    180  NE1        5.4850    3.6640   57.1930 N.ar  369  TRP369     -0.2442
    181  CE2        4.6270    3.7200   58.2590 C.ar  369  TRP369      0.0810
    182  CE3        3.9530    5.3320   59.9310 C.ar  369  TRP369      0.0012
    183  CZ2        3.7800    2.7440   58.7850 C.ar  369  TRP369      0.0191
    184  CZ3        3.1050    4.3590   60.4510 C.ar  369  TRP369      0.0001
    185  CH2        3.0270    3.0830   59.8760 C.ar  369  TRP369      0.0015
    186  N          7.8480   -3.0140   67.2620 N.3   397  TYR397     -0.1241
    187  CA         6.6980   -3.9090   67.1580 C.3   397  TYR397      0.1605
    188  C          6.9870   -5.2570   67.8300 C.2   397  TYR397      0.2264
    189  O          8.1510   -5.6490   67.9850 O.2   397  TYR397     -0.2867
    190  CB         6.3320   -4.1540   65.6940 C.3   397  TYR397      0.0534
    191  CG         6.0440   -2.9030   64.8930 C.ar  397  TYR397     -0.0201
    192  CD1        5.0180   -2.0450   65.2490 C.ar  397  TYR397     -0.0009
    193  CD2        6.7770   -2.6070   63.7550 C.ar  397  TYR397     -0.0009
    194  CE1        4.7520   -0.9140   64.5080 C.ar  397  TYR397      0.0417
    195  CE2        6.5150   -1.4840   63.0050 C.ar  397  TYR397      0.0417
    196  CZ         5.5020   -0.6420   63.3810 C.ar  397  TYR397      0.1957
    197  OH         5.2410    0.4810   62.6240 O.3   397  TYR397     -0.2866
@<TRIPOS>BOND
     1   149   148    1
     2   149   150    2
     3   148   147    1
     4   152   150    1
     5   161   162    1
     6   150   151    1
     7     1     2    1
     8   172   173    1
     9     7     5    1
    10   164   163    2
    11   142   143    1
    12   145   144    2
    13   143   144    1
    14   143   146    1
    15   163   162    1
    16   147   146    1
    17   162   165    1
    18   173   174    1
    19   173   176    1
    20   178   180   ar
    21   178   177   ar
    22     2     5    1
    23     2     3    1
    24     5     6    1
    25   180   181   ar
    26   165   166    1
    27   144   153   am
    28   174   175    2
    29   166   167    1
    30    11    10    2
    31   177   176    1
    32   177   179   ar
    33     8     3   am
    34     8     9    1
    35   181   183   ar
    36   181   179   ar
    37     3     4    2
    38   156   155    2
    39   155   154    1
    40   153   154    1
    41   167   168    1
    42   183   185   ar
    43   179   182   ar
    44    10     9    1
    45     9    12    1
    46   154   157    1
    47    12    13    1
    48   185   184   ar
    49   132   131    1
    50   182   184   ar
    51   168   169    2
    52    13    14    1
    53    13    15    1
    54   133   134    1
    55   170   169    1
    56   136   135    2
    57   131   130    1
    58   169   171    1
    59   134   135    1
    60   134   137    1
    61   157   158    1
    62   159   158    2
    63   130   129    1
    64   158   160   am
    65   137   138    1
    66   138   139    1
    67   128   127    2
    68   197   196    1
    69   127   126    1
    70   129   126    1
    71   195   196   ar
    72   195   193   ar
    73   196   194   ar
    74   126   125    1
    75   139   140   ar
    76   139   141   ar
    77   193   191   ar
    78   194   192   ar
    79   125   115   am
    80   191   192   ar
    81   191   190    1
    82    54    53    1
    83   190   187    1
    84   119   121   ar
    85   119   118   ar
    86   121   123   ar
    87   115   116    2
    88   115   114    1
    89    55    53    1
    90    53    52    2
    91   117   118    1
    92   117   114    1
    93   118   120   ar
    94   114   113    1
    95   123   124    1
    96   123   122   ar
    97    44    42   am
    98   187   186    1
    99   187   188    1
   100   120   122   ar
   101    52    51    1
   102    35    34    1
   103   188   189    2
   104    77    75   am
   105    34    31    1
   106    51    50    1
   107   113   101   am
   108   102   101    2
   109    42    43    2
   110    42    41    1
   111   101   100    1
   112    69    67    1
   113    41    40    1
   114    75    76    2
   115    75    74    1
   116    19    18    2
   117   105   107   ar
   118   105   104   ar
   119   107   108   ar
   120    60    61    1
   121    60    57    1
   122    47    46    1
   123    47    48    2
   124    49    50    1
   125    49    46    1
   126    46    45    1
   127    31    32    1
   128    31    30    1
   129    24    22   ar
   130    24    25   ar
   131    68    67    1
   132    61    62    1
   133    33    32    2
   134    22    21   ar
   135    32    36   am
   136    74    71    1
   137    67    64    1
   138    40    37    1
   139    18    17    1
   140   100   103    1
   141   100    99    1
   142   104   103    1
   143   104   106   ar
   144    57    56    1
   145    57    58    1
   146   108   110   ar
   147   108   106   ar
   148    73    72    2
   149    36    37    1
   150    88    86   ar
   151    88    87   ar
   152    86    84   ar
   153    62    56    1
   154    25    27   ar
   155    25    23   ar
   156    99    97   am
   157   110   112   ar
   158    27    29   ar
   159    72    71    1
   160    64    63    1
   161    64    65    1
   162    17    16    1
   163    17    20    1
   164    37    38    1
   165   106   109   ar
   166    58    59    2
   167    21    23   ar
   168    21    20    1
   169    71    70    1
   170    87    85   ar
   171    23    26   ar
   172    84    83   ar
   173    97    96    1
   174    97    98    2
   175    65    66    2
   176    29    28   ar
   177   112   111   ar
   178    38    39    2
   179    96    95    1
   180   109   111   ar
   181    95    91   am
   182    85    83   ar
   183    83    82    1
   184    26    28   ar
   185    81    80    2
   186    91    90    1
   187    91    92    2
   188    90    89    1
   189    90    93    1
   190    80    89   am
   191    80    79    1
   192    82    79    1
   193    93    94    1
   194    79    78    1
