@<TRIPOS>MOLECULE
tmp/5fw0B03.pdb
 173 169 0 0 0
SMALL
GASTEIGER

@<TRIPOS>ATOM
      1  N         17.9120   12.2590   47.6460 N.3    38  MET38      -0.1245
      2  CA        17.6740   11.6690   48.9700 C.3    38  MET38       0.1570
      3  C         17.3170   12.7110   50.0440 C.2    38  MET38       0.2261
      4  O         16.3820   12.5140   50.8130 O.2    38  MET38      -0.2867
      5  CB        18.8610   10.8180   49.4240 C.3    38  MET38       0.0387
      6  CG        18.6440   10.1970   50.8120 C.3    38  MET38       0.0595
      7  SD        19.8210    8.8800   51.1660 S.3    38  MET38      -0.1393
      8  CE        19.6690    7.9230   49.6590 C.3    38  MET38       0.0692
      9  N         22.1700    5.9500   64.4630 N.3   170  SER170     -0.1202
     10  CA        21.1580    6.0870   63.4110 C.3   170  SER170      0.2020
     11  C         19.9870    5.1150   63.6370 C.2   170  SER170      0.2618
     12  O         18.8340    5.4210   63.3220 O.2   170  SER170     -0.2717
     13  CB        21.7850    5.8860   62.0240 C.3   170  SER170      0.2103
     14  OG        22.5430    4.6930   61.9670 O.3   170  SER170     -0.2182
     15  N         20.2840    3.9390   64.1820 N.am  171  GLN171     -0.1979
     16  CA        19.2430    3.0040   64.6110 C.3   171  GLN171      0.1601
     17  C         19.6400    2.4840   65.9770 C.2   171  GLN171      0.2287
     18  O         20.8290    2.3910   66.2650 O.2   171  GLN171     -0.2864
     19  CB        19.1380    1.7950   63.6680 C.3   171  GLN171      0.0394
     20  CG        18.6310    2.0420   62.2470 C.3   171  GLN171      0.0908
     21  CD        18.7460    0.7820   61.3840 C.2   171  GLN171      0.2608
     22  OE1       19.2160    0.8280   60.2330 O.2   171  GLN171     -0.2717
     23  NE2       18.2770   -0.3340   61.9190 N.am  171  GLN171     -0.0878
     24  N         22.3550   -1.8120   65.6000 N.3   174  ARG174     -0.1245
     25  CA        23.1470   -1.8810   64.3580 C.3   174  ARG174      0.1563
     26  C         24.4930   -2.5290   64.6260 C.2   174  ARG174      0.2260
     27  O         24.9570   -2.5250   65.7690 O.2   174  ARG174     -0.2867
     28  CB        23.3940   -0.4770   63.7940 C.3   174  ARG174      0.0307
     29  CG        22.2520    0.0920   62.9820 C.3   174  ARG174      0.0489
     30  CD        22.7260    1.1510   62.0010 C.3   174  ARG174      0.2205
     31  NE        22.7010    0.6620   60.6260 N.pl3 174  ARG174     -0.0865
     32  CZ        22.9010    1.4200   59.5540 C.cat 174  ARG174      0.5346
     33  NH1       23.1460    2.7150   59.6940 N.pl3 174  ARG174      0.1354
     34  NH2       22.8560    0.8810   58.3400 N.pl3 174  ARG174      0.1354
     35  N         13.9970   -3.3060   63.6680 N.3   258  PRO258     -0.2116
     36  CA        14.4450   -2.0810   62.9990 C.3   258  PRO258      0.1372
     37  C         13.8780   -0.8700   63.7370 C.2   258  PRO258      0.2244
     38  O         12.6510   -0.7300   63.9050 O.2   258  PRO258     -0.2868
     39  CB        13.8350   -2.2050   61.5920 C.3   258  PRO258      0.0268
     40  CG        12.5340   -2.9940   61.8260 C.3   258  PRO258      0.0207
     41  CD        12.8210   -3.9170   63.0120 C.3   258  PRO258      0.0892
     42  N         14.4820    3.2100   63.9590 N.3   260  VAL260     -0.1245
     43  CA        15.1490    4.4300   63.5050 C.3   260  VAL260      0.1561
     44  C         15.2700    5.4490   64.6390 C.2   260  VAL260      0.2260
     45  O         14.2830    5.7630   65.2850 O.2   260  VAL260     -0.2867
     46  CB        14.3750    5.0560   62.3560 C.3   260  VAL260      0.0252
     47  CG1       14.8990    6.4640   62.0660 C.3   260  VAL260      0.0019
     48  CG2       14.4910    4.1480   61.1060 C.3   260  VAL260      0.0019
     49  N         17.4800    8.5330   64.4780 N.3   262  ASN262     -0.1225
     50  CA        18.1590    9.7770   64.1340 C.3   262  ASN262      0.1785
     51  C         17.2520   10.8330   63.4850 C.2   262  ASN262      0.2597
     52  O         17.7410   11.8500   62.9950 O.2   262  ASN262     -0.2718
     53  CB        19.3790    9.5170   63.2210 C.3   262  ASN262      0.1169
     54  CG        18.9950    8.8630   61.9030 C.2   262  ASN262      0.2627
     55  OD1       19.8190    8.7330   60.9960 O.2   262  ASN262     -0.2716
     56  ND2       17.7340    8.4670   61.7840 N.am  262  ASN262     -0.0877
     57  N         15.9420   10.6040   63.4940 N.am  263  MET263     -0.1979
     58  CA        15.0230   11.5440   62.8620 C.3   263  MET263      0.1605
     59  C         14.3730   12.4780   63.8760 C.2   263  MET263      0.2287
     60  O         14.4740   12.2550   65.0820 O.2   263  MET263     -0.2864
     61  CB        13.9800   10.8060   62.0130 C.3   263  MET263      0.0413
     62  CG        14.5910   10.1510   60.7500 C.3   263  MET263      0.0598
     63  SD        13.3550    9.4080   59.6650 S.3   263  MET263     -0.1393
     64  CE        12.8940   10.8780   58.7180 C.3   263  MET263      0.0692
     65  N         11.8040    5.2390   66.9250 N.3   277  PHE277     -0.1227
     66  CA        10.6120    4.4710   66.5880 C.3   277  PHE277      0.1736
     67  C         10.9940    3.1520   65.8700 C.2   277  PHE277      0.2596
     68  O         12.0270    3.0680   65.2010 O.2   277  PHE277     -0.2718
     69  CB         9.6390    5.3150   65.7520 C.3   277  PHE277      0.0547
     70  CG        10.2380    5.8730   64.4680 C.ar  277  PHE277     -0.0202
     71  CD1       10.3000    5.0910   63.3130 C.ar  277  PHE277     -0.0042
     72  CD2       10.7130    7.1820   64.4150 C.ar  277  PHE277     -0.0042
     73  CE1       10.8360    5.5990   62.1210 C.ar  277  PHE277     -0.0003
     74  CE2       11.2570    7.7070   63.2200 C.ar  277  PHE277     -0.0003
     75  CZ        11.3070    6.9020   62.0680 C.ar  277  PHE277     -0.0000
     76  N         10.1620    2.1340   66.0360 N.am  278  SER278     -0.1938
     77  CA        10.4690    0.7950   65.5370 C.3   278  SER278      0.2055
     78  C          9.2140    0.0930   65.0280 C.2   278  SER278      0.2644
     79  O          8.1070    0.3690   65.4870 O.2   278  SER278     -0.2714
     80  CB        11.1480   -0.0600   66.6200 C.3   278  SER278      0.2130
     81  OG        10.2620   -0.2990   67.7060 O.3   278  SER278     -0.2179
     82  N          9.3870   -0.8080   64.0660 N.am  279  GLY279     -0.1939
     83  CA         8.2780   -1.6150   63.5920 C.3   279  GLY279      0.2014
     84  C          8.7660   -3.0450   63.4510 C.2   279  GLY279      0.2639
     85  O          9.2700   -3.6310   64.4120 O.2   279  GLY279     -0.2714
     86  N          8.6230   -3.6050   62.2560 N.am  280  TRP280     -0.1959
     87  CA         9.2520   -4.8800   61.9300 C.3   280  TRP280      0.1771
     88  C          9.7580   -4.8180   60.4910 C.2   280  TRP280      0.2620
     89  O          9.3250   -3.9600   59.7180 O.2   280  TRP280     -0.2715
     90  CB         8.2880   -6.0440   62.1030 C.3   280  TRP280      0.0590
     91  CG         6.9910   -5.8960   61.3980 C.ar  280  TRP280      0.0006
     92  CD1        6.7430   -6.1330   60.0630 C.ar  280  TRP280      0.0946
     93  CD2        5.7520   -5.5070   61.9800 C.ar  280  TRP280      0.0152
     94  NE1        5.4130   -5.9030   59.7900 N.ar  280  TRP280     -0.2442
     95  CE2        4.7790   -5.5170   60.9500 C.ar  280  TRP280      0.0810
     96  CE3        5.3500   -5.1410   63.2750 C.ar  280  TRP280      0.0012
     97  CZ2        3.4420   -5.1790   61.1790 C.ar  280  TRP280      0.0191
     98  CZ3        4.0320   -4.8060   63.5010 C.ar  280  TRP280      0.0001
     99  CH2        3.0880   -4.8350   62.4620 C.ar  280  TRP280      0.0015
    100  N         10.6520   -5.7320   60.1250 N.am  281  TYR281     -0.1960
    101  CA        11.3220   -5.6380   58.8280 C.3   281  TYR281      0.1771
    102  C         10.4670   -6.1300   57.6520 C.2   281  TYR281      0.2619
    103  O          9.6540   -7.0640   57.7910 O.2   281  TYR281     -0.2715
    104  CB        12.6020   -6.4680   58.8410 C.3   281  TYR281      0.0574
    105  CG        13.8660   -5.7260   59.1950 C.ar  281  TYR281     -0.0198
    106  CD1       14.3540   -4.7160   58.3740 C.ar  281  TYR281     -0.0009
    107  CD2       14.5900   -6.0540   60.3420 C.ar  281  TYR281     -0.0009
    108  CE1       15.5280   -4.0420   58.6790 C.ar  281  TYR281      0.0417
    109  CE2       15.7720   -5.3830   60.6620 C.ar  281  TYR281      0.0417
    110  CZ        16.2320   -4.3860   59.8240 C.ar  281  TYR281      0.1957
    111  OH        17.4010   -3.7270   60.1140 O.3   281  TYR281     -0.2866
    112  N         10.6700   -5.5000   56.4970 N.am  282  MET282     -0.1977
    113  CA        10.3170   -6.1070   55.2140 C.3   282  MET282      0.1605
    114  C         11.5980   -6.8190   54.7790 C.2   282  MET282      0.2287
    115  O         12.6940   -6.2630   54.9310 O.2   282  MET282     -0.2864
    116  CB         9.8870   -5.0390   54.1950 C.3   282  MET282      0.0413
    117  CG         9.5040   -5.6100   52.8070 C.3   282  MET282      0.0598
    118  SD         8.7120   -4.3530   51.7540 S.3   282  MET282     -0.1393
    119  CE        10.1440   -3.4230   51.2100 C.3   282  MET282      0.0692
    120  N         14.8190   -5.3030   53.0230 N.3   285  GLU285     -0.1245
    121  CA        15.6540   -4.3600   53.7550 C.3   285  GLU285      0.1567
    122  C         16.9560   -5.0230   54.1820 C.2   285  GLU285      0.2260
    123  O         18.0310   -4.4410   54.0480 O.2   285  GLU285     -0.2867
    124  CB        14.9200   -3.7930   54.9710 C.3   285  GLU285      0.0388
    125  CG        13.6750   -2.9850   54.6170 C.3   285  GLU285      0.1160
    126  CD        13.0050   -2.4070   55.8590 C.2   285  GLU285      0.3649
    127  OE1       13.5480   -1.4180   56.3790 O.co2 285  GLU285     -0.2457
    128  OE2       11.9660   -2.9370   56.3270 O.co2 285  GLU285     -0.2457
    129  N         20.9350   -4.5030   53.0020 N.3   290  ASP290     -0.1239
    130  CA        21.9540   -4.8220   54.0150 C.3   290  ASP290      0.1674
    131  C         23.0070   -5.8550   53.5750 C.2   290  ASP290      0.2266
    132  O         24.1950   -5.7150   53.8920 O.2   290  ASP290     -0.2867
    133  CB        21.2890   -5.2840   55.3180 C.3   290  ASP290      0.1410
    134  CG        20.4370   -4.1960   55.9500 C.2   290  ASP290      0.3668
    135  OD1       20.7150   -3.0060   55.6990 O.co2 290  ASP290     -0.2456
    136  OD2       19.4920   -4.5240   56.6990 O.co2 290  ASP290     -0.2456
    137  N         27.7240   -2.3450   51.4170 N.3   296  ARG296     -0.1245
    138  CA        27.3670   -2.9770   52.7020 C.3   296  ARG296      0.1563
    139  C         28.0820   -4.3330   52.8560 C.2   296  ARG296      0.2260
    140  O         29.2700   -4.4430   52.5330 O.2   296  ARG296     -0.2867
    141  CB        25.8450   -3.1150   52.8460 C.3   296  ARG296      0.0307
    142  CG        25.0620   -1.8080   52.7270 C.3   296  ARG296      0.0489
    143  CD        25.2490   -0.8700   53.9200 C.3   296  ARG296      0.2205
    144  NE        24.8620   -1.4780   55.2000 N.pl3 296  ARG296     -0.0865
    145  CZ        23.6110   -1.5540   55.6490 C.cat 296  ARG296      0.5346
    146  NH1       22.6180   -1.0710   54.9130 N.pl3 296  ARG296      0.1354
    147  NH2       23.3490   -2.1080   56.8320 N.pl3 296  ARG296      0.1354
    148  N         10.8380    5.4610   46.8370 N.3   371  TRP371     -0.1241
    149  CA        11.1190    4.7200   48.0550 C.3   371  TRP371      0.1605
    150  C         10.1690    3.5620   48.3140 C.2   371  TRP371      0.2264
    151  O         10.5540    2.5500   48.9180 O.2   371  TRP371     -0.2867
    152  CB        11.1140    5.6890   49.2570 C.3   371  TRP371      0.0550
    153  CG        12.4300    6.4170   49.3690 C.ar  371  TRP371      0.0003
    154  CD1       12.9790    7.2890   48.4610 C.ar  371  TRP371      0.0946
    155  CD2       13.3730    6.3080   50.4420 C.ar  371  TRP371      0.0152
    156  NE1       14.2000    7.7350   48.9200 N.ar  371  TRP371     -0.2442
    157  CE2       14.4630    7.1450   50.1350 C.ar  371  TRP371      0.0810
    158  CE3       13.3960    5.5860   51.6410 C.ar  371  TRP371      0.0012
    159  CZ2       15.5690    7.2820   50.9810 C.ar  371  TRP371      0.0191
    160  CZ3       14.4900    5.7280   52.4890 C.ar  371  TRP371      0.0001
    161  CH2       15.5600    6.5670   52.1480 C.ar  371  TRP371      0.0015
    162  N         14.4550   14.6430   58.5210 N.3   399  TYR399     -0.1241
    163  CA        15.8820   14.4300   58.7010 C.3   399  TYR399      0.1605
    164  C         16.4570   15.5800   59.4960 C.2   399  TYR399      0.2264
    165  O         15.9300   16.7000   59.4720 O.2   399  TYR399     -0.2867
    166  CB        16.5950   14.3400   57.3570 C.3   399  TYR399      0.0534
    167  CG        16.1540   13.1510   56.5560 C.ar  399  TYR399     -0.0201
    168  CD1       16.4890   11.8620   56.9490 C.ar  399  TYR399     -0.0009
    169  CD2       15.3850   13.3140   55.4180 C.ar  399  TYR399     -0.0009
    170  CE1       16.0800   10.7650   56.2130 C.ar  399  TYR399      0.0417
    171  CE2       14.9770   12.2270   54.6750 C.ar  399  TYR399      0.0417
    172  CZ        15.3260   10.9590   55.0760 C.ar  399  TYR399      0.1957
    173  OH        14.9150    9.8900   54.3240 O.3   399  TYR399     -0.2866
@<TRIPOS>BOND
     1   148   149    1
     2     1     2    1
     3   149   150    1
     4   149   152    1
     5   150   151    2
     6   154   156   ar
     7   154   153   ar
     8   156   157   ar
     9     2     5    1
    10     2     3    1
    11   152   153    1
    12   153   155   ar
    13     5     6    1
    14     8     7    1
    15     3     4    2
    16   157   155   ar
    17   157   159   ar
    18   155   158   ar
    19     6     7    1
    20   159   161   ar
    21   119   118    1
    22   137   138    1
    23   158   160   ar
    24   118   117    1
    25   161   160   ar
    26   140   139    2
    27   138   141    1
    28   138   139    1
    29   142   141    1
    30   142   143    1
    31   117   116    1
    32   129   130    1
    33   120   121    1
    34   131   132    2
    35   131   130    1
    36   121   122    1
    37   121   124    1
    38   143   144    1
    39   130   133    1
    40   123   122    2
    41   116   113    1
    42   173   172    1
    43   125   124    1
    44   125   126    1
    45   171   172   ar
    46   171   169   ar
    47   114   115    2
    48   114   113    1
    49   146   145    1
    50   172   170   ar
    51   144   145    2
    52   113   112    1
    53   133   134    1
    54   169   167   ar
    55   145   147    1
    56   135   134   ar
    57   126   128   ar
    58   126   127   ar
    59   134   136   ar
    60   170   168   ar
    61   112   102   am
    62   167   168   ar
    63   167   166    1
    64   166   163    1
    65   102   103    2
    66   102   101    1
    67    34    32    1
    68   106   108   ar
    69   106   105   ar
    70   162   163    1
    71   108   110   ar
    72   163   164    1
    73    64    63    1
    74   101   104    1
    75   101   100    1
    76   104   105    1
    77   105   107   ar
    78   165   164    2
    79    32    33    1
    80    32    31    2
    81    63    62    1
    82    89    88    2
    83    94    92   ar
    84    94    95   ar
    85   110   111    1
    86   110   109   ar
    87    92    91   ar
    88   100    88   am
    89    22    21    2
    90   107   109   ar
    91    88    87    1
    92    31    30    1
    93    62    61    1
    94    95    97   ar
    95    95    93   ar
    96    55    54    2
    97    48    46    1
    98    97    99   ar
    99    21    23   am
   100    21    20    1
   101    91    93   ar
   102    91    90    1
   103    39    40    1
   104    39    36    1
   105    56    54   am
   106    40    41    1
   107    54    53    1
   108    87    90    1
   109    87    86    1
   110    14    13    1
   111    93    96   ar
   112    30    29    1
   113    61    58    1
   114    13    10    1
   115    47    46    1
   116    75    73   ar
   117    75    74   ar
   118    73    71   ar
   119    20    19    1
   120    86    84   am
   121    46    43    1
   122    99    98   ar
   123    58    57    1
   124    58    59    1
   125    29    28    1
   126    52    51    2
   127    36    35    1
   128    36    37    1
   129    41    35    1
   130    74    72   ar
   131    53    50    1
   132    96    98   ar
   133    71    70   ar
   134    12    11    2
   135    10    11    1
   136    10     9    1
   137    84    83    1
   138    84    85    2
   139    51    57   am
   140    51    50    1
   141    43    42    1
   142    43    44    1
   143    83    82    1
   144    11    15   am
   145    19    16    1
   146    37    38    2
   147    28    25    1
   148    59    60    2
   149    82    78   am
   150    50    49    1
   151    15    16    1
   152    25    26    1
   153    25    24    1
   154    72    70   ar
   155    70    69    1
   156    16    17    1
   157    26    27    2
   158    44    45    2
   159    78    79    2
   160    78    77    1
   161    68    67    2
   162    77    76    1
   163    77    80    1
   164    69    66    1
   165    67    76   am
   166    67    66    1
   167    17    18    2
   168    66    65    1
   169    80    81    1
