@<TRIPOS>MOLECULE
tmp/5fweA00.pdb
 82 78 0 0 0
SMALL
GASTEIGER

@<TRIPOS>ATOM
      1  N        110.6750    7.6250    3.7200 N.3   164  GLY164     -0.1210
      2  CA       110.8610    9.0390    3.4740 C.3   164  GLY164      0.1956
      3  C        112.2270    9.5630    3.8170 C.2   164  GLY164      0.2611
      4  O        112.5460   10.7020    3.4560 O.2   164  GLY164     -0.2717
      5  N        113.0470    8.7630    4.4840 N.am  165  VAL165     -0.1979
      6  CA       114.4210    9.1180    4.7760 C.3   165  VAL165      0.1595
      7  C        115.3700    8.5190    3.7470 C.2   165  VAL165      0.2287
      8  O        116.2080    9.2210    3.1800 O.2   165  VAL165     -0.2864
      9  CB       114.7690    8.6720    6.2130 C.3   165  VAL165      0.0276
     10  CG1      116.1970    9.0310    6.5720 C.3   165  VAL165      0.0022
     11  CG2      113.7870    9.3010    7.2040 C.3   165  VAL165      0.0022
     12  N        109.0250    9.7220   -1.2990 N.3   169  TYR169     -0.1241
     13  CA       107.7080   10.1970   -0.8930 C.3   169  TYR169      0.1605
     14  C        107.1290   11.0850   -1.9850 C.2   169  TYR169      0.2264
     15  O        107.8690   11.7850   -2.6820 O.2   169  TYR169     -0.2867
     16  CB       107.7650   11.0130    0.4120 C.3   169  TYR169      0.0534
     17  CG       107.5050   10.2430    1.6890 C.ar  169  TYR169     -0.0201
     18  CD1      107.7110    8.8740    1.7650 C.ar  169  TYR169     -0.0009
     19  CD2      107.0440   10.8990    2.8220 C.ar  169  TYR169     -0.0009
     20  CE1      107.4690    8.1800    2.9350 C.ar  169  TYR169      0.0417
     21  CE2      106.7960   10.2160    3.9930 C.ar  169  TYR169      0.0417
     22  CZ       107.0100    8.8560    4.0460 C.ar  169  TYR169      0.1957
     23  OH       106.7650    8.1770    5.2150 O.3   169  TYR169     -0.2866
     24  N        104.0680   14.1090   -2.7290 N.3   171  TYR171     -0.1241
     25  CA       103.3090   15.1740   -2.0850 C.3   171  TYR171      0.1605
     26  C        102.4350   15.8170   -3.1490 C.2   171  TYR171      0.2264
     27  O        102.9460   16.4750   -4.0620 O.2   171  TYR171     -0.2867
     28  CB       104.2380   16.2040   -1.4430 C.3   171  TYR171      0.0534
     29  CG       105.0400   15.6480   -0.2940 C.ar  171  TYR171     -0.0201
     30  CD1      106.2450   14.9940   -0.5150 C.ar  171  TYR171     -0.0009
     31  CD2      104.5900   15.7670    1.0130 C.ar  171  TYR171     -0.0009
     32  CE1      106.9810   14.4780    0.5340 C.ar  171  TYR171      0.0417
     33  CE2      105.3180   15.2530    2.0700 C.ar  171  TYR171      0.0417
     34  CZ       106.5130   14.6100    1.8240 C.ar  171  TYR171      0.1957
     35  OH       107.2410   14.0960    2.8720 O.3   171  TYR171     -0.2866
     36  N        115.5710   18.7220    8.4740 N.3   184  GLU184     -0.1231
     37  CA       115.2650   17.3470    8.2010 C.3   184  GLU184      0.1699
     38  C        115.5530   16.4780    9.4140 C.2   184  GLU184      0.2592
     39  O        116.3510   16.8380   10.2340 O.2   184  GLU184     -0.2718
     40  CB       116.1200   16.8630    7.0430 C.3   184  GLU184      0.0402
     41  CG       115.8510   17.5500    5.7170 C.3   184  GLU184      0.1161
     42  CD       114.3730   17.5880    5.3750 C.2   184  GLU184      0.3649
     43  OE1      113.7610   16.5260    5.3500 O.co2 184  GLU184     -0.2457
     44  OE2      113.8340   18.6630    5.1320 O.co2 184  GLU184     -0.2457
     45  N        114.8870   15.3340    9.5170 N.am  185  ASP185     -0.1974
     46  CA       115.2020   14.3750   10.5660 C.3   185  ASP185      0.1709
     47  C        116.7030   14.1220   10.5960 C.2   185  ASP185      0.2293
     48  O        117.3470   13.9900    9.5520 O.2   185  ASP185     -0.2864
     49  CB       114.4560   13.0570   10.3380 C.3   185  ASP185      0.1436
     50  CG       112.9650   13.1750   10.5870 C.2   185  ASP185      0.3671
     51  OD1      112.5750   13.6830   11.6600 O.co2 185  ASP185     -0.2456
     52  OD2      112.1820   12.7600    9.7080 O.co2 185  ASP185     -0.2456
     53  N        106.8080   19.8800   13.0800 N.3   235  LYS235     -0.1245
     54  CA       106.4020   20.4240   11.7840 C.3   235  LYS235      0.1561
     55  C        104.9970   21.0190   11.8510 C.2   235  LYS235      0.2260
     56  O        104.1580   20.7950   10.9780 O.2   235  LYS235     -0.2867
     57  CB       106.5020   19.3540   10.6930 C.3   235  LYS235      0.0271
     58  CG       107.9120   18.8060   10.5440 C.3   235  LYS235      0.0035
     59  CD       108.0530   17.8070    9.4080 C.3   235  LYS235      0.0206
     60  CE       109.2850   16.9400    9.6260 C.3   235  LYS235      0.1093
     61  NZ       109.9620   16.5240    8.3660 N.3   235  LYS235     -0.1314
     62  N        110.2570   13.4640   -2.9190 N.3   282  SER282     -0.1202
     63  CA       111.4170   13.8320   -2.1190 C.3   282  SER282      0.2020
     64  C        111.8970   12.6620   -1.2780 C.2   282  SER282      0.2619
     65  O        111.1780   11.6810   -1.0560 O.2   282  SER282     -0.2717
     66  CB       111.1160   15.0270   -1.2040 C.3   282  SER282      0.2103
     67  OG       110.0370   14.7430   -0.3320 O.3   282  SER282     -0.2182
     68  N        113.1400   12.7910   -0.8160 N.am  283  THR283     -0.1938
     69  CA       113.7050   11.8530    0.1480 C.3   283  THR283      0.2028
     70  C        114.8630   12.5530    0.8420 C.2   283  THR283      0.2642
     71  O        115.2460   13.6650    0.4760 O.2   283  THR283     -0.2714
     72  CB       114.1630   10.5410   -0.5160 C.3   283  THR283      0.1808
     73  OG1      114.2660    9.5080    0.4720 O.3   283  THR283     -0.2208
     74  CG2      115.5240   10.6930   -1.2010 C.3   283  THR283      0.0379
     75  N        115.4100   11.8980    1.8580 N.am  284  ASN284     -0.1971
     76  CA       116.5950   12.4000    2.5370 C.3   284  ASN284      0.1688
     77  C        117.8370   11.7160    1.9840 C.2   284  ASN284      0.2292
     78  O        117.7680   10.6440    1.3780 O.2   284  ASN284     -0.2864
     79  CB       116.5080   12.1750    4.0500 C.3   284  ASN284      0.1181
     80  CG       115.3850   12.9580    4.6940 C.2   284  ASN284      0.2629
     81  OD1      114.4560   12.3840    5.2570 O.2   284  ASN284     -0.2716
     82  ND2      115.4680   14.2790    4.6190 N.am  284  ASN284     -0.0877
@<TRIPOS>BOND
     1    27    26    2
     2    26    25    1
     3    62    63    1
     4    24    25    1
     5    15    14    2
     6    63    64    1
     7    63    66    1
     8    25    28    1
     9    14    13    1
    10    28    29    1
    11    12    13    1
    12    64    65    2
    13    64    68   am
    14    66    67    1
    15    74    72    1
    16    13    16    1
    17    68    69    1
    18    72    69    1
    19    72    73    1
    20    30    29   ar
    21    30    32   ar
    22    29    31   ar
    23    69    70    1
    24    16    17    1
    25    71    70    2
    26    32    34   ar
    27    70    75   am
    28    31    33   ar
    29    78    77    2
    30    17    18   ar
    31    17    19   ar
    32    18    20   ar
    33    34    33   ar
    34    34    35    1
    35    75    76    1
    36    77    76    1
    37    76    79    1
    38    19    21   ar
    39    20    22   ar
    40     8     7    2
    41     4     3    2
    42     2     1    1
    43     2     3    1
    44     7     6    1
    45     3     5   am
    46    21    22   ar
    47    22    23    1
    48    79    80    1
    49     5     6    1
    50    82    80   am
    51    80    81    2
    52     6     9    1
    53    44    42   ar
    54    43    42   ar
    55    42    41    1
    56    41    40    1
    57     9    10    1
    58     9    11    1
    59    40    37    1
    60    37    36    1
    61    37    38    1
    62    61    60    1
    63    59    60    1
    64    59    58    1
    65    38    45   am
    66    38    39    2
    67    45    46    1
    68    48    47    2
    69    52    50   ar
    70    49    46    1
    71    49    50    1
    72    58    57    1
    73    46    47    1
    74    50    51   ar
    75    57    54    1
    76    56    55    2
    77    54    55    1
    78    54    53    1
