@<TRIPOS>MOLECULE
tmp/5fwjA00.pdb
 155 150 0 0 0
SMALL
GASTEIGER

@<TRIPOS>ATOM
      1  N         12.5840   61.0670  -15.9250 N.3   122  TYR122     -0.1241
      2  CA        13.8440   60.8650  -15.2260 C.3   122  TYR122      0.1605
      3  C         13.7890   59.5800  -14.4150 C.2   122  TYR122      0.2264
      4  O         12.9140   59.4110  -13.5640 O.2   122  TYR122     -0.2867
      5  CB        14.1370   62.0750  -14.3290 C.3   122  TYR122      0.0534
      6  CG        15.5330   62.1530  -13.7420 C.ar  122  TYR122     -0.0201
      7  CD1       16.5920   61.4590  -14.3130 C.ar  122  TYR122     -0.0009
      8  CD2       15.8110   63.0070  -12.6790 C.ar  122  TYR122     -0.0009
      9  CE1       17.8740   61.5540  -13.7960 C.ar  122  TYR122      0.0417
     10  CE2       17.0950   63.1160  -12.1590 C.ar  122  TYR122      0.0417
     11  CZ        18.1210   62.3920  -12.7230 C.ar  122  TYR122      0.1957
     12  OH        19.3950   62.5010  -12.2100 O.3   122  TYR122     -0.2866
     13  N         16.4380   58.0250   -8.4040 N.3   125  ASP125     -0.1239
     14  CA        16.3370   57.3110   -7.1350 C.3   125  ASP125      0.1674
     15  C         16.0650   55.8200   -7.3090 C.2   125  ASP125      0.2266
     16  O         15.2100   55.2550   -6.6300 O.2   125  ASP125     -0.2867
     17  CB        15.2460   57.9350   -6.2630 C.3   125  ASP125      0.1410
     18  CG        15.5640   59.3630   -5.8670 C.2   125  ASP125      0.3668
     19  OD1       16.7600   59.6980   -5.7330 O.co2 125  ASP125     -0.2456
     20  OD2       14.6140   60.1520   -5.6900 O.co2 125  ASP125     -0.2456
     21  N         19.7830   53.7740    1.9380 N.3   178  GLY178     -0.1225
     22  CA        19.4320   55.1080    1.5050 C.3   178  GLY178      0.1811
     23  C         20.5280   56.0680    1.8950 C.2   178  GLY178      0.2280
     24  O         20.7000   57.1200    1.2780 O.2   178  GLY178     -0.2866
     25  N         22.5480   54.9260   -4.9350 N.3   183  TRP183     -0.1241
     26  CA        21.3280   55.1000   -5.7120 C.3   183  TRP183      0.1605
     27  C         21.6900   55.4150   -7.1540 C.2   183  TRP183      0.2264
     28  O         22.7490   55.9750   -7.4240 O.2   183  TRP183     -0.2867
     29  CB        20.4640   56.2110   -5.1240 C.3   183  TRP183      0.0550
     30  CG        19.9720   55.8940   -3.7590 C.ar  183  TRP183      0.0003
     31  CD1       20.6760   55.9880   -2.5960 C.ar  183  TRP183      0.0946
     32  CD2       18.6640   55.4380   -3.4020 C.ar  183  TRP183      0.0152
     33  NE1       19.8910   55.6140   -1.5370 N.ar  183  TRP183     -0.2442
     34  CE2       18.6490   55.2730   -2.0030 C.ar  183  TRP183      0.0810
     35  CE3       17.5050   55.1510   -4.1280 C.ar  183  TRP183      0.0012
     36  CZ2       17.5190   54.8360   -1.3150 C.ar  183  TRP183      0.0191
     37  CZ3       16.3840   54.7180   -3.4440 C.ar  183  TRP183      0.0001
     38  CH2       16.3990   54.5660   -2.0500 C.ar  183  TRP183      0.0015
     39  N         20.7220   56.9000  -11.1490 N.3   185  TYR185     -0.1241
     40  CA        20.0100   57.9630  -11.8410 C.3   185  TYR185      0.1605
     41  C         20.1970   57.8270  -13.3450 C.2   185  TYR185      0.2264
     42  O         21.3100   57.9350  -13.8530 O.2   185  TYR185     -0.2867
     43  CB        20.4910   59.3340  -11.3580 C.3   185  TYR185      0.0534
     44  CG        20.3290   59.5260   -9.8640 C.ar  185  TYR185     -0.0201
     45  CD1       21.3080   59.0970   -8.9780 C.ar  185  TYR185     -0.0009
     46  CD2       19.1860   60.1200   -9.3410 C.ar  185  TYR185     -0.0009
     47  CE1       21.1550   59.2560   -7.6090 C.ar  185  TYR185      0.0417
     48  CE2       19.0230   60.2850   -7.9780 C.ar  185  TYR185      0.0417
     49  CZ        20.0120   59.8520   -7.1170 C.ar  185  TYR185      0.1957
     50  OH        19.8560   60.0140   -5.7590 O.3   185  TYR185     -0.2866
     51  N         17.1560   67.7530  -11.0060 N.3   193  PHE193     -0.1241
     52  CA        16.9880   67.5840   -9.5700 C.3   193  PHE193      0.1605
     53  C         16.9800   68.9460   -8.8950 C.2   193  PHE193      0.2264
     54  O         17.8340   69.7960   -9.1510 O.2   193  PHE193     -0.2867
     55  CB        18.0620   66.6630   -8.9660 C.3   193  PHE193      0.0534
     56  CG        19.4870   67.0350   -9.3040 C.ar  193  PHE193     -0.0203
     57  CD1       20.0420   66.6930  -10.5260 C.ar  193  PHE193     -0.0042
     58  CD2       20.2920   67.6640   -8.3640 C.ar  193  PHE193     -0.0042
     59  CE1       21.3610   67.0060  -10.8230 C.ar  193  PHE193     -0.0003
     60  CE2       21.6100   67.9790   -8.6520 C.ar  193  PHE193     -0.0003
     61  CZ        22.1460   67.6510   -9.8840 C.ar  193  PHE193     -0.0000
     62  N         18.3650   71.0200   -2.8910 N.3   196  HIS196     -0.1241
     63  CA        18.2280   70.2440   -1.6730 C.3   196  HIS196      0.1621
     64  C         19.5800   70.0710   -1.0110 C.2   196  HIS196      0.2264
     65  O         20.6210   70.3440   -1.6110 O.2   196  HIS196     -0.2867
     66  CB        17.6460   68.8690   -1.9760 C.3   196  HIS196      0.0745
     67  CG        18.6420   67.9500   -2.6010 C.ar  196  HIS196      0.0817
     68  ND1       19.0230   68.0560   -3.9210 N.ar  196  HIS196     -0.2268
     69  CD2       19.3800   66.9450   -2.0740 C.ar  196  HIS196      0.1154
     70  CE1       19.9390   67.1420   -4.1850 C.ar  196  HIS196      0.1986
     71  NE2       20.1770   66.4590   -3.0790 N.ar  196  HIS196     -0.2212
     72  N         21.4830   66.9390    1.7400 N.3   198  GLU198     -0.1231
     73  CA        21.3520   65.5160    2.0390 C.3   198  GLU198      0.1699
     74  C         20.7690   65.2440    3.4240 C.2   198  GLU198      0.2592
     75  O         20.7360   66.1280    4.2900 O.2   198  GLU198     -0.2718
     76  CB        22.7140   64.8320    1.9170 C.3   198  GLU198      0.0402
     77  CG        23.3920   65.0920    0.5990 C.3   198  GLU198      0.1161
     78  CD        22.5640   64.5840   -0.5640 C.2   198  GLU198      0.3649
     79  OE1       22.1010   63.4280   -0.4980 O.co2 198  GLU198     -0.2457
     80  OE2       22.3550   65.3490   -1.5250 O.co2 198  GLU198     -0.2457
     81  N         20.3050   64.0130    3.6190 N.am  199  ASP199     -0.1974
     82  CA        19.8260   63.5630    4.9200 C.3   199  ASP199      0.1709
     83  C         20.9030   63.7370    5.9770 C.2   199  ASP199      0.2293
     84  O         22.0570   63.3630    5.7670 O.2   199  ASP199     -0.2864
     85  CB        19.3760   62.1030    4.8600 C.3   199  ASP199      0.1436
     86  CG        18.0420   61.9370    4.1640 C.2   199  ASP199      0.3671
     87  OD1       17.3160   62.9440    4.0280 O.co2 199  ASP199     -0.2456
     88  OD2       17.7190   60.8020    3.7550 O.co2 199  ASP199     -0.2456
     89  N         27.6100   63.8930   -0.0530 N.3   204  SER204     -0.1217
     90  CA        27.2960   62.8970   -1.0660 C.3   204  SER204      0.1889
     91  C         28.4400   62.8700   -2.0610 C.2   204  SER204      0.2288
     92  O         29.1040   63.8840   -2.2970 O.2   204  SER204     -0.2866
     93  CB        25.9670   63.1870   -1.7730 C.3   204  SER204      0.2089
     94  OG        26.0850   64.2450   -2.7130 O.3   204  SER204     -0.2183
     95  N         29.1410   61.4930   -6.0530 N.3   206  ASN206     -0.1240
     96  CA        28.3530   61.2070   -7.2420 C.3   206  ASN206      0.1653
     97  C         29.2760   60.8720   -8.4000 C.2   206  ASN206      0.2266
     98  O         30.2230   61.6040   -8.6700 O.2   206  ASN206     -0.2867
     99  CB        27.4740   62.4060   -7.6140 C.3   206  ASN206      0.1155
    100  CG        26.6140   62.8910   -6.4590 C.2   206  ASN206      0.2627
    101  OD1       25.4050   62.6720   -6.4430 O.2   206  ASN206     -0.2716
    102  ND2       27.2330   63.5620   -5.4910 N.am  206  ASN206     -0.0877
    103  N         26.2710   65.7120  -16.7420 N.3   214  LYS214     -0.1245
    104  CA        25.2950   66.1680  -15.7680 C.3   214  LYS214      0.1561
    105  C         25.7200   67.5560  -15.3020 C.2   214  LYS214      0.2260
    106  O         26.8500   67.7540  -14.8470 O.2   214  LYS214     -0.2867
    107  CB        25.1980   65.1890  -14.5910 C.3   214  LYS214      0.0271
    108  CG        24.1690   65.5680  -13.5330 C.3   214  LYS214      0.0035
    109  CD        24.2700   64.6580  -12.3090 C.3   214  LYS214      0.0206
    110  CE        23.9320   63.2090  -12.6550 C.3   214  LYS214      0.1093
    111  NZ        22.4790   63.0380  -12.9460 N.3   214  LYS214     -0.1314
    112  N         25.6710   70.7080  -12.8660 N.3   216  TRP216     -0.1241
    113  CA        25.4810   70.9480  -11.4350 C.3   216  TRP216      0.1605
    114  C         25.4880   72.4240  -11.0450 C.2   216  TRP216      0.2264
    115  O         26.1990   73.2230  -11.6420 O.2   216  TRP216     -0.2867
    116  CB        26.5850   70.2570  -10.6350 C.3   216  TRP216      0.0550
    117  CG        26.5280   68.7740  -10.6280 C.ar  216  TRP216      0.0003
    118  CD1       26.8500   67.9340  -11.6540 C.ar  216  TRP216      0.0946
    119  CD2       26.1720   67.9400   -9.5200 C.ar  216  TRP216      0.0152
    120  NE1       26.6940   66.6260  -11.2590 N.ar  216  TRP216     -0.2442
    121  CE2       26.2770   66.6030   -9.9530 C.ar  216  TRP216      0.0810
    122  CE3       25.7570   68.1960   -8.2080 C.ar  216  TRP216      0.0012
    123  CZ2       25.9890   65.5230   -9.1200 C.ar  216  TRP216      0.0191
    124  CZ3       25.4710   67.1230   -7.3820 C.ar  216  TRP216      0.0001
    125  CH2       25.5920   65.8030   -7.8410 C.ar  216  TRP216      0.0015
    126  N         22.4470   71.9310   -3.5590 N.3   268  HIS268     -0.1241
    127  CA        22.8170   71.6800   -4.9320 C.3   268  HIS268      0.1621
    128  C         21.5930   71.3240   -5.7540 C.2   268  HIS268      0.2264
    129  O         20.5810   70.8640   -5.2310 O.2   268  HIS268     -0.2867
    130  CB        23.8830   70.5740   -5.0310 C.3   268  HIS268      0.0745
    131  CG        23.5260   69.3100   -4.3120 C.ar  268  HIS268      0.0817
    132  ND1       23.5680   69.1970   -2.9380 N.ar  268  HIS268     -0.2268
    133  CD2       23.1420   68.0970   -4.7770 C.ar  268  HIS268      0.1154
    134  CE1       23.2110   67.9760   -2.5870 C.ar  268  HIS268      0.1986
    135  NE2       22.9540   67.2860   -3.6840 N.ar  268  HIS268     -0.2212
    136  N         25.1820   57.4940   -6.9020 N.3   280  ALA280     -0.1231
    137  CA        25.5260   58.3580   -5.7770 C.3   280  ALA280      0.1694
    138  C         25.2890   57.6810   -4.4290 C.2   280  ALA280      0.2592
    139  O         24.4130   56.8300   -4.2970 O.2   280  ALA280     -0.2718
    140  CB        24.7380   59.6480   -5.8540 C.3   280  ALA280      0.0304
    141  N         26.0740   58.0690   -3.4300 N.am  281  VAL281     -0.1966
    142  CA        25.9050   57.5530   -2.0770 C.3   281  VAL281      0.1727
    143  C         26.2710   58.6330   -1.0550 C.2   281  VAL281      0.2616
    144  O         27.0750   59.5220   -1.3410 O.2   281  VAL281     -0.2715
    145  CB        26.7590   56.2820   -1.8480 C.3   281  VAL281      0.0290
    146  CG1       28.2310   56.6370   -1.7270 C.3   281  VAL281      0.0023
    147  CG2       26.2760   55.5160   -0.6180 C.3   281  VAL281      0.0023
    148  N         25.6520   58.5780    0.1230 N.am  282  ASN282     -0.1972
    149  CA        26.0080   59.4830    1.2100 C.3   282  ASN282      0.1688
    150  C         27.1880   58.9470    1.9910 C.2   282  ASN282      0.2292
    151  O         27.4270   57.7390    2.0150 O.2   282  ASN282     -0.2864
    152  CB        24.8340   59.6930    2.1730 C.3   282  ASN282      0.1181
    153  CG        23.6460   60.3570    1.5160 C.2   282  ASN282      0.2629
    154  OD1       22.5420   59.8160    1.5190 O.2   282  ASN282     -0.2716
    155  ND2       23.8640   61.5360    0.9460 N.am  282  ASN282     -0.0877
@<TRIPOS>BOND
     1   103   104    1
     2     1     2    1
     3   104   105    1
     4   104   107    1
     5   105   106    2
     6     2     3    1
     7     2     5    1
     8   107   108    1
     9     3     4    2
    10     5     6    1
    11     7     9   ar
    12     7     6   ar
    13    42    41    2
    14     9    11   ar
    15     6     8   ar
    16   108   109    1
    17    41    40    1
    18   111   110    1
    19   112   113    1
    20    11    12    1
    21    11    10   ar
    22     8    10   ar
    23   110   109    1
    24    40    43    1
    25    40    39    1
    26   118   120   ar
    27   118   117   ar
    28   115   114    2
    29   113   114    1
    30   113   116    1
    31    43    44    1
    32   120   121   ar
    33    51    52    1
    34    59    57   ar
    35    59    61   ar
    36   116   117    1
    37   117   119   ar
    38    57    56   ar
    39   121   119   ar
    40   121   123   ar
    41    61    60   ar
    42    44    46   ar
    43    44    45   ar
    44    52    55    1
    45    52    53    1
    46   119   122   ar
    47    46    48   ar
    48    56    55    1
    49    56    58   ar
    50    54    53    2
    51   123   125   ar
    52    45    47   ar
    53    98    97    2
    54    60    58   ar
    55    13    14    1
    56    97    96    1
    57   122   124   ar
    58    48    49   ar
    59   125   124   ar
    60    99    96    1
    61    99   100    1
    62    47    49   ar
    63    28    27    2
    64    15    14    1
    65    15    16    2
    66    96    95    1
    67    27    26    1
    68    14    17    1
    69    49    50    1
    70   136   137    1
    71   100   101    2
    72   100   102   am
    73    17    18    1
    74    18    19   ar
    75    18    20   ar
    76   140   137    1
    77   137   138    1
    78   128   129    2
    79   128   127    1
    80    26    29    1
    81    26    25    1
    82    29    30    1
    83   130   127    1
    84   130   131    1
    85   127   126    1
    86   133   131   ar
    87   133   135   ar
    88   138   139    2
    89   138   141   am
    90   131   132   ar
    91    70    68   ar
    92    70    71   ar
    93    35    37   ar
    94    35    32   ar
    95    68    67   ar
    96    30    32   ar
    97    30    31   ar
    98   135   134   ar
    99    37    38   ar
   100   141   142    1
   101    32    34   ar
   102    71    69   ar
   103   132   134   ar
   104    62    63    1
   105    94    93    1
   106    67    69   ar
   107    67    66    1
   108    31    33   ar
   109    92    91    2
   110   142   145    1
   111   142   143    1
   112    91    90    1
   113    38    36   ar
   114    34    33   ar
   115    34    36   ar
   116    66    63    1
   117   145   146    1
   118   145   147    1
   119    93    90    1
   120    63    64    1
   121    65    64    2
   122    80    78   ar
   123   144   143    2
   124    90    89    1
   125   143   148   am
   126    78    79   ar
   127    78    77    1
   128   148   149    1
   129    77    76    1
   130   155   153   am
   131   149   150    1
   132   149   152    1
   133    24    23    2
   134    22    23    1
   135    22    21    1
   136   153   154    2
   137   153   152    1
   138    72    73    1
   139    76    73    1
   140   150   151    2
   141    73    74    1
   142    74    81   am
   143    74    75    2
   144    81    82    1
   145    88    86   ar
   146    87    86   ar
   147    86    85    1
   148    85    82    1
   149    82    83    1
   150    84    83    2
