@<TRIPOS>MOLECULE
tmp/5fwnA01.pdb
 82 78 0 0 0
SMALL
GASTEIGER

@<TRIPOS>ATOM
      1  N        -17.3710    2.3300   26.2300 N.3    14  MET14      -0.1245
      2  CA       -18.1580    1.8160   25.1030 C.3    14  MET14       0.1570
      3  C        -19.3580    2.6760   24.6780 C.2    14  MET14       0.2261
      4  O        -19.5300    3.0250   23.4910 O.2    14  MET14      -0.2867
      5  CB       -18.5870    0.3850   25.3920 C.3    14  MET14       0.0387
      6  CG       -19.1350   -0.3480   24.1770 C.3    14  MET14       0.0595
      7  SD       -17.9680   -0.5190   22.8130 S.3    14  MET14      -0.1393
      8  CE       -17.0610   -1.9560   23.2840 C.3    14  MET14       0.0692
      9  N        -21.1290   -6.4770   21.1150 N.3   119  ILE119     -0.1231
     10  CA       -20.1060   -5.6890   20.4530 C.3   119  ILE119      0.1692
     11  C        -18.8360   -6.5210   20.4010 C.2   119  ILE119      0.2592
     12  O        -18.2920   -6.8410   21.4450 O.2   119  ILE119     -0.2718
     13  CB       -19.8420   -4.3870   21.2120 C.3   119  ILE119      0.0266
     14  CG1      -21.1110   -3.5560   21.2670 C.3   119  ILE119      0.0019
     15  CG2      -18.7820   -3.5580   20.4920 C.3   119  ILE119      0.0020
     16  CD1      -21.1270   -2.5130   22.3410 C.3   119  ILE119      0.0001
     17  N        -18.3380   -6.8180   19.1930 N.am  120  MET120     -0.1965
     18  CA       -17.2150   -7.7400   19.0000 C.3   120  MET120      0.1736
     19  C        -15.8210   -7.1100   18.8330 C.2   120  MET120      0.2616
     20  O        -14.8550   -7.7630   18.4670 O.2   120  MET120     -0.2715
     21  CB       -17.5530   -8.6720   17.8220 C.3   120  MET120      0.0427
     22  CG       -18.8950   -9.3990   17.9600 C.3   120  MET120      0.0599
     23  SD       -19.1560  -10.2130   19.5780 S.3   120  MET120     -0.1393
     24  CE       -17.8010  -11.4030   19.5400 C.3   120  MET120      0.0692
     25  N        -15.7120   -5.8350   19.1240 N.am  121  VAL121     -0.1964
     26  CA       -14.4790   -5.1160   18.9940 C.3   121  VAL121      0.1712
     27  C        -14.3890   -4.2220   20.2120 C.2   121  VAL121      0.2458
     28  O        -15.3980   -3.9810   20.8660 O.2   121  VAL121     -0.2730
     29  CB       -14.4190   -4.2800   17.6870 C.3   121  VAL121      0.0289
     30  CG1      -14.4720   -5.1870   16.4940 C.3   121  VAL121      0.0023
     31  CG2      -15.5380   -3.2290   17.6270 C.3   121  VAL121      0.0023
     32  N        -13.1870   -3.7070   20.5030 N.am  122  PRO122     -0.2727
     33  CA       -12.9900   -2.6660   21.5220 C.3   122  PRO122      0.1402
     34  C        -13.6190   -1.3160   21.1540 C.2   122  PRO122      0.2269
     35  O        -13.8750   -1.0270   19.9460 O.2   122  PRO122     -0.2865
     36  CB       -11.4450   -2.4970   21.5850 C.3   122  PRO122      0.0296
     37  CG       -10.8750   -3.7090   20.9410 C.3   122  PRO122      0.0237
     38  CD       -11.9150   -4.1860   19.9460 C.3   122  PRO122      0.0939
     39  N        -21.6170  -14.6550   21.5290 N.3   169  ASN169     -0.1240
     40  CA       -20.5460  -13.8180   22.0930 C.3   169  ASN169      0.1653
     41  C        -19.7690  -14.5290   23.1890 C.2   169  ASN169      0.2266
     42  O        -18.5110  -14.5460   23.1660 O.2   169  ASN169     -0.2867
     43  CB       -21.1210  -12.5170   22.6600 C.3   169  ASN169      0.1155
     44  CG       -20.0320  -11.5750   23.1360 C.2   169  ASN169      0.2627
     45  OD1      -18.9970  -11.4000   22.4710 O.2   169  ASN169     -0.2716
     46  ND2      -20.2120  -11.0400   24.2780 N.am  169  ASN169     -0.0877
     47  N        -15.8440  -15.6510   22.8530 N.3   173  LEU173     -0.1245
     48  CA       -14.8890  -15.1360   23.7950 C.3   173  LEU173      0.1561
     49  C        -14.2360  -16.2320   24.6500 C.2   173  LEU173      0.2260
     50  O        -13.0450  -16.1660   24.9700 O.2   173  LEU173     -0.2867
     51  CB       -15.5420  -14.0460   24.6580 C.3   173  LEU173      0.0270
     52  CG       -16.0130  -12.7750   24.0030 C.3   173  LEU173      0.0019
     53  CD1      -16.7780  -11.8330   24.9730 C.3   173  LEU173      0.0001
     54  CD2      -14.8310  -12.0150   23.4210 C.3   173  LEU173      0.0001
     55  N        -11.4930  -17.3890   22.6280 N.3   176  MET176     -0.1230
     56  CA       -10.4620  -16.3550   22.6550 C.3   176  MET176      0.1702
     57  C         -9.5740  -16.4560   23.8920 C.2   176  MET176      0.2592
     58  O         -8.3380  -16.4270   23.7580 O.2   176  MET176     -0.2718
     59  CB       -11.0740  -14.9430   22.5790 C.3   176  MET176      0.0401
     60  CG       -10.0440  -13.8040   22.5640 C.3   176  MET176      0.0596
     61  SD       -10.8520  -12.1940   22.6150 S.3   176  MET176     -0.1393
     62  CE       -11.1750  -12.2140   24.3990 C.3   176  MET176      0.0692
     63  N        -10.1860  -16.5460   25.0880 N.am  177  TYR177     -0.1976
     64  CA        -9.3760  -16.6400   26.2920 C.3   177  TYR177      0.1639
     65  C         -8.4500  -17.8340   26.2710 C.2   177  TYR177      0.2290
     66  O         -7.2470  -17.6870   26.5150 O.2   177  TYR177     -0.2864
     67  CB       -10.2110  -16.5890   27.5840 C.3   177  TYR177      0.0560
     68  CG       -10.8550  -15.2510   27.7600 C.ar  177  TYR177     -0.0198
     69  CD1      -10.0880  -14.1070   28.0330 C.ar  177  TYR177     -0.0009
     70  CD2      -12.2090  -15.0940   27.6820 C.ar  177  TYR177     -0.0009
     71  CE1      -10.6910  -12.8580   28.1990 C.ar  177  TYR177      0.0417
     72  CE2      -12.8080  -13.8330   27.8140 C.ar  177  TYR177      0.0417
     73  CZ       -12.0630  -12.7320   28.0870 C.ar  177  TYR177      0.1957
     74  OH       -12.6760  -11.5020   28.2500 O.3   177  TYR177     -0.2866
     75  N         -5.5770  -17.1860   23.6210 N.3   180  MET180     -0.1245
     76  CA        -4.6130  -16.2240   24.0830 C.3   180  MET180      0.1570
     77  C         -3.7100  -16.8500   25.1380 C.2   180  MET180      0.2261
     78  O         -2.5450  -16.5540   25.1980 O.2   180  MET180     -0.2867
     79  CB        -5.2950  -14.9870   24.6660 C.3   180  MET180      0.0387
     80  CG        -5.9830  -14.1390   23.6180 C.3   180  MET180      0.0595
     81  SD        -6.4790  -12.5660   24.3020 S.3   180  MET180     -0.1393
     82  CE        -7.6230  -13.1300   25.5240 C.3   180  MET180      0.0692
@<TRIPOS>BOND
     1    30    29    1
     2    31    29    1
     3    29    26    1
     4    21    22    1
     5    21    18    1
     6    22    23    1
     7    20    19    2
     8    19    18    1
     9    19    25   am
    10    26    25    1
    11    26    27    1
    12    18    17    1
    13    17    11   am
    14    24    23    1
    15    38    32    1
    16    38    37    1
    17    35    34    2
    18    27    32   am
    19    27    28    2
    20    11    10    1
    21    11    12    2
    22    10     9    1
    23    10    13    1
    24    15    13    1
    25    32    33    1
    26    37    36    1
    27    34    33    1
    28    13    14    1
    29    14    16    1
    30    33    36    1
    31    39    40    1
    32    40    43    1
    33    40    41    1
    34    45    44    2
    35    60    59    1
    36    60    61    1
    37    59    56    1
    38    61    62    1
    39    55    56    1
    40    56    57    1
    41    43    44    1
    42     7     8    1
    43     7     6    1
    44    47    48    1
    45    44    46   am
    46    42    41    2
    47    54    52    1
    48     4     3    2
    49    80    81    1
    50    80    79    1
    51    75    76    1
    52    58    57    2
    53    48    49    1
    54    48    51    1
    55    57    63   am
    56    52    51    1
    57    52    53    1
    58    76    79    1
    59    76    77    1
    60     6     5    1
    61    81    82    1
    62    49    50    2
    63     3     2    1
    64    63    64    1
    65     2     5    1
    66     2     1    1
    67    77    78    2
    68    65    64    1
    69    65    66    2
    70    64    67    1
    71    67    68    1
    72    70    68   ar
    73    70    72   ar
    74    68    69   ar
    75    72    73   ar
    76    69    71   ar
    77    73    71   ar
    78    73    74    1
