@<TRIPOS>MOLECULE
tmp/5fwnA00.pdb
 149 145 0 0 0
SMALL
GASTEIGER

@<TRIPOS>ATOM
      1  N        -25.9530    5.2200   29.0510 N.3    10  GLY10      -0.1210
      2  CA       -24.6860    4.6310   29.4840 C.3    10  GLY10       0.1956
      3  C        -23.5150    5.2240   28.7280 C.2    10  GLY10       0.2612
      4  O        -23.3950    5.0120   27.5270 O.2    10  GLY10      -0.2717
      5  N        -22.6260    5.9490   29.4110 N.am   11  LEU11      -0.1965
      6  CA       -21.5580    6.6920   28.7690 C.3    11  LEU11       0.1728
      7  C        -20.2110    6.3160   29.3340 C.2    11  LEU11       0.2617
      8  O        -19.2990    7.1680   29.4060 O.2    11  LEU11      -0.2715
      9  CB       -21.7830    8.1870   28.9110 C.3    11  LEU11       0.0311
     10  CG       -23.0160    8.7510   28.2630 C.3    11  LEU11       0.0022
     11  CD1      -23.0540   10.2700   28.5310 C.3    11  LEU11       0.0001
     12  CD2      -23.0370    8.5000   26.7840 C.3    11  LEU11       0.0001
     13  N        -20.0680    5.0610   29.7450 N.am   12  GLY12      -0.1941
     14  CA       -18.7440    4.4870   29.9040 C.3    12  GLY12       0.1998
     15  C        -17.9950    4.4650   28.5480 C.2    12  GLY12       0.2481
     16  O        -18.4450    5.0540   27.5570 O.2    12  GLY12      -0.2729
     17  N        -16.8050    3.8560   28.5290 N.am   13  PRO13      -0.2715
     18  CA       -15.9450    3.9630   27.3310 C.3    13  PRO13       0.1536
     19  C        -16.6520    3.4140   26.0870 C.2    13  PRO13       0.2598
     20  O        -16.5860    4.0170   25.0300 O.2    13  PRO13      -0.2715
     21  CB       -14.7100    3.1300   27.7170 C.3    13  PRO13       0.0310
     22  CG       -14.6260    3.2610   29.2180 C.3    13  PRO13       0.0237
     23  CD       -16.0640    3.3650   29.7130 C.3    13  PRO13       0.0939
     24  N        -17.3710    2.3300   26.2300 N.am   14  MET14      -0.1964
     25  CA       -18.1580    1.8160   25.1030 C.3    14  MET14       0.1736
     26  C        -19.3580    2.6760   24.6780 C.2    14  MET14       0.2617
     27  O        -19.5300    3.0250   23.4910 O.2    14  MET14      -0.2715
     28  CB       -18.5870    0.3850   25.3920 C.3    14  MET14       0.0427
     29  CG       -19.1350   -0.3480   24.1770 C.3    14  MET14       0.0599
     30  SD       -17.9680   -0.5190   22.8130 S.3    14  MET14      -0.1393
     31  CE       -17.0610   -1.9560   23.2840 C.3    14  MET14       0.0692
     32  N        -20.2110    3.0140   25.6330 N.am   15  GLY15      -0.1955
     33  CA       -21.3050    3.8850   25.3310 C.3    15  GLY15       0.1869
     34  C        -20.8940    5.2080   24.7320 C.2    15  GLY15       0.2309
     35  O        -21.5970    5.7360   23.8540 O.2    15  GLY15      -0.2863
     36  N        -27.4220   10.0480   27.9450 N.3    32  TRP32      -0.1227
     37  CA       -27.7610    9.9850   29.3560 C.3    32  TRP32       0.1737
     38  C        -26.7700    9.0880   30.0530 C.2    32  TRP32       0.2595
     39  O        -26.3490    8.0680   29.4980 O.2    32  TRP32      -0.2718
     40  CB       -29.1600    9.4220   29.5600 C.3    32  TRP32       0.0564
     41  CG       -29.5510    9.3030   31.0110 C.ar   32  TRP32       0.0003
     42  CD1      -30.2080   10.2420   31.7490 C.ar   32  TRP32       0.0946
     43  CD2      -29.3500    8.1690   31.8960 C.ar   32  TRP32       0.0152
     44  NE1      -30.3980    9.7910   33.0260 N.ar   32  TRP32      -0.2442
     45  CE2      -29.8780    8.5280   33.1470 C.ar   32  TRP32       0.0810
     46  CE3      -28.7390    6.9060   31.7520 C.ar   32  TRP32       0.0012
     47  CZ2      -29.8670    7.6620   34.2540 C.ar   32  TRP32       0.0191
     48  CZ3      -28.7400    6.0230   32.8590 C.ar   32  TRP32       0.0001
     49  CH2      -29.2790    6.4330   34.1000 C.ar   32  TRP32       0.0015
     50  N        -26.4380    9.4580   31.2680 N.am   33  ASN33      -0.1960
     51  CA       -25.5950    8.6440   32.1440 C.3    33  ASN33       0.1819
     52  C        -25.9710    8.9500   33.5820 C.2    33  ASN33       0.2621
     53  O        -26.3000   10.0770   33.9060 O.2    33  ASN33      -0.2715
     54  CB       -24.1080    8.9570   31.9310 C.3    33  ASN33       0.1195
     55  CG       -23.1790    7.9550   32.6230 C.2    33  ASN33       0.2630
     56  OD1      -22.4450    8.2800   33.5560 O.2    33  ASN33      -0.2716
     57  ND2      -23.1920    6.7650   32.1690 N.am   33  ASN33      -0.0877
     58  N        -25.9090    7.9400   34.4380 N.am   34  ARG34      -0.1963
     59  CA       -26.2700    8.1170   35.8200 C.3    34  ARG34       0.1729
     60  C        -25.3400    9.1190   36.5520 C.2    34  ARG34       0.2616
     61  O        -25.8080   10.1290   37.1120 O.2    34  ARG34      -0.2715
     62  CB       -26.3180    6.7220   36.4820 C.3    34  ARG34       0.0348
     63  CG       -26.7830    6.5940   37.9190 C.3    34  ARG34       0.0492
     64  CD       -26.2770    5.2750   38.5800 C.3    34  ARG34       0.2205
     65  NE       -24.9150    5.3360   39.1130 N.pl3  34  ARG34      -0.0865
     66  CZ       -24.4910    6.2190   40.0560 C.cat  34  ARG34       0.5346
     67  NH1      -25.2860    7.1490   40.5730 N.pl3  34  ARG34       0.1354
     68  NH2      -23.2430    6.1920   40.5030 N.pl3  34  ARG34       0.1354
     69  N        -24.0450    8.8460   36.5170 N.am   35  SER35      -0.1950
     70  CA       -23.0240    9.7310   37.0840 C.3    35  SER35       0.1924
     71  C        -22.7010   10.9210   36.1880 C.2    35  SER35       0.2314
     72  O        -22.6410   10.7960   34.9420 O.2    35  SER35      -0.2863
     73  CB       -21.7450    8.9540   37.3690 C.3    35  SER35       0.2116
     74  OG       -22.0140    8.0350   38.4160 O.3    35  SER35      -0.2180
     75  N        -19.5400   12.5150   32.4050 N.3    38  LYS38      -0.1245
     76  CA       -19.3050   11.7400   31.1730 C.3    38  LYS38       0.1561
     77  C        -19.9560   12.2920   29.8890 C.2    38  LYS38       0.2260
     78  O        -19.5260   11.9480   28.7920 O.2    38  LYS38      -0.2867
     79  CB       -19.6620   10.3020   31.4470 C.3    38  LYS38       0.0271
     80  CG       -18.6270    9.6960   32.3760 C.3    38  LYS38       0.0035
     81  CD       -19.0830    8.4140   33.0080 C.3    38  LYS38       0.0206
     82  CE       -18.0730    7.9450   34.0460 C.3    38  LYS38       0.1093
     83  NZ       -18.6540    6.7980   34.7840 N.3    38  LYS38      -0.1314
     84  N        -26.1550    0.7400   26.9150 N.3    66  CYS66      -0.1221
     85  CA       -24.8670    0.1650   27.1820 C.3    66  CYS66       0.1808
     86  C        -24.4710    0.4130   28.6260 C.2    66  CYS66       0.2601
     87  O        -23.7180    1.3400   28.9550 O.2    66  CYS66      -0.2717
     88  CB       -23.8070    0.6660   26.1760 C.3    66  CYS66       0.0970
     89  SG       -22.2830   -0.3620   26.2920 S.3    66  CYS66      -0.0800
     90  N        -25.0010   -0.4510   29.4840 N.am   67  LEU67      -0.1965
     91  CA       -24.7750   -0.3940   30.9180 C.3    67  LEU67       0.1728
     92  C        -24.0650   -1.6390   31.4090 C.2    67  LEU67       0.2616
     93  O        -23.8780   -2.5960   30.6480 O.2    67  LEU67      -0.2715
     94  CB       -26.1380   -0.2270   31.5900 C.3    67  LEU67       0.0311
     95  CG       -26.8870    1.0430   31.1820 C.3    67  LEU67       0.0022
     96  CD1      -28.3040    1.0040   31.6940 C.3    67  LEU67       0.0001
     97  CD2      -26.1710    2.2890   31.6890 C.3    67  LEU67       0.0001
     98  N        -23.6760   -1.6380   32.6870 N.am   68  ALA68      -0.1963
     99  CA       -22.8640   -2.7330   33.2810 C.3    68  ALA68       0.1728
    100  C        -23.5240   -4.0920   33.2180 C.2    68  ALA68       0.2616
    101  O        -22.9470   -5.0420   32.7240 O.2    68  ALA68      -0.2715
    102  CB       -22.5390   -2.4160   34.7260 C.3    68  ALA68       0.0334
    103  N        -24.7450   -4.1880   33.6850 N.am   69  ASP69      -0.1971
    104  CA       -25.4810   -5.4550   33.6500 C.3    69  ASP69       0.1709
    105  C        -26.9780   -5.2220   33.5980 C.2    69  ASP69       0.2293
    106  O        -27.4370   -4.0990   33.4570 O.2    69  ASP69      -0.2864
    107  CB       -25.1090   -6.3160   34.8780 C.3    69  ASP69       0.1436
    108  CG       -25.3710   -5.6130   36.2270 C.2    69  ASP69       0.3671
    109  OD1      -26.1490   -4.6300   36.3310 O.co2  69  ASP69      -0.2456
    110  OD2      -24.7590   -6.0680   37.2090 O.co2  69  ASP69      -0.2456
    111  N        -29.2840   -5.6730   36.0260 N.3    71  ASP71      -0.1225
    112  CA       -29.7410   -4.9460   37.1690 C.3    71  ASP71       0.1805
    113  C        -29.6570   -3.4590   36.8760 C.2    71  ASP71       0.2597
    114  O        -30.5920   -2.7160   37.2130 O.2    71  ASP71      -0.2718
    115  CB       -28.9430   -5.3460   38.4090 C.3    71  ASP71       0.1424
    116  CG       -29.1700   -6.8420   38.8100 C.2    71  ASP71       0.3668
    117  OD1      -30.2280   -7.4560   38.4840 O.co2  71  ASP71      -0.2456
    118  OD2      -28.2530   -7.4200   39.4200 O.co2  71  ASP71      -0.2456
    119  N        -28.5620   -3.0430   36.2260 N.am   72  ALA72      -0.1979
    120  CA       -28.3080   -1.6170   35.9250 C.3    72  ALA72       0.1597
    121  C        -29.3410   -1.1350   34.9340 C.2    72  ALA72       0.2287
    122  O        -29.8290   -0.0270   35.0450 O.2    72  ALA72      -0.2864
    123  CB       -26.9030   -1.4210   35.3720 C.3    72  ALA72       0.0319
    124  N        -32.8180   -0.7340   36.9260 N.3    75  SER75      -0.1202
    125  CA       -32.7750    0.4070   37.7930 C.3    75  SER75       0.2020
    126  C        -32.7490    1.7430   37.0170 C.2    75  SER75       0.2618
    127  O        -33.4900    2.6600   37.3680 O.2    75  SER75      -0.2717
    128  CB       -31.5980    0.2970   38.7520 C.3    75  SER75       0.2103
    129  OG       -30.4590    0.7630   38.1120 O.3    75  SER75      -0.2182
    130  N        -31.9140    1.8340   35.9720 N.am   76  ALA76      -0.1979
    131  CA       -31.8620    2.9810   35.0930 C.3    76  ALA76       0.1597
    132  C        -33.1850    3.2440   34.4000 C.2    76  ALA76       0.2287
    133  O        -33.6510    4.3860   34.3860 O.2    76  ALA76      -0.2864
    134  CB       -30.7800    2.8250   34.0300 C.3    76  ALA76       0.0319
    135  N        -25.4150   -4.9170   26.3900 N.3    93  ASN93      -0.1240
    136  CA       -24.5820   -5.5850   27.3730 C.3    93  ASN93       0.1653
    137  C        -25.2420   -6.5840   28.2460 C.2    93  ASN93       0.2266
    138  O        -24.9840   -6.5530   29.4310 O.2    93  ASN93      -0.2867
    139  CB       -23.8550   -4.5810   28.2550 C.3    93  ASN93       0.1155
    140  CG       -22.5690   -5.1650   28.8730 C.2    93  ASN93       0.2627
    141  OD1      -21.9680   -6.0830   28.3280 O.2    93  ASN93      -0.2716
    142  ND2      -22.1570   -4.6310   30.0040 N.am   93  ASN93      -0.0877
    143  N        -13.8490   -0.4680   22.1680 N.3   123  PRO123     -0.2116
    144  CA       -14.4500    0.8570   21.9670 C.3   123  PRO123      0.1372
    145  C        -13.8230    1.6620   20.8430 C.2   123  PRO123      0.2244
    146  O        -14.5310    2.1580   19.9710 O.2   123  PRO123     -0.2868
    147  CB       -14.1890    1.5370   23.3030 C.3   123  PRO123      0.0268
    148  CG       -14.3660    0.4240   24.2850 C.3   123  PRO123      0.0207
    149  CD       -13.7660   -0.7960   23.6120 C.3   123  PRO123      0.0892
@<TRIPOS>BOND
     1   146   145    2
     2   145   144    1
     3   144   143    1
     4   144   147    1
     5   143   149    1
     6    30    31    1
     7    30    29    1
     8   147   148    1
     9    27    26    2
    10   149   148    1
    11    35    34    2
    12    29    28    1
    13    26    25    1
    14    26    32   am
    15    34    33    1
    16    20    19    2
    17    25    28    1
    18    25    24    1
    19    33    32    1
    20    19    24   am
    21    19    18    1
    22    88    89    1
    23    88    85    1
    24   135   136    1
    25    12    10    1
    26    84    85    1
    27    85    86    1
    28    18    21    1
    29    18    17    1
    30   136   137    1
    31   136   139    1
    32     4     3    2
    33    16    15    2
    34    21    22    1
    35    36    37    1
    36   137   138    2
    37   139   140    1
    38    10    11    1
    39    10     9    1
    40   141   140    2
    41    17    15   am
    42    17    23    1
    43    15    14    1
    44    86    87    2
    45    86    90   am
    46     3     5   am
    47     3     2    1
    48     6     9    1
    49     6     7    1
    50     6     5    1
    51    78    77    2
    52   140   142   am
    53     1     2    1
    54    22    23    1
    55     7     8    2
    56     7    13   am
    57    37    40    1
    58    37    38    1
    59    90    91    1
    60    39    38    2
    61    40    41    1
    62    13    14    1
    63    77    76    1
    64    38    50   am
    65    93    92    2
    66    91    92    1
    67    91    94    1
    68    41    42   ar
    69    41    43   ar
    70    76    79    1
    71    76    75    1
    72    95    94    1
    73    95    97    1
    74    95    96    1
    75    50    51    1
    76    92    98   am
    77    79    80    1
    78    42    44   ar
    79    46    43   ar
    80    46    48   ar
    81    43    45   ar
    82    54    51    1
    83    54    55    1
    84    51    52    1
    85    57    55   am
    86    80    81    1
    87    55    56    2
    88    98    99    1
    89   101   100    2
    90    48    49   ar
    91    81    82    1
    92    44    45   ar
    93    45    47   ar
    94   100    99    1
    95   100   103   am
    96    99   102    1
    97   106   105    2
    98    52    53    2
    99    52    58   am
   100   105   104    1
   101   104   103    1
   102   104   107    1
   103   134   131    1
   104    82    83    1
   105    49    47   ar
   106   133   132    2
   107   132   131    1
   108    58    59    1
   109   107   108    1
   110   121   122    2
   111   121   120    1
   112    72    71    2
   113   131   130    1
   114   123   120    1
   115    59    62    1
   116    59    60    1
   117   120   119    1
   118   130   126   am
   119   111   112    1
   120    71    70    1
   121   119   113   am
   122   108   109   ar
   123   108   110   ar
   124    62    63    1
   125    69    60   am
   126    69    70    1
   127    60    61    2
   128   113   112    1
   129   113   114    2
   130   124   125    1
   131   126   127    2
   132   126   125    1
   133    70    73    1
   134   112   115    1
   135    73    74    1
   136   125   128    1
   137    63    64    1
   138   129   128    1
   139   115   116    1
   140   117   116   ar
   141    64    65    1
   142   116   118   ar
   143    65    66    2
   144    66    68    1
   145    66    67    1
