@<TRIPOS>MOLECULE
tmp/5fwrH00.pdb
 130 124 0 0 0
SMALL
GASTEIGER

@<TRIPOS>ATOM
      1  N         -9.6700  -13.9340  -64.1160 N.3     1  PHE1       -0.1241
      2  CA        -8.6600  -15.0330  -64.1830 C.3     1  PHE1        0.1605
      3  C         -9.1490  -16.2220  -63.4000 C.2     1  PHE1        0.2264
      4  O         -9.4060  -16.1490  -62.1990 O.2     1  PHE1       -0.2867
      5  CB        -7.3090  -14.6000  -63.6290 C.3     1  PHE1        0.0534
      6  CG        -6.2510  -15.6860  -63.6670 C.ar    1  PHE1       -0.0203
      7  CD1       -6.1350  -16.6140  -62.6340 C.ar    1  PHE1       -0.0042
      8  CD2       -5.3520  -15.7610  -64.7330 C.ar    1  PHE1       -0.0042
      9  CE1       -5.1450  -17.5950  -62.6630 C.ar    1  PHE1       -0.0003
     10  CE2       -4.3630  -16.7300  -64.7700 C.ar    1  PHE1       -0.0003
     11  CZ        -4.2500  -17.6490  -63.7290 C.ar    1  PHE1       -0.0000
     12  N        -12.5910  -17.6590  -59.7440 N.3    13  ILE13      -0.1231
     13  CA       -12.2020  -16.3050  -59.3460 C.3    13  ILE13       0.1692
     14  C        -11.8830  -16.2530  -57.8630 C.2    13  ILE13       0.2592
     15  O        -12.6370  -16.7680  -57.0380 O.2    13  ILE13      -0.2718
     16  CB       -13.3280  -15.3030  -59.6930 C.3    13  ILE13       0.0266
     17  CG1      -13.3830  -15.0480  -61.2220 C.3    13  ILE13       0.0019
     18  CG2      -13.1830  -14.0010  -58.8660 C.3    13  ILE13       0.0020
     19  CD1      -14.6280  -14.2350  -61.7290 C.3    13  ILE13       0.0001
     20  N        -10.7830  -15.6110  -57.5020 N.am   14  GLY14      -0.1957
     21  CA       -10.4400  -15.4360  -56.1070 C.3    14  GLY14       0.1869
     22  C         -9.5210  -16.4900  -55.5420 C.2    14  GLY14       0.2309
     23  O         -9.0000  -16.3050  -54.4420 O.2    14  GLY14      -0.2863
     24  N         -7.9950  -15.4260  -69.1150 N.3    46  ASN46      -0.1225
     25  CA        -8.2310  -14.0610  -68.6660 C.3    46  ASN46       0.1785
     26  C         -9.7120  -13.7720  -68.8400 C.2    46  ASN46       0.2597
     27  O        -10.2920  -14.0880  -69.8870 O.2    46  ASN46      -0.2718
     28  CB        -7.3580  -13.0810  -69.4590 C.3    46  ASN46       0.1169
     29  CG        -7.5070  -11.6340  -68.9980 C.2    46  ASN46       0.2627
     30  OD1       -8.6150  -11.1480  -68.8290 O.2    46  ASN46      -0.2716
     31  ND2       -6.3700  -10.9400  -68.7820 N.am   46  ASN46      -0.0877
     32  N        -10.3320  -13.2270  -67.7990 N.am   47  ASP47      -0.1960
     33  CA       -11.7650  -12.9930  -67.8360 C.3    47  ASP47       0.1840
     34  C        -12.1440  -11.6210  -68.3750 C.2    47  ASP47       0.2622
     35  O        -13.2600  -11.4640  -68.8830 O.2    47  ASP47      -0.2715
     36  CB       -12.3670  -13.1990  -66.4430 C.3    47  ASP47       0.1450
     37  CG       -12.8330  -14.6330  -66.2380 C.2    47  ASP47       0.3671
     38  OD1      -13.3230  -15.2250  -67.2180 O.co2  47  ASP47      -0.2456
     39  OD2      -12.7160  -15.1630  -65.1190 O.co2  47  ASP47      -0.2456
     40  N        -11.2560  -10.6450  -68.3220 N.am   48  TYR48      -0.1974
     41  CA       -11.6210   -9.3480  -68.8910 C.3    48  TYR48       0.1639
     42  C        -10.4850   -8.7770  -69.7240 C.2    48  TYR48       0.2290
     43  O        -10.0700   -7.6330  -69.5050 O.2    48  TYR48      -0.2864
     44  CB       -12.0150   -8.3660  -67.7880 C.3    48  TYR48       0.0560
     45  CG       -12.7210   -7.1150  -68.2720 C.ar   48  TYR48      -0.0198
     46  CD1      -13.1270   -6.9760  -69.6000 C.ar   48  TYR48      -0.0009
     47  CD2      -13.0010   -6.0810  -67.3910 C.ar   48  TYR48      -0.0009
     48  CE1      -13.7670   -5.8480  -70.0320 C.ar   48  TYR48       0.0417
     49  CE2      -13.6480   -4.9290  -67.8210 C.ar   48  TYR48       0.0417
     50  CZ       -14.0290   -4.8210  -69.1350 C.ar   48  TYR48       0.1957
     51  OH       -14.6740   -3.6930  -69.5670 O.3    48  TYR48      -0.2866
     52  N         -9.5590   -5.0670  -70.9400 N.3    51  THR51      -0.1203
     53  CA        -9.2420   -3.9570  -70.0470 C.3    51  THR51       0.1994
     54  C         -8.1190   -4.3260  -69.0750 C.2    51  THR51       0.2617
     55  O         -7.2690   -3.4950  -68.7540 O.2    51  THR51      -0.2717
     56  CB       -10.5270   -3.5330  -69.3040 C.3    51  THR51       0.1784
     57  OG1      -11.4170   -2.8900  -70.2260 O.3    51  THR51      -0.2211
     58  CG2      -10.2470   -2.5890  -68.1490 C.3    51  THR51       0.0376
     59  N         -8.0960   -5.5710  -68.6240 N.am   52  ILE52      -0.1979
     60  CA        -7.2150   -6.0290  -67.5590 C.3    52  ILE52       0.1595
     61  C         -6.1880   -6.9960  -68.1410 C.2    52  ILE52       0.2287
     62  O         -6.5020   -7.8340  -68.9940 O.2    52  ILE52      -0.2864
     63  CB        -8.0100   -6.7010  -66.4240 C.3    52  ILE52       0.0276
     64  CG1       -9.0210   -5.7200  -65.8560 C.3    52  ILE52       0.0022
     65  CG2       -7.0430   -7.2890  -65.3300 C.3    52  ILE52       0.0022
     66  CD1       -9.8550   -6.1760  -64.6970 C.3    52  ILE52       0.0001
     67  N         -3.7210   -9.9320  -66.6980 N.3    54  ASP54      -0.1239
     68  CA        -3.4450  -10.8300  -65.5720 C.3    54  ASP54       0.1674
     69  C         -1.9720  -11.2340  -65.5530 C.2    54  ASP54       0.2266
     70  O         -1.4040  -11.5950  -66.5860 O.2    54  ASP54      -0.2867
     71  CB        -4.3060  -12.1030  -65.6480 C.3    54  ASP54       0.1410
     72  CG        -5.8250  -11.8160  -65.5320 C.2    54  ASP54       0.3668
     73  OD1       -6.2720  -11.2820  -64.5190 O.co2  54  ASP54      -0.2456
     74  OD2       -6.5780  -12.1370  -66.4460 O.co2  54  ASP54      -0.2456
     75  N         -1.7290  -15.1190  -58.8310 N.3   133  GLN133     -0.1245
     76  CA        -2.2440  -14.2740  -59.8940 C.3   133  GLN133      0.1566
     77  C         -2.5030  -12.8710  -59.3570 C.2   133  GLN133      0.2260
     78  O         -3.0770  -12.7040  -58.2750 O.2   133  GLN133     -0.2867
     79  CB        -3.5300  -14.8570  -60.4870 C.3   133  GLN133      0.0367
     80  CG        -4.1710  -13.9730  -61.5490 C.3   133  GLN133      0.0905
     81  CD        -5.5530  -13.4910  -61.1330 C.2   133  GLN133      0.2608
     82  OE1       -6.2220  -14.1140  -60.3050 O.2   133  GLN133     -0.2717
     83  NE2       -5.9870  -12.3770  -61.7090 N.am  133  GLN133     -0.0878
     84  N         -3.0110   -8.5340  -61.2280 N.3   135  ASN135     -0.1240
     85  CA        -3.4590   -7.8050  -62.4160 C.3   135  ASN135      0.1653
     86  C         -2.8950   -6.3850  -62.3910 C.2   135  ASN135      0.2266
     87  O         -2.1660   -6.0030  -61.4660 O.2   135  ASN135     -0.2867
     88  CB        -4.9820   -7.7530  -62.4700 C.3   135  ASN135      0.1155
     89  CG        -5.5660   -7.1180  -61.2420 C.2   135  ASN135      0.2627
     90  OD1       -5.1810   -5.9910  -60.8340 O.2   135  ASN135     -0.2716
     91  ND2       -6.4870   -7.8430  -60.6080 N.am  135  ASN135     -0.0877
     92  N         -5.1090   -3.8340  -62.5090 N.3   137  TYR137     -0.1227
     93  CA        -6.4290   -3.2670  -62.3450 C.3   137  TYR137      0.1736
     94  C         -6.7490   -2.9650  -60.8980 C.2   137  TYR137      0.2595
     95  O         -7.3550   -1.9290  -60.6160 O.2   137  TYR137     -0.2718
     96  CB        -7.4770   -4.2420  -62.9090 C.3   137  TYR137      0.0548
     97  CG        -8.8790   -3.6900  -62.8380 C.ar  137  TYR137     -0.0200
     98  CD1       -9.2990   -2.7030  -63.7260 C.ar  137  TYR137     -0.0009
     99  CD2       -9.7760   -4.1250  -61.8660 C.ar  137  TYR137     -0.0009
    100  CE1      -10.5750   -2.1670  -63.6610 C.ar  137  TYR137      0.0417
    101  CE2      -11.0670   -3.5950  -61.7940 C.ar  137  TYR137      0.0417
    102  CZ       -11.4510   -2.6130  -62.6950 C.ar  137  TYR137      0.1957
    103  OH       -12.7110   -2.0710  -62.6430 O.3   137  TYR137     -0.2866
    104  N         -6.3490   -3.8300  -59.9690 N.am  138  ASN138     -0.1974
    105  CA        -6.6310   -3.5780  -58.5620 C.3   138  ASN138      0.1688
    106  C         -5.6860   -4.4090  -57.7040 C.2   138  ASN138      0.2292
    107  O         -4.6900   -4.9500  -58.1970 O.2   138  ASN138     -0.2864
    108  CB        -8.1120   -3.8680  -58.2460 C.3   138  ASN138      0.1181
    109  CG        -8.4600   -5.3400  -58.3480 C.2   138  ASN138      0.2629
    110  OD1       -7.5890   -6.2140  -58.2560 O.2   138  ASN138     -0.2716
    111  ND2       -9.7490   -5.6250  -58.5290 N.am  138  ASN138     -0.0877
    112  N         -6.1380   -7.2600  -56.2630 N.3   140  ASP140     -0.1239
    113  CA        -6.3020   -8.7050  -56.2630 C.3   140  ASP140      0.1674
    114  C         -4.9480   -9.3770  -56.1110 C.2   140  ASP140      0.2266
    115  O         -3.9570   -8.9860  -56.7420 O.2   140  ASP140     -0.2867
    116  CB        -6.9820   -9.1920  -57.5460 C.3   140  ASP140      0.1410
    117  CG        -8.4880   -9.0060  -57.5250 C.2   140  ASP140      0.3668
    118  OD1       -9.0620   -8.7510  -56.4430 O.co2 140  ASP140     -0.2456
    119  OD2       -9.1010   -9.1310  -58.6020 O.co2 140  ASP140     -0.2456
    120  N         -4.3020  -13.4370  -55.5020 N.3   142  PHE142     -0.1241
    121  CA        -4.9730  -14.7100  -55.2760 C.3   142  PHE142      0.1605
    122  C         -4.0530  -15.8960  -55.5390 C.2   142  PHE142      0.2264
    123  O         -3.2630  -15.8920  -56.4890 O.2   142  PHE142     -0.2867
    124  CB        -6.1930  -14.8420  -56.1720 C.3   142  PHE142      0.0534
    125  CG        -7.2090  -13.7860  -55.9650 C.ar  142  PHE142     -0.0203
    126  CD1       -7.5120  -13.3390  -54.6950 C.ar  142  PHE142     -0.0042
    127  CD2       -7.8680  -13.2480  -57.0450 C.ar  142  PHE142     -0.0042
    128  CE1       -8.4770  -12.3640  -54.5010 C.ar  142  PHE142     -0.0003
    129  CE2       -8.8310  -12.2750  -56.8730 C.ar  142  PHE142     -0.0003
    130  CZ        -9.1380  -11.8260  -55.5920 C.ar  142  PHE142     -0.0000
@<TRIPOS>BOND
     1    52    53    1
     2    57    56    1
     3    53    56    1
     4    53    54    1
     5    48    46   ar
     6    48    50   ar
     7    27    26    2
     8    42    43    2
     9    42    41    1
    10    46    45   ar
    11    51    50    1
    12    28    29    1
    13    28    25    1
    14    56    58    1
    15    50    49   ar
    16    24    25    1
    17    54    55    2
    18    54    59   am
    19    29    30    2
    20    29    31   am
    21    62    61    2
    22    41    40    1
    23    41    44    1
    24    35    34    2
    25    26    25    1
    26    26    32   am
    27    59    60    1
    28    34    40   am
    29    34    33    1
    30    45    44    1
    31    45    47   ar
    32    61    60    1
    33    33    32    1
    34    33    36    1
    35    49    47   ar
    36    60    63    1
    37    38    37   ar
    38    67    68    1
    39    70    69    2
    40    74    72   ar
    41    36    37    1
    42    63    64    1
    43    63    65    1
    44    37    39   ar
    45    64    66    1
    46    71    68    1
    47    71    72    1
    48    68    69    1
    49    72    73   ar
    50    10     8   ar
    51    10    11   ar
    52     8     6   ar
    53     2     1    1
    54     2     5    1
    55     2     3    1
    56    11     9   ar
    57    98   100   ar
    58    98    97   ar
    59     6     5    1
    60     6     7   ar
    61   100   102   ar
    62     3     4    2
    63    96    97    1
    64    96    93    1
    65    97    99   ar
    66   102   103    1
    67   102   101   ar
    68     9     7   ar
    69    92    93    1
    70    88    85    1
    71    88    89    1
    72    85    86    1
    73    85    84    1
    74    86    87    2
    75    93    94    1
    76    99   101   ar
    77    19    17    1
    78    83    81   am
    79    80    81    1
    80    80    79    1
    81    89    90    2
    82    89    91   am
    83    17    16    1
    84    81    82    2
    85    94    95    2
    86    94   104   am
    87    79    76    1
    88   104   105    1
    89    76    77    1
    90    76    75    1
    91    12    13    1
    92    16    13    1
    93    16    18    1
    94    77    78    2
    95    13    14    1
    96   119   117   ar
    97   105   108    1
    98   105   106    1
    99   111   109   am
   100   109   110    2
   101   109   108    1
   102   107   106    2
   103    14    20   am
   104    14    15    2
   105   116   117    1
   106   116   113    1
   107   117   118   ar
   108    20    21    1
   109   127   129   ar
   110   127   125   ar
   111   129   130   ar
   112   115   114    2
   113   123   122    2
   114   113   112    1
   115   113   114    1
   116   124   125    1
   117   124   121    1
   118    21    22    1
   119   125   126   ar
   120   130   128   ar
   121    22    23    2
   122   122   121    1
   123   120   121    1
   124   126   128   ar
