@<TRIPOS>MOLECULE
tmp/5fx5A02.pdb
 208 203 0 0 0
SMALL
GASTEIGER

@<TRIPOS>ATOM
      1  N        -14.2350   -3.8080  -24.1100 N.3    22  ASN22      -0.1225
      2  CA       -13.3380   -2.6330  -23.9320 C.3    22  ASN22       0.1785
      3  C        -12.2050   -2.8520  -22.8870 C.2    22  ASN22       0.2598
      4  O        -11.3800   -1.9630  -22.7000 O.2    22  ASN22      -0.2718
      5  CB       -14.1500   -1.3810  -23.5790 C.3    22  ASN22       0.1169
      6  CG       -14.9670   -0.8700  -24.7300 C.2    22  ASN22       0.2627
      7  OD1      -15.0210   -1.5030  -25.7660 O.2    22  ASN22      -0.2716
      8  ND2      -15.6530    0.2420  -24.5610 N.am   22  ASN22      -0.0877
      9  N        -12.2110   -3.9830  -22.1820 N.am   23  GLY23      -0.1942
     10  CA       -11.1800   -4.3440  -21.2290 C.3    23  GLY23       0.2014
     11  C        -11.7540   -4.7430  -19.8770 C.2    23  GLY23       0.2639
     12  O        -12.9250   -5.1340  -19.7690 O.2    23  GLY23      -0.2714
     13  N        -10.9200   -4.6630  -18.8520 N.am   24  LYS24      -0.1963
     14  CA       -11.2930   -5.0910  -17.5130 C.3    24  LYS24       0.1728
     15  C        -11.5430   -3.8790  -16.6440 C.2    24  LYS24       0.2616
     16  O        -10.7800   -2.9280  -16.6940 O.2    24  LYS24      -0.2715
     17  CB       -10.2300   -6.0100  -16.8550 C.3    24  LYS24       0.0311
     18  CG       -10.0330   -7.3360  -17.5720 C.3    24  LYS24       0.0038
     19  CD        -8.8310   -8.0740  -16.9760 C.3    24  LYS24       0.0206
     20  CE        -8.5910   -9.3780  -17.6910 C.3    24  LYS24       0.1093
     21  NZ        -7.5130  -10.1660  -17.0250 N.3    24  LYS24      -0.1314
     22  N        -12.6210   -3.8990  -15.8670 N.am   25  PHE25      -0.1974
     23  CA       -12.9800   -2.8000  -14.9890 C.3    25  PHE25       0.1639
     24  C        -13.2910   -3.2860  -13.5950 C.2    25  PHE25       0.2290
     25  O        -13.7080   -4.4120  -13.4100 O.2    25  PHE25      -0.2864
     26  CB       -14.2350   -2.0560  -15.5080 C.3    25  PHE25       0.0560
     27  CG       -14.0750   -1.5050  -16.9030 C.ar   25  PHE25      -0.0200
     28  CD1      -14.1460   -2.3360  -18.0070 C.ar   25  PHE25      -0.0042
     29  CD2      -13.7620   -0.1610  -17.1120 C.ar   25  PHE25      -0.0042
     30  CE1      -13.8320   -1.8530  -19.2860 C.ar   25  PHE25      -0.0003
     31  CE2      -13.5160    0.3300  -18.3910 C.ar   25  PHE25      -0.0003
     32  CZ       -13.5650   -0.5160  -19.4770 C.ar   25  PHE25      -0.0000
     33  N        -18.6140    3.7410  -20.2380 N.3    40  HIS40      -0.1241
     34  CA       -17.6210    3.5430  -21.2860 C.3    40  HIS40       0.1621
     35  C        -17.0600    2.1090  -21.3100 C.2    40  HIS40       0.2264
     36  O        -16.4310    1.7320  -22.3050 O.2    40  HIS40      -0.2867
     37  CB       -16.5040    4.6050  -21.2490 C.3    40  HIS40       0.0745
     38  CG       -15.4430    4.3860  -20.2110 C.ar   40  HIS40       0.0817
     39  ND1      -15.5780    4.8810  -18.9170 N.ar   40  HIS40      -0.2268
     40  CD2      -14.2630    3.7230  -20.2990 C.ar   40  HIS40       0.1154
     41  CE1      -14.4760    4.5310  -18.2820 C.ar   40  HIS40       0.1986
     42  NE2      -13.6780    3.7940  -19.0580 N.ar   40  HIS40      -0.2212
     43  N        -22.0460    8.5970  -16.6010 N.3    71  GLU71      -0.1245
     44  CA       -20.9530    7.6130  -16.6920 C.3    71  GLU71       0.1567
     45  C        -21.1300    6.4410  -15.6810 C.2    71  GLU71       0.2260
     46  O        -20.1560    5.7580  -15.3540 O.2    71  GLU71      -0.2867
     47  CB       -19.5290    8.2260  -16.6100 C.3    71  GLU71       0.0388
     48  CG       -18.8160    8.4130  -17.9280 C.3    71  GLU71       0.1160
     49  CD       -18.7920    7.2490  -18.8880 C.2    71  GLU71       0.3649
     50  OE1      -18.1250    6.2220  -18.6140 O.co2  71  GLU71      -0.2457
     51  OE2      -19.3780    7.4230  -19.9750 O.co2  71  GLU71      -0.2457
     52  N         -7.0290   -4.8480  -13.1220 N.3   107  ASN107     -0.1240
     53  CA        -5.7760   -4.3400  -13.6850 C.3   107  ASN107      0.1653
     54  C         -4.6740   -4.1580  -12.6420 C.2   107  ASN107      0.2266
     55  O         -3.6430   -3.5710  -12.9640 O.2   107  ASN107     -0.2867
     56  CB        -6.0120   -3.0580  -14.5140 C.3   107  ASN107      0.1155
     57  CG        -7.1080   -3.2560  -15.5510 C.2   107  ASN107      0.2627
     58  OD1       -7.0270   -4.1820  -16.3910 O.2   107  ASN107     -0.2716
     59  ND2       -8.2490   -2.5730  -15.4240 N.am  107  ASN107     -0.0877
     60  N        -17.4320   18.7190   -8.7630 N.3   122  TYR122     -0.1241
     61  CA       -16.8290   19.5000   -9.8430 C.3   122  TYR122      0.1605
     62  C        -17.7450   19.8700  -11.0250 C.2   122  TYR122      0.2264
     63  O        -17.3330   20.6490  -11.8660 O.2   122  TYR122     -0.2867
     64  CB       -15.6050   18.7220  -10.3430 C.3   122  TYR122      0.0534
     65  CG       -14.5820   19.5450  -11.1120 C.ar  122  TYR122     -0.0201
     66  CD1      -13.7430   20.4300  -10.4550 C.ar  122  TYR122     -0.0009
     67  CD2      -14.3010   19.2680  -12.4460 C.ar  122  TYR122     -0.0009
     68  CE1      -12.7580   21.1490  -11.1360 C.ar  122  TYR122      0.0417
     69  CE2      -13.2670   19.9230  -13.1280 C.ar  122  TYR122      0.0417
     70  CZ       -12.5040   20.8790  -12.4690 C.ar  122  TYR122      0.1957
     71  OH       -11.5160   21.5420  -13.1750 O.3   122  TYR122     -0.2866
     72  N        -17.7830   17.7810  -17.0870 N.3   125  ILE125     -0.1231
     73  CA       -16.5030   17.8420  -17.8080 C.3   125  ILE125      0.1692
     74  C        -16.7180   17.2220  -19.1600 C.2   125  ILE125      0.2592
     75  O        -17.7760   16.6560  -19.4060 O.2   125  ILE125     -0.2718
     76  CB       -15.3460   17.1410  -17.0380 C.3   125  ILE125      0.0266
     77  CG1      -15.5270   15.6020  -17.0390 C.3   125  ILE125      0.0019
     78  CG2      -15.1610   17.7430  -15.6270 C.3   125  ILE125      0.0020
     79  CD1      -14.5070   14.8380  -16.2160 C.3   125  ILE125      0.0001
     80  N        -15.6840   17.2510  -20.0040 N.am  126  LEU126     -0.1966
     81  CA       -15.7030   16.5730  -21.2800 C.3   126  LEU126      0.1728
     82  C        -14.7340   15.4040  -21.1190 C.2   126  LEU126      0.2616
     83  O        -13.5590   15.6320  -20.8400 O.2   126  LEU126     -0.2715
     84  CB       -15.2450   17.5040  -22.4140 C.3   126  LEU126      0.0311
     85  CG       -16.1510   18.7100  -22.7010 C.3   126  LEU126      0.0022
     86  CD1      -15.5090   19.6610  -23.6950 C.3   126  LEU126      0.0001
     87  CD2      -17.5090   18.2940  -23.2410 C.3   126  LEU126      0.0001
     88  N        -15.2280   14.1790  -21.2250 N.am  127  LEU127     -0.1963
     89  CA       -14.4000   12.9470  -21.2040 C.3   127  LEU127      0.1728
     90  C        -14.3570   12.4750  -22.6430 C.2   127  LEU127      0.2616
     91  O        -15.4060   12.0890  -23.1850 O.2   127  LEU127     -0.2715
     92  CB       -14.9590   11.8470  -20.2950 C.3   127  LEU127      0.0311
     93  CG       -14.7710   12.1290  -18.8390 C.3   127  LEU127      0.0022
     94  CD1      -15.5490   11.1650  -18.0180 C.3   127  LEU127      0.0001
     95  CD2      -13.2700   12.0920  -18.4440 C.3   127  LEU127      0.0001
     96  N        -13.1560   12.5450  -23.2510 N.am  128  SER128     -0.1950
     97  CA       -12.8920   12.2770  -24.6800 C.3   128  SER128      0.1924
     98  C        -13.9380   13.0050  -25.5550 C.2   128  SER128      0.2314
     99  O        -14.5830   12.4280  -26.4120 O.2   128  SER128     -0.2863
    100  CB       -12.7400   10.7890  -24.9660 C.3   128  SER128      0.2116
    101  OG       -11.4280   10.3720  -24.6030 O.3   128  SER128     -0.2180
    102  N        -16.9000   14.2130  -24.6920 N.3   130  ASN130     -0.1240
    103  CA       -18.2980   13.9370  -24.3770 C.3   130  ASN130      0.1653
    104  C        -18.6610   14.5370  -23.0240 C.2   130  ASN130      0.2266
    105  O        -18.0490   14.1570  -22.0270 O.2   130  ASN130     -0.2867
    106  CB       -18.5360   12.4400  -24.3010 C.3   130  ASN130      0.1155
    107  CG       -18.2140   11.7120  -25.5580 C.2   130  ASN130      0.2627
    108  OD1      -18.9400   11.8220  -26.5270 O.2   130  ASN130     -0.2716
    109  ND2      -17.1280   10.9530  -25.5630 N.am  130  ASN130     -0.0877
    110  N        -20.0270   14.8680  -19.5370 N.3   132  THR132     -0.1218
    111  CA       -20.3240   13.9430  -18.4580 C.3   132  THR132      0.1862
    112  C        -20.6830   14.7790  -17.2090 C.2   132  THR132      0.2287
    113  O        -19.9210   15.6690  -16.8410 O.2   132  THR132     -0.2866
    114  CB       -19.0960   13.0430  -18.2450 C.3   132  THR132      0.1770
    115  OG1      -18.6580   12.5130  -19.4860 O.3   132  THR132     -0.2211
    116  CG2      -19.3730   11.9050  -17.3120 C.3   132  THR132      0.0375
    117  N         -4.0910    9.6120  -11.3210 N.3   142  THR142     -0.1203
    118  CA        -4.7300    8.3180  -11.5910 C.3   142  THR142      0.1994
    119  C         -4.3020    7.9160  -12.9840 C.2   142  THR142      0.2618
    120  O         -3.9670    8.7820  -13.8180 O.2   142  THR142     -0.2717
    121  CB        -6.2550    8.4020  -11.4310 C.3   142  THR142      0.1784
    122  OG1       -6.7260    9.5030  -12.1960 O.3   142  THR142     -0.2211
    123  CG2       -6.6820    8.5740   -9.9910 C.3   142  THR142      0.0376
    124  N         -4.3290    6.6130  -13.2540 N.am  143  LYS143     -0.1965
    125  CA        -3.8280    6.1100  -14.5140 C.3   143  LYS143      0.1728
    126  C         -4.6870    5.0660  -15.1410 C.2   143  LYS143      0.2617
    127  O         -5.7520    4.7250  -14.6420 O.2   143  LYS143     -0.2715
    128  CB        -2.3920    5.6180  -14.3110 C.3   143  LYS143      0.0311
    129  CG        -2.1790    4.5100  -13.3290 C.3   143  LYS143      0.0038
    130  CD        -0.7670    4.5740  -12.7390 C.3   143  LYS143      0.0206
    131  CE         0.3790    4.2750  -13.6860 C.3   143  LYS143      0.1093
    132  NZ         0.6450    2.8140  -13.7940 N.3   143  LYS143     -0.1314
    133  N         -4.2700    4.6230  -16.3330 N.am  144  SER144     -0.1936
    134  CA        -4.9690    3.5950  -17.0900 C.3   144  SER144      0.2055
    135  C         -5.1450    2.3510  -16.1930 C.2   144  SER144      0.2644
    136  O         -4.2690    2.0760  -15.3610 O.2   144  SER144     -0.2714
    137  CB        -4.1790    3.2640  -18.3500 C.3   144  SER144      0.2130
    138  OG        -2.8680    2.8380  -18.0270 O.3   144  SER144     -0.2179
    139  N         -6.2910    1.7020  -16.3160 N.am  145  GLY145     -0.1939
    140  CA        -6.6320    0.5140  -15.5410 C.3   145  GLY145      0.2014
    141  C         -7.3760    0.8300  -14.2560 C.2   145  GLY145      0.2639
    142  O         -7.8920   -0.0820  -13.6100 O.2   145  GLY145     -0.2714
    143  N         -7.4990    2.1300  -13.8710 N.am  146  TYR146     -0.1959
    144  CA        -8.1600    2.4540  -12.5930 C.3   146  TYR146      0.1771
    145  C         -9.6700    2.5470  -12.6490 C.2   146  TYR146      0.2619
    146  O        -10.2920    2.7650  -11.6130 O.2   146  TYR146     -0.2715
    147  CB        -7.6380    3.7940  -12.0570 C.3   146  TYR146      0.0574
    148  CG        -6.3210    3.8130  -11.3050 C.ar  146  TYR146     -0.0198
    149  CD1       -5.3020    2.9110  -11.6020 C.ar  146  TYR146     -0.0009
    150  CD2       -6.0500    4.8110  -10.3710 C.ar  146  TYR146     -0.0009
    151  CE1       -4.0730    2.9680  -10.9500 C.ar  146  TYR146      0.0417
    152  CE2       -4.7990    4.9230   -9.7810 C.ar  146  TYR146      0.0417
    153  CZ        -3.8320    3.9720  -10.0300 C.ar  146  TYR146      0.1957
    154  OH        -2.6370    4.0730   -9.3610 O.3   146  TYR146     -0.2866
    155  N        -10.2660    2.4960  -13.8280 N.am  147  CYS147     -0.1968
    156  CA       -11.6940    2.7700  -13.9180 C.3   147  CYS147      0.1712
    157  C        -12.5490    1.7120  -13.2690 C.2   147  CYS147      0.2296
    158  O        -12.2220    0.5150  -13.2730 O.2   147  CYS147     -0.2864
    159  CB       -12.1110    3.0750  -15.3510 C.3   147  CYS147      0.0983
    160  SG       -11.4480    4.6590  -15.8870 S.3   147  CYS147     -0.0798
    161  N        -14.3870    5.4810  -10.3070 N.3   161  HIS161     -0.1226
    162  CA       -13.3920    6.1880  -11.1230 C.3   161  HIS161      0.1752
    163  C        -13.6650    6.0760  -12.6290 C.2   161  HIS161      0.2596
    164  O        -13.8860    4.9700  -13.0730 O.2   161  HIS161     -0.2718
    165  CB       -11.9670    5.7510  -10.7610 C.3   161  HIS161      0.0759
    166  CG       -10.9350    6.6150  -11.4220 C.ar  161  HIS161      0.0818
    167  ND1      -10.6160    7.8850  -10.9330 N.ar  161  HIS161     -0.2268
    168  CD2      -10.2350    6.4000  -12.5580 C.ar  161  HIS161      0.1154
    169  CE1       -9.7300    8.3720  -11.7770 C.ar  161  HIS161      0.1986
    170  NE2       -9.4620    7.4940  -12.7610 N.ar  161  HIS161     -0.2212
    171  N        -13.6520    7.1900  -13.3640 N.am  162  VAL162     -0.1966
    172  CA       -13.9270    7.1940  -14.8120 C.3   162  VAL162      0.1727
    173  C        -12.8840    7.8750  -15.7130 C.2   162  VAL162      0.2617
    174  O        -12.9040    7.6220  -16.9210 O.2   162  VAL162     -0.2715
    175  CB       -15.3380    7.7730  -15.1230 C.3   162  VAL162      0.0290
    176  CG1      -16.4240    6.9440  -14.4250 C.3   162  VAL162      0.0023
    177  CG2      -15.4500    9.2660  -14.7840 C.3   162  VAL162      0.0023
    178  N        -12.0330    8.7390  -15.2000 N.am  163  GLY163     -0.1940
    179  CA       -11.1100    9.4250  -16.0830 C.3   163  GLY163      0.2014
    180  C        -10.0820   10.2650  -15.3590 C.2   163  GLY163      0.2639
    181  O        -10.0870   10.3660  -14.1300 O.2   163  GLY163     -0.2714
    182  N         -9.1760   10.8100  -16.1410 N.am  164  GLY164     -0.1939
    183  CA        -8.0950   11.6210  -15.6080 C.3   164  GLY164      0.2014
    184  C         -7.2180   12.1170  -16.7330 C.2   164  GLY164      0.2639
    185  O         -7.2820   11.6040  -17.8520 O.2   164  GLY164     -0.2714
    186  N         -6.3860   13.0880  -16.4360 N.am  165  ASN165     -0.1958
    187  CA        -5.5030   13.7200  -17.4160 C.3   165  ASN165      0.1819
    188  C         -4.0210   13.7570  -17.0190 C.2   165  ASN165      0.2621
    189  O         -3.2700   14.5870  -17.5450 O.2   165  ASN165     -0.2715
    190  CB        -5.9990   15.1100  -17.6480 C.3   165  ASN165      0.1195
    191  CG        -6.0760   15.9550  -16.3830 C.2   165  ASN165      0.2630
    192  OD1       -5.3940   15.7070  -15.3670 O.2   165  ASN165     -0.2716
    193  ND2       -6.9850   16.9130  -16.3650 N.am  165  ASN165     -0.0877
    194  N         -3.6320   12.9140  -16.0730 N.am  166  GLY166     -0.1954
    195  CA        -2.2550   12.8400  -15.5900 C.3   166  GLY166      0.1869
    196  C         -1.9910   13.6840  -14.3520 C.2   166  GLY166      0.2309
    197  O         -0.9590   13.5080  -13.7070 O.2   166  GLY166     -0.2863
    198  N        -11.0900   11.7130  -11.8240 N.3   170  PHE170     -0.1241
    199  CA       -12.5130   11.9850  -11.7450 C.3   170  PHE170      0.1605
    200  C        -13.3140   10.7090  -11.5180 C.2   170  PHE170      0.2264
    201  O        -13.0880    9.7000  -12.1970 O.2   170  PHE170     -0.2867
    202  CB       -13.0100   12.7000  -13.0500 C.3   170  PHE170      0.0534
    203  CG       -12.2900   13.9880  -13.3860 C.ar  170  PHE170     -0.0203
    204  CD1      -12.7460   15.2020  -12.9010 C.ar  170  PHE170     -0.0042
    205  CD2      -11.1580   13.9800  -14.1930 C.ar  170  PHE170     -0.0042
    206  CE1      -12.0360   16.3710  -13.1330 C.ar  170  PHE170     -0.0003
    207  CE2      -10.4860   15.1690  -14.4860 C.ar  170  PHE170     -0.0003
    208  CZ       -10.9120   16.3550  -13.9130 C.ar  170  PHE170     -0.0000
@<TRIPOS>BOND
     1   108   107    2
     2    99    98    2
     3     7     6    2
     4   109   107   am
     5   107   106    1
     6    98    97    1
     7   100    97    1
     8   100   101    1
     9     6     8   am
    10     6     5    1
    11   102   103    1
    12    97    96    1
    13   103   106    1
    14   103   104    1
    15     1     2    1
    16     2     5    1
    17     2     3    1
    18    86    85    1
    19    96    90   am
    20    87    85    1
    21    91    90    2
    22   104   105    2
    23     3     4    2
    24     3     9   am
    25    85    84    1
    26    90    89    1
    27    84    81    1
    28    36    35    2
    29     9    10    1
    30    35    34    1
    31    34    37    1
    32    34    33    1
    33    81    82    1
    34    81    80    1
    35    37    38    1
    36    10    11    1
    37    88    89    1
    38    88    82   am
    39    89    92    1
    40    82    83    2
    41    40    38   ar
    42    40    42   ar
    43    92    93    1
    44    38    39   ar
    45    80    74   am
    46    51    49   ar
    47    11    12    2
    48    11    13   am
    49   110   111    1
    50   115   114    1
    51    32    30   ar
    52    32    31   ar
    53    75    74    2
    54    30    28   ar
    55    74    73    1
    56    42    41   ar
    57    39    41   ar
    58    49    50   ar
    59    49    48    1
    60    13    14    1
    61    93    95    1
    62    93    94    1
    63   111   114    1
    64   111   112    1
    65    31    29   ar
    66   137   138    1
    67   137   134    1
    68   114   116    1
    69    28    27   ar
    70    48    47    1
    71   185   184    2
    72    73    72    1
    73    73    76    1
    74    20    21    1
    75    20    19    1
    76   190   187    1
    77   190   191    1
    78    18    19    1
    79    18    17    1
    80   189   188    2
    81    14    17    1
    82    14    15    1
    83   187   188    1
    84   187   186    1
    85   112   113    2
    86    29    27   ar
    87   134   133    1
    88   134   135    1
    89    77    76    1
    90    77    79    1
    91    76    78    1
    92   188   194   am
    93   174   173    2
    94    27    26    1
    95   184   186   am
    96   184   183    1
    97    16    15    2
    98    44    47    1
    99    44    43    1
   100    44    45    1
   101    15    22   am
   102    58    57    2
   103   191   193   am
   104   191   192    2
   105   133   126   am
   106   139   135   am
   107   139   140    1
   108   135   136    2
   109   182   183    1
   110   182   180   am
   111   179   180    1
   112   179   178    1
   113   194   195    1
   114   160   159    1
   115    22    23    1
   116   173   178   am
   117   173   172    1
   118    45    46    2
   119   195   196    1
   120    57    59   am
   121    57    56    1
   122   140   141    1
   123    26    23    1
   124   180   181    2
   125   159   156    1
   126   126   127    2
   127   126   125    1
   128   175   172    1
   129   175   177    1
   130   175   176    1
   131    23    24    1
   132   172   171    1
   133   125   128    1
   134   125   124    1
   135    56    53    1
   136   207   205   ar
   137   207   208   ar
   138   196   197    2
   139   128   129    1
   140   141   143   am
   141   141   142    2
   142   205   203   ar
   143   156   155    1
   144   156   157    1
   145   208   206   ar
   146   143   144    1
   147   155   145   am
   148   120   119    2
   149   132   131    1
   150   131   130    1
   151    53    52    1
   152    53    54    1
   153    24    25    2
   154   203   202    1
   155   203   204   ar
   156   171   163   am
   157   129   130    1
   158   158   157    2
   159   124   119   am
   160    71    70    1
   161   206   204   ar
   162    69    70   ar
   163    69    67   ar
   164   164   163    2
   165   202   199    1
   166   119   118    1
   167    55    54    2
   168   170   168   ar
   169   170   169   ar
   170   145   144    1
   171   145   146    2
   172   163   162    1
   173   144   147    1
   174   168   166   ar
   175    70    68   ar
   176    67    65   ar
   177   201   200    2
   178   122   121    1
   179   147   148    1
   180    63    62    2
   181   198   199    1
   182   169   167   ar
   183   199   200    1
   184   149   148   ar
   185   149   151   ar
   186   118   121    1
   187   118   117    1
   188   121   123    1
   189   166   167   ar
   190   166   165    1
   191   148   150   ar
   192    68    66   ar
   193   162   165    1
   194   162   161    1
   195    65    66   ar
   196    65    64    1
   197    62    61    1
   198   151   153   ar
   199   150   152   ar
   200    64    61    1
   201   153   152   ar
   202   153   154    1
   203    61    60    1
