@<TRIPOS>MOLECULE
tmp/5fx6A00.pdb
 182 177 0 0 0
SMALL
GASTEIGER

@<TRIPOS>ATOM
      1  N         19.6340    8.4300   13.9710 N.3    22  ASN22      -0.1225
      2  CA        19.7670    7.2150   13.1780 C.3    22  ASN22       0.1785
      3  C         18.8220    7.0900   11.9860 C.2    22  ASN22       0.2598
      4  O         18.8830    6.0710   11.3010 O.2    22  ASN22      -0.2718
      5  CB        19.6210    6.0260   14.0890 C.3    22  ASN22       0.1169
      6  CG        20.5670    6.1470   15.2490 C.2    22  ASN22       0.2627
      7  OD1       21.7710    6.2410   15.0570 O.2    22  ASN22      -0.2716
      8  ND2       20.0600    6.3930   16.4350 N.am   22  ASN22      -0.0877
      9  N         17.9850    8.0920   11.7400 N.am   23  GLY23      -0.1942
     10  CA        17.1030    8.0960   10.5840 C.3    23  GLY23       0.2014
     11  C         15.6960    8.5310   10.8880 C.2    23  GLY23       0.2639
     12  O         15.3970    9.0150   11.9860 O.2    23  GLY23      -0.2714
     13  N         14.8290    8.3590    9.8810 N.am   24  LYS24      -0.1963
     14  CA        13.4030    8.6990    9.9440 C.3    24  LYS24       0.1728
     15  C         12.5800    7.4200   10.0500 C.2    24  LYS24       0.2616
     16  O         12.8430    6.4240    9.3650 O.2    24  LYS24      -0.2715
     17  CB        12.9670    9.5090    8.7180 C.3    24  LYS24       0.0311
     18  CG        13.6340   10.8760    8.6340 C.3    24  LYS24       0.0038
     19  CD        13.2850   11.5690    7.3010 C.3    24  LYS24       0.0206
     20  CE        13.7640   12.9890    7.2250 C.3    24  LYS24       0.1093
     21  NZ        13.2330   13.6710    6.0140 N.3    24  LYS24      -0.1314
     22  N         11.5680    7.4550   10.9220 N.am   25  PHE25      -0.1974
     23  CA        10.7090    6.3230   11.2250 C.3    25  PHE25       0.1639
     24  C          9.2560    6.7380   11.1930 C.2    25  PHE25       0.2290
     25  O          8.9290    7.9040   11.5050 O.2    25  PHE25      -0.2864
     26  CB        11.0270    5.8740   12.6660 C.3    25  PHE25       0.0560
     27  CG        12.4450    5.3980   12.8080 C.ar   25  PHE25      -0.0200
     28  CD1       13.4720    6.2800   13.1300 C.ar   25  PHE25      -0.0042
     29  CD2       12.7600    4.0740   12.5970 C.ar   25  PHE25      -0.0042
     30  CE1       14.8030    5.8330   13.1800 C.ar   25  PHE25      -0.0003
     31  CE2       14.0730    3.6250   12.6850 C.ar   25  PHE25      -0.0003
     32  CZ        15.0890    4.5120   12.9310 C.ar   25  PHE25      -0.0000
     33  N         15.4960    0.2040   18.1730 N.3    40  HIS40      -0.1241
     34  CA        16.7550    0.4500   17.4640 C.3    40  HIS40       0.1621
     35  C         16.8500    1.8650   16.8840 C.2    40  HIS40       0.2264
     36  O         17.9480    2.2730   16.5290 O.2    40  HIS40      -0.2867
     37  CB        17.0680   -0.6080   16.4170 C.3    40  HIS40       0.0745
     38  CG        16.0560   -0.7330   15.3430 C.ar   40  HIS40       0.0817
     39  ND1       15.9530    0.2060   14.3560 N.ar   40  HIS40      -0.2268
     40  CD2       15.1860   -1.7360   15.0980 C.ar   40  HIS40       0.1154
     41  CE1       15.0090   -0.2430   13.5440 C.ar   40  HIS40       0.1986
     42  NE2       14.5230   -1.4060   13.9650 N.ar   40  HIS40      -0.2212
     43  N         14.5740   -8.0720   24.6670 N.3    69  LYS69      -0.1245
     44  CA        13.9850   -6.8860   24.1000 C.3    69  LYS69       0.1561
     45  C         12.8650   -7.2190   23.1480 C.2    69  LYS69       0.2260
     46  O         12.9210   -8.1950   22.4070 O.2    69  LYS69      -0.2867
     47  CB        15.0300   -6.0090   23.4390 C.3    69  LYS69       0.0271
     48  CG        15.6870   -6.5290   22.1780 C.3    69  LYS69       0.0035
     49  CD        16.8130   -5.5860   21.7740 C.3    69  LYS69       0.0206
     50  CE        17.6050   -6.0790   20.6050 C.3    69  LYS69       0.1093
     51  NZ        16.8390   -6.0560   19.3430 N.3    69  LYS69      -0.1314
     52  N         11.7390   -4.6700   21.0560 N.3    71  GLU71      -0.1245
     53  CA        11.9070   -3.6980   19.9810 C.3    71  GLU71       0.1567
     54  C         10.7500   -2.6710   19.9340 C.2    71  GLU71       0.2260
     55  O         10.6140   -1.9810   18.9340 O.2    71  GLU71      -0.2867
     56  CB        12.1990   -4.3140   18.5980 C.3    71  GLU71       0.0388
     57  CG        13.6620   -4.6090   18.4450 C.3    71  GLU71       0.1160
     58  CD        14.6040   -3.4140   18.4420 C.2    71  GLU71       0.3649
     59  OE1       14.1750   -2.2780   18.1360 O.co2  71  GLU71      -0.2457
     60  OE2       15.7390   -3.5970   18.9160 O.co2  71  GLU71      -0.2457
     61  N          5.8310  -15.4180   15.3030 N.3   122  TYR122     -0.1241
     62  CA         7.0500  -16.1430   14.9450 C.3   122  TYR122      0.1605
     63  C          7.9930  -16.4540   16.0690 C.2   122  TYR122      0.2264
     64  O          8.9420  -17.2030   15.8260 O.2   122  TYR122     -0.2867
     65  CB         7.7620  -15.2930   13.8950 C.3   122  TYR122      0.0534
     66  CG         8.7170  -16.0080   12.9820 C.ar  122  TYR122     -0.0201
     67  CD1        8.2560  -16.8760   11.9940 C.ar  122  TYR122     -0.0009
     68  CD2       10.0760  -15.7350   13.0260 C.ar  122  TYR122     -0.0009
     69  CE1        9.1340  -17.4680   11.0890 C.ar  122  TYR122      0.0417
     70  CE2       10.9560  -16.3120   12.1220 C.ar  122  TYR122      0.0417
     71  CZ        10.4880  -17.1930   11.1660 C.ar  122  TYR122      0.1957
     72  OH        11.3740  -17.7950   10.3030 O.3   122  TYR122     -0.2866
     73  N         13.8130  -13.9820   17.2830 N.3   125  ILE125     -0.1231
     74  CA        14.7870  -13.9650   16.1880 C.3   125  ILE125      0.1692
     75  C         16.0520  -13.3070   16.6830 C.2   125  ILE125      0.2592
     76  O         16.0650  -12.6990   17.7530 O.2   125  ILE125     -0.2718
     77  CB        14.2900  -13.2560   14.9030 C.3   125  ILE125      0.0266
     78  CG1       14.1720  -11.7300   15.1160 C.3   125  ILE125      0.0019
     79  CG2       12.9880  -13.9310   14.4030 C.3   125  ILE125      0.0020
     80  CD1       13.7190  -10.9850   13.9030 C.3   125  ILE125      0.0001
     81  N         17.1080  -13.3790   15.8710 N.am  126  LEU126     -0.1966
     82  CA        18.3370  -12.6620   16.1290 C.3   126  LEU126      0.1728
     83  C         18.3050  -11.4970   15.1430 C.2   126  LEU126      0.2616
     84  O         18.3510  -11.7100   13.9380 O.2   126  LEU126     -0.2715
     85  CB        19.5650  -13.5340   15.9080 C.3   126  LEU126      0.0311
     86  CG        19.6820  -14.7050   16.8620 C.3   126  LEU126      0.0022
     87  CD1       20.7620  -15.6690   16.4100 C.3   126  LEU126      0.0001
     88  CD2       19.9120  -14.2470   18.2910 C.3   126  LEU126      0.0001
     89  N         18.1370  -10.2760   15.6580 N.am  127  LEU127     -0.1963
     90  CA        18.0820   -9.0670   14.8380 C.3   127  LEU127      0.1728
     91  C         19.4680   -8.4120   14.9650 C.2   127  LEU127      0.2616
     92  O         19.8420   -7.9450   16.0460 O.2   127  LEU127     -0.2715
     93  CB        17.0040   -8.1430   15.3700 C.3   127  LEU127      0.0311
     94  CG        16.7590   -6.8750   14.5200 C.3   127  LEU127      0.0022
     95  CD1       16.0780   -7.2210   13.1920 C.3   127  LEU127      0.0001
     96  CD2       15.8710   -5.9130   15.2580 C.3   127  LEU127      0.0001
     97  N         20.2650   -8.4560   13.8930 N.am  128  SER128     -0.1950
     98  CA        21.6710   -7.9900   13.9370 C.3   128  SER128      0.1924
     99  C         22.4150   -8.6250   15.1510 C.2   128  SER128      0.2314
    100  O         23.1080   -7.9310   15.9020 O.2   128  SER128     -0.2863
    101  CB        21.7830   -6.4690   13.9480 C.3   128  SER128      0.2116
    102  OG        21.4350   -5.9710   12.6690 O.3   128  SER128     -0.2180
    103  N         10.3540   -6.3380    2.6360 N.3   142  THR142     -0.1203
    104  CA        10.4010   -5.0050    3.2200 C.3   142  THR142      0.1994
    105  C         11.8400   -4.4850    3.1370 C.2   142  THR142      0.2618
    106  O         12.7950   -5.2660    3.1260 O.2   142  THR142     -0.2717
    107  CB         9.8960   -5.0570    4.6650 C.3   142  THR142      0.1784
    108  OG1       10.6690   -6.0390    5.3650 O.3   142  THR142     -0.2211
    109  CG2        8.4110   -5.4470    4.7500 C.3   142  THR142      0.0376
    110  N         11.9860   -3.1690    3.1030 N.am  143  LYS143     -0.1965
    111  CA        13.2860   -2.5310    2.9390 C.3   143  LYS143      0.1728
    112  C         13.5340   -1.4670    3.9730 C.2   143  LYS143      0.2617
    113  O         12.6740   -1.1210    4.8030 O.2   143  LYS143     -0.2715
    114  CB        13.3820   -1.8670    1.5520 C.3   143  LYS143      0.0311
    115  CG        12.9460   -2.7200    0.3730 C.3   143  LYS143      0.0038
    116  CD        13.0090   -1.9230   -0.9360 C.3   143  LYS143      0.0206
    117  CE        11.8620   -0.9340   -1.1580 C.3   143  LYS143      0.1093
    118  NZ        10.5630   -1.5800   -1.5320 N.3   143  LYS143     -0.1314
    119  N         14.7510   -0.8960    3.8970 N.am  144  SER144     -0.1936
    120  CA        15.0950    0.2320    4.7060 C.3   144  SER144      0.2055
    121  C         14.0920    1.3040    4.3210 C.2   144  SER144      0.2643
    122  O         13.6920    1.4300    3.1590 O.2   144  SER144     -0.2714
    123  CB        16.4920    0.7570    4.3760 C.3   144  SER144      0.2130
    124  OG        17.5130   -0.0990    4.8620 O.3   144  SER144     -0.2179
    125  N         13.6230    1.9680    5.3150 N.am  145  GLY145     -0.1954
    126  CA        12.6510    3.0470    5.1310 C.3   145  GLY145      0.1869
    127  C         11.2690    2.6770    5.6340 C.2   145  GLY145      0.2309
    128  O         10.4480    3.5450    5.9070 O.2   145  GLY145     -0.2863
    129  N         10.6770    1.0730    8.5270 N.3   147  CYS147     -0.1235
    130  CA        10.5820    0.9180    9.9650 C.3   147  CYS147      0.1677
    131  C          9.6220    1.8660   10.6340 C.2   147  CYS147      0.2270
    132  O          9.5170    3.0390   10.2480 O.2   147  CYS147     -0.2867
    133  CB        11.9390    0.9460   10.6300 C.3   147  CYS147      0.0956
    134  SG        12.8600   -0.5880   10.4120 S.3   147  CYS147     -0.0801
    135  N          6.7120   -2.1960   12.1730 N.3   161  HIS161     -0.1226
    136  CA         7.7720   -2.8200   11.4290 C.3   161  HIS161      0.1752
    137  C          9.1600   -2.5060   11.9720 C.2   161  HIS161      0.2596
    138  O          9.5060   -1.3520   12.1830 O.2   161  HIS161     -0.2718
    139  CB         7.6930   -2.4430    9.9430 C.3   161  HIS161      0.0759
    140  CG         8.6720   -3.1820    9.0840 C.ar  161  HIS161      0.0818
    141  ND1        8.4270   -4.4840    8.6860 N.ar  161  HIS161     -0.2268
    142  CD2        9.9190   -2.8450    8.7070 C.ar  161  HIS161      0.1154
    143  CE1        9.5060   -4.8720    8.0470 C.ar  161  HIS161      0.1986
    144  NE2       10.4340   -3.9230    8.0470 N.ar  161  HIS161     -0.2212
    145  N          9.9590   -3.5750   12.2190 N.am  162  VAL162     -0.1966
    146  CA        11.3110   -3.3810   12.7760 C.3   162  VAL162      0.1727
    147  C         12.4640   -3.9950   11.9750 C.2   162  VAL162      0.2617
    148  O         13.5980   -3.5380   12.1820 O.2   162  VAL162     -0.2715
    149  CB        11.4020   -3.8520   14.2520 C.3   162  VAL162      0.0290
    150  CG1       10.3900   -3.0780   15.1150 C.3   162  VAL162      0.0023
    151  CG2       11.2130   -5.3750   14.3770 C.3   162  VAL162      0.0023
    152  N         12.2370   -4.9920   11.1280 N.am  163  GLY163     -0.1940
    153  CA        13.3540   -5.6120   10.4450 C.3   163  GLY163      0.2014
    154  C         12.9630   -6.5130    9.3070 C.2   163  GLY163      0.2639
    155  O         11.7910   -6.7510    9.0490 O.2   163  GLY163     -0.2714
    156  N         13.9870   -6.9930    8.6210 N.am  164  GLY164     -0.1939
    157  CA        13.7860   -7.8310    7.4530 C.3   164  GLY164      0.2014
    158  C         15.1060   -8.2680    6.8670 C.2   164  GLY164      0.2639
    159  O         16.1440   -7.6940    7.1820 O.2   164  GLY164     -0.2714
    160  N         15.0620   -9.2690    6.0150 N.am  165  ASN165     -0.1958
    161  CA        16.2730   -9.8620    5.4350 C.3   165  ASN165      0.1819
    162  C         16.2460   -9.9680    3.9080 C.2   165  ASN165      0.2621
    163  O         17.0910  -10.6540    3.3340 O.2   165  ASN165     -0.2715
    164  CB        16.5330  -11.2380    6.0590 C.3   165  ASN165      0.1195
    165  CG        15.3860  -12.1920    5.8700 C.2   165  ASN165      0.2630
    166  OD1       14.4900  -11.9770    5.0350 O.2   165  ASN165     -0.2716
    167  ND2       15.3150  -13.2340    6.6920 N.am  165  ASN165     -0.0877
    168  N         15.3140   -9.2770    3.2720 N.am  166  GLY166     -0.1954
    169  CA        15.1460   -9.3170    1.8310 C.3   166  GLY166      0.1869
    170  C         14.1520  -10.3450    1.3210 C.2   166  GLY166      0.2309
    171  O         13.8180  -10.3420    0.1350 O.2   166  GLY166     -0.2863
    172  N          9.5250   -8.3200    9.5730 N.3   170  PHE170     -0.1241
    173  CA         9.2020   -8.5390   10.9650 C.3   170  PHE170      0.1605
    174  C          8.6960   -7.2980   11.6460 C.2   170  PHE170      0.2264
    175  O          9.3380   -6.2530   11.5510 O.2   170  PHE170     -0.2867
    176  CB        10.4340   -9.0590   11.7080 C.3   170  PHE170      0.0534
    177  CG        10.9830  -10.3620   11.1560 C.ar  170  PHE170     -0.0203
    178  CD1       10.4620  -11.5810   11.5710 C.ar  170  PHE170     -0.0042
    179  CD2       11.8990  -10.3620   10.1180 C.ar  170  PHE170     -0.0042
    180  CE1       10.9260  -12.7780   11.0290 C.ar  170  PHE170     -0.0003
    181  CE2       12.2910  -11.5730    9.5050 C.ar  170  PHE170     -0.0003
    182  CZ        11.8280  -12.7650    9.9960 C.ar  170  PHE170     -0.0000
@<TRIPOS>BOND
     1   118   117    1
     2   117   116    1
     3   116   115    1
     4   171   170    2
     5   115   114    1
     6   170   169    1
     7   114   111    1
     8   169   168    1
     9   103   104    1
    10   111   110    1
    11   111   112    1
    12   110   105   am
    13   106   105    2
    14   105   104    1
    15   122   121    2
    16   104   107    1
    17   168   162   am
    18   163   162    2
    19   119   112   am
    20   119   120    1
    21   162   161    1
    22   112   113    2
    23   121   120    1
    24   121   125   am
    25   123   120    1
    26   123   124    1
    27   107   109    1
    28   107   108    1
    29   166   165    2
    30   126   125    1
    31   126   127    1
    32   161   160    1
    33   161   164    1
    34   127   128    2
    35   165   164    1
    36   165   167   am
    37    21    20    1
    38   160   158   am
    39   158   159    2
    40   158   157    1
    41    20    19    1
    42    19    18    1
    43   157   156    1
    44   144   143   ar
    45   144   142   ar
    46   143   141   ar
    47   129   130    1
    48   156   154   am
    49    18    17    1
    50   141   140   ar
    51   142   140   ar
    52    17    14    1
    53   155   154    2
    54   140   139    1
    55   154   153    1
    56    16    15    2
    57   181   182   ar
    58   181   179   ar
    59   172   173    1
    60    13    14    1
    61    13    11   am
    62   139   136    1
    63    14    15    1
    64   130   133    1
    65   130   131    1
    66   182   180   ar
    67    15    22   am
    68   179   177   ar
    69   132   131    2
    70    72    71    1
    71   134   133    1
    72   153   152    1
    73    10    11    1
    74    10     9    1
    75    11    12    2
    76    22    23    1
    77   173   174    1
    78   173   176    1
    79   180   178   ar
    80    69    71   ar
    81    69    67   ar
    82   152   147   am
    83   177   178   ar
    84   177   176    1
    85    71    70   ar
    86    24    23    1
    87    24    25    2
    88    23    26    1
    89     4     3    2
    90   136   137    1
    91   136   135    1
    92   175   174    2
    93     9     3   am
    94   137   138    2
    95   137   145   am
    96   147   148    2
    97   147   146    1
    98     3     2    1
    99    67    66   ar
   100    70    68   ar
   101   145   146    1
   102    29    31   ar
   103    29    27   ar
   104    26    27    1
   105   102   101    1
   106    31    32   ar
   107   146   149    1
   108    27    28   ar
   109    32    30   ar
   110    66    68   ar
   111    66    65    1
   112    28    30   ar
   113     2     1    1
   114     2     5    1
   115    95    94    1
   116    41    42   ar
   117    41    39   ar
   118    97    98    1
   119    97    91   am
   120    65    62    1
   121    80    78    1
   122    98   101    1
   123    98    99    1
   124    84    83    2
   125    42    40   ar
   126     5     6    1
   127   149   151    1
   128   149   150    1
   129    39    38   ar
   130    79    77    1
   131    94    96    1
   132    94    93    1
   133    90    91    1
   134    90    93    1
   135    90    89    1
   136    77    78    1
   137    77    74    1
   138    62    61    1
   139    62    63    1
   140    91    92    2
   141     7     6    2
   142    40    38   ar
   143    83    89   am
   144    83    82    1
   145    99   100    2
   146     6     8   am
   147    38    37    1
   148    64    63    2
   149    81    82    1
   150    81    75   am
   151    85    82    1
   152    85    86    1
   153    74    75    1
   154    74    73    1
   155    87    86    1
   156    37    34    1
   157    36    35    2
   158    75    76    2
   159    86    88    1
   160    35    34    1
   161    34    33    1
   162    59    58   ar
   163    58    57    1
   164    58    60   ar
   165    57    56    1
   166    56    53    1
   167    55    54    2
   168    51    50    1
   169    54    53    1
   170    53    52    1
   171    50    49    1
   172    49    48    1
   173    48    47    1
   174    46    45    2
   175    45    44    1
   176    47    44    1
   177    44    43    1
