@<TRIPOS>MOLECULE
tmp/5fx8A00.pdb
 80 75 0 0 0
SMALL
GASTEIGER

@<TRIPOS>ATOM
      1  N         79.1810   27.2070  119.0000 N.3   107  LYS107     -0.1231
      2  CA        80.1390   26.1200  118.9530 C.3   107  LYS107      0.1693
      3  C         81.5150   26.6850  119.2090 C.2   107  LYS107      0.2592
      4  O         81.9670   27.5780  118.4900 O.2   107  LYS107     -0.2718
      5  CB        80.0860   25.4060  117.6100 C.3   107  LYS107      0.0285
      6  CG        79.2440   24.1440  117.6040 C.3   107  LYS107      0.0035
      7  CD        77.8020   24.4040  117.2360 C.3   107  LYS107      0.0206
      8  CE        77.1160   23.1000  116.8070 C.3   107  LYS107      0.1093
      9  NZ        75.6900   23.2480  116.3910 N.3   107  LYS107     -0.1314
     10  N         82.1420   26.1940  120.2780 N.am  108  GLY108     -0.1957
     11  CA        83.4710   26.5680  120.6630 C.3   108  GLY108      0.1869
     12  C         83.5270   27.6310  121.7180 C.2   108  GLY108      0.2309
     13  O         84.6060   27.9020  122.2400 O.2   108  GLY108     -0.2863
     14  N         84.2130   25.3610  124.9490 N.3   111  SER111     -0.1202
     15  CA        85.4400   24.5760  124.8780 C.3   111  SER111      0.2020
     16  C         86.6760   25.4480  124.9310 C.2   111  SER111      0.2618
     17  O         87.7020   25.0440  125.4860 O.2   111  SER111     -0.2717
     18  CB        85.4680   23.7730  123.5960 C.3   111  SER111      0.2103
     19  OG        84.1980   23.2650  123.3400 O.3   111  SER111     -0.2182
     20  N         86.6230   26.6180  124.3060 N.am  112  ASN112     -0.1974
     21  CA        87.8140   27.4140  124.0620 C.3   112  ASN112      0.1688
     22  C         87.7350   28.7430  124.7850 C.2   112  ASN112      0.2292
     23  O         88.3220   29.7270  124.3460 O.2   112  ASN112     -0.2864
     24  CB        88.0210   27.6210  122.5660 C.3   112  ASN112      0.1181
     25  CG        87.9350   26.3330  121.7920 C.2   112  ASN112      0.2629
     26  OD1       88.1580   25.2680  122.3460 O.2   112  ASN112     -0.2716
     27  ND2       87.6090   26.4220  120.5010 N.am  112  ASN112     -0.0877
     28  N         90.6430   31.0740  125.5780 N.3   115  SER115     -0.1217
     29  CA        91.5070   31.4200  124.4670 C.3   115  SER115      0.1889
     30  C         91.5700   32.9240  124.2880 C.2   115  SER115      0.2288
     31  O         90.5410   33.6020  124.2750 O.2   115  SER115     -0.2866
     32  CB        90.9970   30.7620  123.1980 C.3   115  SER115      0.2089
     33  OG        91.4660   31.4580  122.0850 O.3   115  SER115     -0.2183
     34  N         92.7490   34.3890  121.5840 N.3   117  LEU117     -0.1245
     35  CA        92.3210   34.6860  120.2230 C.3   117  LEU117      0.1561
     36  C         90.8080   34.7970  120.1470 C.2   117  LEU117      0.2260
     37  O         90.2750   35.6310  119.4130 O.2   117  LEU117     -0.2867
     38  CB        92.8280   33.6260  119.2520 C.3   117  LEU117      0.0270
     39  CG        92.3630   33.7970  117.8010 C.3   117  LEU117      0.0019
     40  CD1       93.0440   34.9430  117.1630 C.3   117  LEU117      0.0001
     41  CD2       92.5970   32.5750  116.9940 C.3   117  LEU117      0.0001
     42  N         84.7400   23.9580  112.0370 N.3   536  PHE536     -0.1241
     43  CA        86.1250   24.2840  112.3100 C.3   536  PHE536      0.1605
     44  C         87.0390   23.6470  111.2830 C.2   536  PHE536      0.2264
     45  O         86.7770   22.5430  110.8160 O.2   536  PHE536     -0.2867
     46  CB        86.5060   23.8090  113.7030 C.3   536  PHE536      0.0534
     47  CG        85.7710   24.4950  114.7910 C.ar  536  PHE536     -0.0203
     48  CD1       86.1590   25.7480  115.2120 C.ar  536  PHE536     -0.0042
     49  CD2       84.7030   23.8810  115.4150 C.ar  536  PHE536     -0.0042
     50  CE1       85.4980   26.3730  116.2220 C.ar  536  PHE536     -0.0003
     51  CE2       84.0380   24.5020  116.4300 C.ar  536  PHE536     -0.0003
     52  CZ        84.4380   25.7500  116.8390 C.ar  536  PHE536     -0.0000
     53  N         92.9670   23.8820  111.9910 N.3   539  LYS539     -0.1231
     54  CA        93.5510   24.5630  113.1250 C.3   539  LYS539      0.1693
     55  C         92.5430   24.8700  114.2140 C.2   539  LYS539      0.2593
     56  O         92.8430   25.6660  115.0960 O.2   539  LYS539     -0.2718
     57  CB        94.2330   25.8420  112.6730 C.3   539  LYS539      0.0285
     58  CG        95.5410   25.6150  111.9460 C.3   539  LYS539      0.0035
     59  CD        96.5770   26.6610  112.3690 C.3   539  LYS539      0.0206
     60  CE        96.0640   28.1070  112.2060 C.3   539  LYS539      0.1093
     61  NZ        97.0310   29.1440  112.7090 N.3   539  LYS539     -0.1314
     62  N         91.3650   24.2660  114.1950 N.am  540  GLY540     -0.1942
     63  CA        90.3920   24.6190  115.2150 C.3   540  GLY540      0.2014
     64  C         89.7930   26.0040  115.0740 C.2   540  GLY540      0.2638
     65  O         89.3020   26.5610  116.0540 O.2   540  GLY540     -0.2714
     66  N         89.8020   26.5700  113.8760 N.am  541  LEU541     -0.1977
     67  CA        89.3260   27.9200  113.6620 C.3   541  LEU541      0.1596
     68  C         88.1570   27.9400  112.6940 C.2   541  LEU541      0.2287
     69  O         88.0890   27.1340  111.7630 O.2   541  LEU541     -0.2864
     70  CB        90.4250   28.7930  113.1230 C.3   541  LEU541      0.0297
     71  CG        91.6420   28.9330  114.0060 C.3   541  LEU541      0.0022
     72  CD1       92.6100   29.8380  113.2980 C.3   541  LEU541      0.0001
     73  CD2       91.2380   29.5230  115.3110 C.3   541  LEU541      0.0001
     74  N         88.1950   30.8060  117.3020 N.3   546  PRO546     -0.2116
     75  CA        87.9670   29.5440  118.0050 C.3   546  PRO546      0.1372
     76  C         86.5150   29.2640  118.3410 C.2   546  PRO546      0.2244
     77  O         86.2400   28.4240  119.2030 O.2   546  PRO546     -0.2868
     78  CB        88.7980   29.7100  119.2820 C.3   546  PRO546      0.0268
     79  CG        89.7280   30.8040  118.9940 C.3   546  PRO546      0.0207
     80  CD        89.0080   31.7250  118.1020 C.3   546  PRO546      0.0892
@<TRIPOS>BOND
     1    45    44    2
     2    44    43    1
     3    69    68    2
     4    58    59    1
     5    58    57    1
     6    53    54    1
     7    42    43    1
     8    60    59    1
     9    60    61    1
    10    43    46    1
    11    57    54    1
    12    68    67    1
    13    70    67    1
    14    70    71    1
    15    54    55    1
    16    72    71    1
    17    67    66    1
    18    46    47    1
    19    66    64   am
    20    71    73    1
    21    62    55   am
    22    62    63    1
    23    55    56    2
    24    47    48   ar
    25    47    49   ar
    26    64    63    1
    27    64    65    2
    28    48    50   ar
    29    49    51   ar
    30    50    52   ar
    31     9     8    1
    32    51    52   ar
    33     8     7    1
    34    41    39    1
    35    40    39    1
    36     7     6    1
    37    74    75    1
    38    74    80    1
    39     6     5    1
    40     5     2    1
    41    39    38    1
    42    75    76    1
    43    75    78    1
    44    80    79    1
    45    76    77    2
    46     4     3    2
    47     2     1    1
    48     2     3    1
    49    79    78    1
    50     3    10   am
    51    38    35    1
    52    37    36    2
    53    36    35    1
    54    35    34    1
    55    10    11    1
    56    27    25   am
    57    11    12    1
    58    12    13    2
    59    25    26    2
    60    25    24    1
    61    33    32    1
    62    24    21    1
    63    32    29    1
    64    19    18    1
    65    18    15    1
    66    21    20    1
    67    21    22    1
    68    31    30    2
    69    30    29    1
    70    20    16   am
    71    23    22    2
    72    29    28    1
    73    15    16    1
    74    15    14    1
    75    16    17    2
