@<TRIPOS>MOLECULE
tmp/5fx8B05.pdb
 80 75 0 0 0
SMALL
GASTEIGER

@<TRIPOS>ATOM
      1  N         35.7740   17.6640  143.9590 N.3   106  LYS106     -0.1231
      2  CA        34.8960   16.5140  143.7820 C.3   106  LYS106      0.1693
      3  C         33.5500   16.9490  143.2160 C.2   106  LYS106      0.2592
      4  O         32.8610   17.7940  143.7890 O.2   106  LYS106     -0.2718
      5  CB        34.6800   15.7900  145.1110 C.3   106  LYS106      0.0285
      6  CG        35.8900   15.7480  146.0190 C.3   106  LYS106      0.0035
      7  CD        36.9310   14.7410  145.5740 C.3   106  LYS106      0.0206
      8  CE        38.1870   14.9260  146.4000 C.3   106  LYS106      0.1093
      9  NZ        38.6260   16.3630  146.3700 N.3   106  LYS106     -0.1314
     10  N         33.1690   16.3580  142.0960 N.am  107  GLY107     -0.1957
     11  CA        31.8940   16.6280  141.5030 C.3   107  GLY107      0.1869
     12  C         31.9160   17.7090  140.4590 C.2   107  GLY107      0.2309
     13  O         30.9910   17.7860  139.6490 O.2   107  GLY107     -0.2863
     14  N         32.2340   15.4500  137.2570 N.3   110  SER110     -0.1202
     15  CA        31.1400   14.5270  136.9870 C.3   110  SER110      0.2020
     16  C         29.8020   15.2460  136.8280 C.2   110  SER110      0.2618
     17  O         28.9500   14.8240  136.0360 O.2   110  SER110     -0.2717
     18  CB        31.0680   13.5040  138.1020 C.3   110  SER110      0.2103
     19  OG        31.4470   14.1230  139.3090 O.3   110  SER110     -0.2182
     20  N         29.5840   16.3180  137.5740 N.am  111  ASN111     -0.1974
     21  CA        28.3100   17.0160  137.5340 C.3   111  ASN111      0.1688
     22  C         28.4120   18.3240  136.7710 C.2   111  ASN111      0.2292
     23  O         27.7230   19.2860  137.0950 O.2   111  ASN111     -0.2864
     24  CB        27.8000   17.2620  138.9500 C.3   111  ASN111      0.1181
     25  CG        27.9040   16.0300  139.8200 C.2   111  ASN111      0.2629
     26  OD1       27.8640   14.9200  139.3170 O.2   111  ASN111     -0.2716
     27  ND2       28.0400   16.2220  141.1200 N.am  111  ASN111     -0.0877
     28  N         25.3900   20.3970  135.5320 N.3   114  SER114     -0.1217
     29  CA        24.3290   20.6860  136.4930 C.3   114  SER114      0.1889
     30  C         24.0670   22.1840  136.6360 C.2   114  SER114      0.2288
     31  O         24.9790   22.9610  136.9200 O.2   114  SER114     -0.2866
     32  CB        24.6930   20.1060  137.8520 C.3   114  SER114      0.2089
     33  OG        24.1430   20.9090  138.8770 O.3   114  SER114     -0.2183
     34  N         22.4960   23.4680  139.0510 N.3   116  LEU116     -0.1245
     35  CA        22.6530   23.8140  140.4580 C.3   116  LEU116      0.1561
     36  C         24.1130   24.0480  140.7760 C.2   116  LEU116      0.2260
     37  O         24.4550   24.8920  141.6100 O.2   116  LEU116     -0.2867
     38  CB        22.0750   22.7170  141.3520 C.3   116  LEU116      0.0270
     39  CG        22.0620   22.9860  142.8610 C.3   116  LEU116      0.0019
     40  CD1       21.0440   24.0150  143.2140 C.3   116  LEU116      0.0001
     41  CD2       21.8150   21.7470  143.6670 C.3   116  LEU116      0.0001
     42  N         29.4620   14.0960  149.7120 N.3   529  PHE529     -0.1241
     43  CA        28.1120   14.1380  149.1900 C.3   529  PHE529      0.1605
     44  C         27.1870   13.3000  150.0510 C.2   529  PHE529      0.2264
     45  O         27.5380   12.2010  150.4760 O.2   529  PHE529     -0.2867
     46  CB        28.0840   13.6350  147.7570 C.3   529  PHE529      0.0534
     47  CG        28.9460   14.4170  146.8160 C.ar  529  PHE529     -0.0203
     48  CD1       28.4770   15.5850  146.2370 C.ar  529  PHE529     -0.0042
     49  CD2       30.2060   13.9620  146.4740 C.ar  529  PHE529     -0.0042
     50  CE1       29.2460   16.2790  145.3490 C.ar  529  PHE529     -0.0003
     51  CE2       30.9850   14.6580  145.5900 C.ar  529  PHE529     -0.0003
     52  CZ        30.5090   15.8190  145.0250 C.ar  529  PHE529     -0.0000
     53  N         21.4530   12.9060  148.6370 N.3   532  LYS532     -0.1231
     54  CA        20.9950   13.4900  147.3900 C.3   532  LYS532      0.1693
     55  C         22.1300   14.0980  146.5770 C.2   532  LYS532      0.2593
     56  O         21.8820   14.9440  145.7140 O.2   532  LYS532     -0.2718
     57  CB        19.8930   14.5090  147.6530 C.3   532  LYS532      0.0285
     58  CG        18.5070   13.9470  147.3870 C.3   532  LYS532      0.0035
     59  CD        17.6450   13.8970  148.6360 C.3   532  LYS532      0.0206
     60  CE        17.3990   15.2890  149.2050 C.3   532  LYS532      0.1093
     61  NZ        16.3200   15.3640  150.2260 N.3   532  LYS532     -0.1314
     62  N         23.3580   13.6400  146.7900 N.am  533  GLY533     -0.1942
     63  CA        24.4530   14.0650  145.9440 C.3   533  GLY533      0.2014
     64  C         24.8830   15.4950  146.1510 C.2   533  GLY533      0.2638
     65  O         25.4250   16.1040  145.2300 O.2   533  GLY533     -0.2714
     66  N         24.6730   16.0460  147.3370 N.am  534  LEU534     -0.1977
     67  CA        24.9810   17.4380  147.5910 C.3   534  LEU534      0.1596
     68  C         25.9700   17.5660  148.7340 C.2   534  LEU534      0.2287
     69  O         25.9940   16.7560  149.6580 O.2   534  LEU534     -0.2864
     70  CB        23.7300   18.2300  147.9160 C.3   534  LEU534      0.0297
     71  CG        22.7400   18.2890  146.7710 C.3   534  LEU534      0.0022
     72  CD1       21.5280   19.1160  147.1340 C.3   534  LEU534      0.0001
     73  CD2       23.4330   18.8940  145.6100 C.3   534  LEU534      0.0001
     74  N         26.2910   20.5210  144.0430 N.3   539  PRO539     -0.2116
     75  CA        26.8280   19.2970  143.4440 C.3   539  PRO539      0.1372
     76  C         28.3470   19.1980  143.4240 C.2   539  PRO539      0.2244
     77  O         28.8850   18.5260  142.5450 O.2   539  PRO539     -0.2868
     78  CB        26.2740   19.3400  142.0130 C.3   539  PRO539      0.0268
     79  CG        25.1210   20.2660  142.0550 C.3   539  PRO539      0.0207
     80  CD        25.4330   21.2690  143.1140 C.3   539  PRO539      0.0892
@<TRIPOS>BOND
     1    28    29    1
     2    17    16    2
     3    29    30    1
     4    29    32    1
     5    30    31    2
     6    22    23    2
     7    22    21    1
     8    16    15    1
     9    16    20   am
    10    15    14    1
    11    15    18    1
    12    21    20    1
    13    21    24    1
    14    32    33    1
    15    18    19    1
    16    24    25    1
    17    34    35    1
    18    26    25    2
    19    13    12    2
    20    25    27   am
    21    35    36    1
    22    35    38    1
    23    12    11    1
    24    36    37    2
    25    38    39    1
    26    11    10    1
    27    78    79    1
    28    78    75    1
    29    79    80    1
    30    10     3   am
    31    77    76    2
    32    39    40    1
    33    39    41    1
    34    80    74    1
    35     3     2    1
    36     3     4    2
    37    76    75    1
    38    75    74    1
    39     2     1    1
    40     2     5    1
    41    52    50   ar
    42    52    51   ar
    43     5     6    1
    44    65    64    2
    45    50    48   ar
    46     7     6    1
    47     7     8    1
    48    51    49   ar
    49    73    71    1
    50    56    55    2
    51    63    64    1
    52    63    62    1
    53    64    66   am
    54    48    47   ar
    55     9     8    1
    56    49    47   ar
    57    55    62   am
    58    55    54    1
    59    71    72    1
    60    71    70    1
    61    47    46    1
    62    66    67    1
    63    58    57    1
    64    58    59    1
    65    54    57    1
    66    54    53    1
    67    67    70    1
    68    67    68    1
    69    46    43    1
    70    59    60    1
    71    68    69    2
    72    43    42    1
    73    43    44    1
    74    60    61    1
    75    44    45    2
