@<TRIPOS>MOLECULE
tmp/5fxdA01.pdb
 156 145 0 0 0
SMALL
GASTEIGER

@<TRIPOS>ATOM
      1  N         13.7090   22.7840   36.3990 N.3    88  ASN88      -0.1225
      2  CA        14.8990   23.1890   37.1140 C.3    88  ASN88       0.1785
      3  C         16.0370   22.2280   36.8450 C.2    88  ASN88       0.2598
      4  O         15.8820   21.0130   36.8320 O.2    88  ASN88      -0.2718
      5  CB        14.5680   23.2900   38.6030 C.3    88  ASN88       0.1169
      6  CG        13.5240   24.3450   38.8920 C.2    88  ASN88       0.2627
      7  OD1       13.1330   25.1970   38.0400 O.2    88  ASN88      -0.2716
      8  ND2       13.2070   24.4190   40.1360 N.am   88  ASN88      -0.0877
      9  N         17.1800   22.8110   36.4890 N.am   89  GLY89      -0.1942
     10  CA        18.3200   22.1420   35.9360 C.3    89  GLY89       0.2014
     11  C         18.4550   22.3300   34.4500 C.2    89  GLY89       0.2638
     12  O         19.5170   22.0050   33.8960 O.2    89  GLY89      -0.2714
     13  N         17.3710   22.6930   33.7890 N.am   90  TYR90      -0.1973
     14  CA        17.3460   22.8740   32.3910 C.3    90  TYR90       0.1639
     15  C         16.9020   24.2590   31.9580 C.2    90  TYR90       0.2290
     16  O         16.7600   24.5830   30.7370 O.2    90  TYR90      -0.2864
     17  CB        16.5100   21.7300   31.7030 C.3    90  TYR90       0.0560
     18  CG        17.0090   20.3670   31.8870 C.ar   90  TYR90      -0.0198
     19  CD1       18.3180   20.0000   31.5590 C.ar   90  TYR90      -0.0009
     20  CD2       16.1690   19.3810   32.4440 C.ar   90  TYR90      -0.0009
     21  CE1       18.7290   18.7240   31.6910 C.ar   90  TYR90       0.0417
     22  CE2       16.5810   18.0580   32.6470 C.ar   90  TYR90       0.0417
     23  CZ        17.8210   17.7110   32.2230 C.ar   90  TYR90       0.1957
     24  OH        18.2930   16.4220   32.3300 O.3    90  TYR90      -0.2866
     25  N         11.5240   12.6080   40.5700 N.3   150  ASP150     -0.1239
     26  CA        11.9610   12.8390   41.9740 C.3   150  ASP150      0.1674
     27  C         11.2470   13.9570   42.7060 C.2   150  ASP150      0.2266
     28  O         11.1020   13.8440   43.9420 O.2   150  ASP150     -0.2867
     29  CB        13.4010   13.1680   42.0370 C.3   150  ASP150      0.1410
     30  CG        14.3000   11.9610   41.7510 C.2   150  ASP150      0.3668
     31  OD1       13.8410   10.8670   41.4610 O.co2 150  ASP150     -0.2456
     32  OD2       15.5140   12.1090   41.8710 O.co2 150  ASP150     -0.2456
     33  N         11.4050   11.4840   32.9980 N.3   165  VAL165     -0.1245
     34  CA        11.4240   10.1350   33.4260 C.3   165  VAL165      0.1561
     35  C         11.0550    9.9650   34.8820 C.2   165  VAL165      0.2260
     36  O         11.3080   10.8290   35.7100 O.2   165  VAL165     -0.2867
     37  CB        12.8260    9.4980   33.2280 C.3   165  VAL165      0.0252
     38  CG1       13.1520    9.3940   31.7670 C.3   165  VAL165      0.0019
     39  CG2       13.9170   10.2720   33.9660 C.3   165  VAL165      0.0019
     40  N         10.2440    6.2830   37.7060 N.3   167  TYR167     -0.1241
     41  CA        10.9430    5.1260   38.1930 C.3   167  TYR167      0.1605
     42  C         10.1290    3.8430   38.4600 C.2   167  TYR167      0.2264
     43  O         10.7100    2.8120   38.8520 O.2   167  TYR167     -0.2867
     44  CB        11.7140    5.5050   39.4480 C.3   167  TYR167      0.0534
     45  CG        12.6010    6.7150   39.1590 C.ar  167  TYR167     -0.0201
     46  CD1       13.8290    6.5600   38.5920 C.ar  167  TYR167     -0.0009
     47  CD2       12.1450    7.9950   39.4150 C.ar  167  TYR167     -0.0009
     48  CE1       14.6170    7.6820   38.2410 C.ar  167  TYR167      0.0417
     49  CE2       12.9050    9.1170   39.0790 C.ar  167  TYR167      0.0417
     50  CZ        14.1270    8.9670   38.5330 C.ar  167  TYR167      0.1957
     51  OH        14.8700   10.0860   38.2080 O.3   167  TYR167     -0.2866
     52  N         23.3250    5.8050   42.1290 N.3   277  ARG277     -0.1245
     53  CA        23.6480    7.1150   42.6190 C.3   277  ARG277      0.1563
     54  C         25.0210    7.0900   43.3120 C.2   277  ARG277      0.2260
     55  O         25.3200    6.1320   44.0060 O.2   277  ARG277     -0.2867
     56  CB        22.5790    7.5680   43.5720 C.3   277  ARG277      0.0307
     57  CG        21.2320    7.8380   42.8620 C.3   277  ARG277      0.0489
     58  CD        20.0580    7.8740   43.7970 C.3   277  ARG277      0.2205
     59  NE        20.1690    8.8850   44.8510 N.pl3 277  ARG277     -0.0865
     60  CZ        19.5340   10.0580   44.9270 C.cat 277  ARG277      0.5346
     61  NH1       18.6940   10.4840   43.9860 N.pl3 277  ARG277      0.1354
     62  NH2       19.7230   10.8330   46.0040 N.pl3 277  ARG277      0.1354
     63  N         25.7330   12.4160   45.3230 N.3   281  MET281     -0.1245
     64  CA        24.2900   12.5610   45.1710 C.3   281  MET281      0.1570
     65  C         23.5830   12.2610   46.5060 C.2   281  MET281      0.2261
     66  O         22.7350   13.0630   46.9660 O.2   281  MET281     -0.2867
     67  CB        23.7440   11.6360   44.0690 C.3   281  MET281      0.0387
     68  CG        22.2420   11.9190   43.7680 C.3   281  MET281      0.0595
     69  SD        21.9160   13.4390   42.9250 S.3   281  MET281     -0.1393
     70  CE        22.4490   13.0560   41.2560 C.3   281  MET281      0.0692
     71  N         13.9230   15.5850   47.9000 N.3   377  GLU377     -0.1245
     72  CA        15.1580   15.8180   47.1690 C.3   377  GLU377      0.1567
     73  C         15.5160   17.2800   46.9600 C.2   377  GLU377      0.2260
     74  O         16.5920   17.5480   46.5390 O.2   377  GLU377     -0.2867
     75  CB        15.1580   15.1550   45.8310 C.3   377  GLU377      0.0388
     76  CG        15.6230   13.7290   45.8520 C.3   377  GLU377      0.1160
     77  CD        16.4880   13.3750   44.6160 C.2   377  GLU377      0.3649
     78  OE1       16.2410   13.8670   43.4550 O.co2 377  GLU377     -0.2457
     79  OE2       17.3800   12.5810   44.8320 O.co2 377  GLU377     -0.2457
     80  N         18.9000   18.5440   48.3360 N.3   380  LEU380     -0.1245
     81  CA        20.1170   18.4960   47.5940 C.3   380  LEU380      0.1561
     82  C         20.6930   19.8850   47.3680 C.2   380  LEU380      0.2260
     83  O         21.8950   20.0360   47.3000 O.2   380  LEU380     -0.2867
     84  CB        19.7740   17.8760   46.2650 C.3   380  LEU380      0.0270
     85  CG        20.4620   16.7320   45.6070 C.3   380  LEU380      0.0019
     86  CD1       19.5450   16.0720   44.6030 C.3   380  LEU380      0.0001
     87  CD2       21.5060   17.4360   44.7940 C.3   380  LEU380      0.0001
     88  N         21.5450   23.5320   40.4950 N.3   389  HIS389     -0.1241
     89  CA        22.1690   22.5150   39.7130 C.3   389  HIS389      0.1621
     90  C         21.8760   22.7200   38.2360 C.2   389  HIS389      0.2264
     91  O         20.9840   23.4750   37.8260 O.2   389  HIS389     -0.2867
     92  CB        21.7570   21.1240   40.1960 C.3   389  HIS389      0.0745
     93  CG        20.3320   20.7200   39.8690 C.ar  389  HIS389      0.0817
     94  ND1       19.8650   20.4570   38.5980 N.ar  389  HIS389     -0.2268
     95  CD2       19.2760   20.4670   40.6860 C.ar  389  HIS389      0.1154
     96  CE1       18.6010   20.0750   38.6410 C.ar  389  HIS389      0.1986
     97  NE2       18.2030   20.0770   39.8970 N.ar  389  HIS389     -0.2212
     98  N         21.7630   20.0220   34.8020 N.3   391  GLY391     -0.1225
     99  CA        21.7620   18.6340   34.3860 C.3   391  GLY391      0.1811
    100  C         22.5410   18.4140   33.1090 C.2   391  GLY391      0.2280
    101  O         22.1250   18.9390   32.0420 O.2   391  GLY391     -0.2866
    102  N         23.5630   10.1790   38.7970 N.3   424  GLN424     -0.1245
    103  CA        22.4080    9.2250   38.9220 C.3   424  GLN424      0.1566
    104  C         22.1870    8.5750   37.5780 C.2   424  GLN424      0.2260
    105  O         21.7130    9.2560   36.6380 O.2   424  GLN424     -0.2867
    106  CB        21.1200    9.9150   39.4130 C.3   424  GLN424      0.0367
    107  CG        19.8360    9.0290   39.3690 C.3   424  GLN424      0.0905
    108  CD        18.7060    9.5180   40.2280 C.2   424  GLN424      0.2608
    109  OE1       18.8740    9.6200   41.4080 O.2   424  GLN424     -0.2717
    110  NE2       17.5380    9.8420   39.6540 N.am  424  GLN424     -0.0878
    111  N         19.9700    6.3540   35.4180 N.3   426  ILE426     -0.1245
    112  CA        18.5770    5.9090   35.3740 C.3   426  ILE426      0.1561
    113  C         18.4890    4.8160   34.3760 C.2   426  ILE426      0.2260
    114  O         18.7120    5.0680   33.1890 O.2   426  ILE426     -0.2867
    115  CB        17.6480    7.0840   35.0250 C.3   426  ILE426      0.0252
    116  CG1       17.9660    8.2300   36.0230 C.3   426  ILE426      0.0019
    117  CG2       16.1590    6.6260   35.0030 C.3   426  ILE426      0.0019
    118  CD1       17.4170    9.5650   35.6730 C.3   426  ILE426      0.0001
    119  N         22.6280   10.8950   34.4580 N.3   435  VAL435     -0.1245
    120  CA        22.3670   12.2420   34.8370 C.3   435  VAL435      0.1561
    121  C         23.5040   12.7200   35.7620 C.2   435  VAL435      0.2260
    122  O         23.8090   12.0830   36.7400 O.2   435  VAL435     -0.2867
    123  CB        21.0150   12.4020   35.4930 C.3   435  VAL435      0.0252
    124  CG1       20.8540   13.8310   35.9990 C.3   435  VAL435      0.0019
    125  CG2       19.9020   11.9860   34.5150 C.3   435  VAL435      0.0019
    126  N         24.5250   15.8690   37.8390 N.3   437  LEU437     -0.1245
    127  CA        24.1010   17.1160   38.3920 C.3   437  LEU437      0.1561
    128  C         25.3350   17.7770   38.9710 C.2   437  LEU437      0.2260
    129  O         26.0290   17.2340   39.8110 O.2   437  LEU437     -0.2867
    130  CB        23.1530   16.9110   39.5530 C.3   437  LEU437      0.0270
    131  CG        21.7530   16.4650   39.3170 C.3   437  LEU437      0.0019
    132  CD1       20.9680   16.5900   40.6170 C.3   437  LEU437      0.0001
    133  CD2       21.0830   17.0950   38.0990 C.3   437  LEU437      0.0001
    134  N         20.3090   13.3370   26.2790 N.3   470  TYR470     -0.1227
    135  CA        18.8540   13.0830   26.0450 C.3   470  TYR470      0.1736
    136  C         18.0120   14.3780   26.1850 C.2   470  TYR470      0.2595
    137  O         16.8360   14.4210   25.7630 O.2   470  TYR470     -0.2718
    138  CB        18.3650   11.9740   26.9670 C.3   470  TYR470      0.0548
    139  CG        17.6150   12.3720   28.2370 C.ar  470  TYR470     -0.0200
    140  CD1       18.2780   12.7680   29.3760 C.ar  470  TYR470     -0.0009
    141  CD2       16.2130   12.3160   28.2720 C.ar  470  TYR470     -0.0009
    142  CE1       17.5770   13.1020   30.5380 C.ar  470  TYR470      0.0417
    143  CE2       15.5010   12.6600   29.4100 C.ar  470  TYR470      0.0417
    144  CZ        16.1790   13.0780   30.5310 C.ar  470  TYR470      0.1957
    145  OH        15.5100   13.4230   31.6110 O.3   470  TYR470     -0.2866
    146  N         18.5460   15.3720   26.9140 N.am  471  ARG471     -0.1980
    147  CA        17.8000   16.5180   27.3500 C.3   471  ARG471      0.1597
    148  C         18.9030   17.5020   27.8360 C.2   471  ARG471      0.2287
    149  O         19.9590   17.0550   28.3570 O.2   471  ARG471     -0.2864
    150  CB        16.9590   16.1760   28.5660 C.3   471  ARG471      0.0334
    151  CG        15.8800   17.1120   28.9930 C.3   471  ARG471      0.0492
    152  CD        15.0660   16.3500   29.9840 C.3   471  ARG471      0.2205
    153  NE        14.0670   17.2000   30.5980 N.pl3 471  ARG471     -0.0865
    154  CZ        13.3640   16.8160   31.6760 C.cat 471  ARG471      0.5346
    155  NH1       13.5200   15.6470   32.2440 N.pl3 471  ARG471      0.1354
    156  NH2       12.4820   17.6760   32.1890 N.pl3 471  ARG471      0.1354
@<TRIPOS>BOND
     1   137   136    2
     2   135   136    1
     3   135   134    1
     4   135   138    1
     5   136   146   am
     6   146   147    1
     7   138   139    1
     8   147   148    1
     9   147   150    1
    10   148   149    2
    11   139   141   ar
    12   139   140   ar
    13   141   143   ar
    14   150   151    1
    15   151   152    1
    16   140   142   ar
    17   143   144   ar
    18   152   153    1
    19   144   142   ar
    20   144   145    1
    21   153   154    2
    22    16    15    2
    23    19    21   ar
    24    19    18   ar
    25   154   156    1
    26   154   155    1
    27    21    23   ar
    28    17    18    1
    29    17    14    1
    30    38    37    1
    31    18    20   ar
    32    15    14    1
    33   101   100    2
    34    23    24    1
    35    23    22   ar
    36    14    13    1
    37    20    22   ar
    38    33    34    1
    39   100    99    1
    40   114   113    2
    41    37    34    1
    42    37    39    1
    43    34    35    1
    44    13    11   am
    45    12    11    2
    46   113   112    1
    47    99    98    1
    48    11    10    1
    49   119   120    1
    50   125   123    1
    51   120   123    1
    52   120   121    1
    53    35    36    2
    54   117   115    1
    55   115   112    1
    56   115   116    1
    57   112   111    1
    58   123   124    1
    59   118   116    1
    60   121   122    2
    61    10     9    1
    62     1     2    1
    63     9     3   am
    64   105   104    2
    65     4     3    2
    66     3     2    1
    67     2     5    1
    68   104   103    1
    69    40    41    1
    70    91    90    2
    71   126   127    1
    72     7     6    2
    73   133   131    1
    74    41    42    1
    75    41    44    1
    76    51    50    1
    77    90    89    1
    78    48    50   ar
    79    48    46   ar
    80   127   128    1
    81   127   130    1
    82    42    43    2
    83    50    49   ar
    84    46    45   ar
    85    94    96   ar
    86    94    93   ar
    87     5     6    1
    88    96    97   ar
    89   102   103    1
    90     6     8   am
    91   103   106    1
    92   128   129    2
    93    49    47   ar
    94    45    47   ar
    95    45    44    1
    96   131   130    1
    97   131   132    1
    98   107   106    1
    99   107   108    1
   100   110   108   am
   101    89    92    1
   102    89    88    1
   103    93    92    1
   104    93    95   ar
   105    97    95   ar
   106   108   109    2
   107    25    26    1
   108    70    69    1
   109    31    30   ar
   110    30    32   ar
   111    30    29    1
   112    26    29    1
   113    26    27    1
   114    52    53    1
   115    53    54    1
   116    53    56    1
   117    27    28    2
   118    57    56    1
   119    57    58    1
   120    69    68    1
   121    54    55    2
   122    78    77   ar
   123    68    67    1
   124    58    59    1
   125    61    60    1
   126    67    64    1
   127    86    85    1
   128    77    79   ar
   129    77    76    1
   130    87    85    1
   131    59    60    2
   132    60    62    1
   133    64    63    1
   134    64    65    1
   135    85    84    1
   136    75    76    1
   137    75    72    1
   138    84    81    1
   139    65    66    2
   140    74    73    2
   141    73    72    1
   142    72    71    1
   143    83    82    2
   144    82    81    1
   145    81    80    1
