@<TRIPOS>MOLECULE
tmp/5fxfA01.pdb
 129 120 0 0 0
SMALL
GASTEIGER

@<TRIPOS>ATOM
      1  N         13.7450   22.8450   36.5490 N.3    88  ASN88      -0.1240
      2  CA        14.9210   23.3010   37.2740 C.3    88  ASN88       0.1653
      3  C         16.0510   22.3300   37.0160 C.2    88  ASN88       0.2266
      4  O         15.9050   21.0960   37.0280 O.2    88  ASN88      -0.2867
      5  CB        14.6370   23.4200   38.7440 C.3    88  ASN88       0.1155
      6  CG        13.5400   24.4490   39.0470 C.2    88  ASN88       0.2627
      7  OD1       13.1710   25.3300   38.2280 O.2    88  ASN88      -0.2716
      8  ND2       13.0990   24.4100   40.2550 N.am   88  ASN88      -0.0877
      9  N         17.4270   22.7340   34.0150 N.3    90  TYR90      -0.1241
     10  CA        17.4270   22.8980   32.5830 C.3    90  TYR90       0.1605
     11  C         16.9800   24.2610   32.1350 C.2    90  TYR90       0.2264
     12  O         16.7970   24.5200   30.8990 O.2    90  TYR90      -0.2867
     13  CB        16.5480   21.8070   31.8900 C.3    90  TYR90       0.0534
     14  CG        17.0650   20.4080   32.0710 C.ar   90  TYR90      -0.0201
     15  CD1       18.3470   20.0830   31.7590 C.ar   90  TYR90      -0.0009
     16  CD2       16.2670   19.4170   32.6740 C.ar   90  TYR90      -0.0009
     17  CE1       18.8100   18.8110   31.9450 C.ar   90  TYR90       0.0417
     18  CE2       16.7030   18.1410   32.8910 C.ar   90  TYR90       0.0417
     19  CZ        17.9460   17.8040   32.5070 C.ar   90  TYR90       0.1957
     20  OH        18.3890   16.5040   32.7320 O.3    90  TYR90      -0.2866
     21  N         11.5600   12.6260   40.7060 N.3   150  ASP150     -0.1239
     22  CA        12.0550   12.8960   42.0510 C.3   150  ASP150      0.1674
     23  C         11.3040   13.9600   42.8270 C.2   150  ASP150      0.2266
     24  O         11.1880   13.8220   44.0330 O.2   150  ASP150     -0.2867
     25  CB        13.5650   13.2310   42.0870 C.3   150  ASP150      0.1410
     26  CG        14.4680   12.0080   41.8030 C.2   150  ASP150      0.3668
     27  OD1       13.9360   10.9330   41.6290 O.co2 150  ASP150     -0.2456
     28  OD2       15.7040   12.1300   41.6470 O.co2 150  ASP150     -0.2456
     29  N         11.4860   11.5200   33.1470 N.3   165  VAL165     -0.1245
     30  CA        11.4840   10.1490   33.5810 C.3   165  VAL165      0.1561
     31  C         11.0760   10.0150   35.0670 C.2   165  VAL165      0.2260
     32  O         11.3350   10.9020   35.9290 O.2   165  VAL165     -0.2867
     33  CB        12.8660    9.4790   33.3590 C.3   165  VAL165      0.0252
     34  CG1       13.2540    9.4970   31.8790 C.3   165  VAL165      0.0019
     35  CG2       13.9280   10.1880   34.1870 C.3   165  VAL165      0.0019
     36  N         10.2110    6.3560   37.8570 N.3   167  TYR167     -0.1241
     37  CA        10.8810    5.1740   38.3900 C.3   167  TYR167      0.1605
     38  C         10.0520    3.9310   38.6200 C.2   167  TYR167      0.2264
     39  O         10.6060    2.8960   39.0230 O.2   167  TYR167     -0.2867
     40  CB        11.7330    5.5090   39.6290 C.3   167  TYR167      0.0534
     41  CG        12.5690    6.7230   39.3790 C.ar  167  TYR167     -0.0201
     42  CD1       13.8080    6.6070   38.7780 C.ar  167  TYR167     -0.0009
     43  CD2       12.0910    8.0050   39.6510 C.ar  167  TYR167     -0.0009
     44  CE1       14.5220    7.7130   38.4530 C.ar  167  TYR167      0.0417
     45  CE2       12.8230    9.1580   39.3280 C.ar  167  TYR167      0.0417
     46  CZ        14.0630    9.0060   38.7730 C.ar  167  TYR167      0.1957
     47  OH        14.8420   10.1420   38.4110 O.3   167  TYR167     -0.2866
     48  N         25.5160   12.5100   45.6030 N.3   281  MET281     -0.1245
     49  CA        24.0640   12.6100   45.4470 C.3   281  MET281      0.1570
     50  C         23.3740   12.2560   46.7610 C.2   281  MET281      0.2261
     51  O         22.4700   12.9570   47.2320 O.2   281  MET281     -0.2867
     52  CB        23.5830   11.6710   44.3060 C.3   281  MET281      0.0387
     53  CG        22.1190   11.8420   43.8940 C.3   281  MET281      0.0595
     54  SD        21.7210   13.3810   43.0710 S.3   281  MET281     -0.1393
     55  CE        22.3720   13.1010   41.4510 C.3   281  MET281      0.0692
     56  N         13.9240   15.4880   48.0900 N.3   377  GLU377     -0.1245
     57  CA        15.1150   15.7450   47.2560 C.3   377  GLU377      0.1567
     58  C         15.5150   17.2510   47.1180 C.2   377  GLU377      0.2260
     59  O         16.6200   17.5580   46.7040 O.2   377  GLU377     -0.2867
     60  CB        14.9330   15.1840   45.8410 C.3   377  GLU377      0.0388
     61  CG        15.3790   13.7580   45.5620 C.3   377  GLU377      0.1160
     62  CD        16.5890   13.6130   44.5930 C.2   377  GLU377      0.3649
     63  OE1       16.5470   14.0430   43.3930 O.co2 377  GLU377     -0.2457
     64  OE2       17.6030   13.0200   45.0150 O.co2 377  GLU377     -0.2457
     65  N         21.5310   23.4710   40.7970 N.3   389  HIS389     -0.1241
     66  CA        22.2090   22.5230   39.9130 C.3   389  HIS389      0.1621
     67  C         21.9090   22.7230   38.4180 C.2   389  HIS389      0.2264
     68  O         21.0340   23.4730   38.0310 O.2   389  HIS389     -0.2867
     69  CB        21.8810   21.1320   40.3910 C.3   389  HIS389      0.0745
     70  CG        20.4710   20.6770   40.0670 C.ar  389  HIS389      0.0817
     71  ND1       20.1030   20.2450   38.8330 N.ar  389  HIS389     -0.2268
     72  CD2       19.3470   20.5600   40.8370 C.ar  389  HIS389      0.1154
     73  CE1       18.8150   19.9370   38.8120 C.ar  389  HIS389      0.1986
     74  NE2       18.3080   20.1440   40.0160 N.ar  389  HIS389     -0.2212
     75  N         23.4040   10.1910   39.0210 N.3   424  GLN424     -0.1245
     76  CA        22.2740    9.2480   39.1100 C.3   424  GLN424      0.1566
     77  C         22.0920    8.6070   37.7830 C.2   424  GLN424      0.2260
     78  O         21.5540    9.2590   36.8570 O.2   424  GLN424     -0.2867
     79  CB        20.9920    9.9690   39.5470 C.3   424  GLN424      0.0367
     80  CG        19.6890    9.1250   39.6230 C.3   424  GLN424      0.0905
     81  CD        18.6300    9.7870   40.4720 C.2   424  GLN424      0.2608
     82  OE1       18.8960   10.1090   41.6210 O.2   424  GLN424     -0.2717
     83  NE2       17.4560   10.0600   39.9200 N.am  424  GLN424     -0.0878
     84  N         19.9390    6.3620   35.6370 N.3   426  ILE426     -0.1245
     85  CA        18.5200    5.9690   35.5590 C.3   426  ILE426      0.1561
     86  C         18.4250    4.8750   34.5070 C.2   426  ILE426      0.2260
     87  O         18.6750    5.1290   33.3380 O.2   426  ILE426     -0.2867
     88  CB        17.6580    7.1580   35.2420 C.3   426  ILE426      0.0252
     89  CG1       17.8780    8.2490   36.3080 C.3   426  ILE426      0.0019
     90  CG2       16.2020    6.7110   35.1620 C.3   426  ILE426      0.0019
     91  CD1       17.4520    9.6080   35.8680 C.3   426  ILE426      0.0001
     92  N         22.5300   10.8330   34.5540 N.3   435  VAL435     -0.1245
     93  CA        22.3430   12.1880   34.9740 C.3   435  VAL435      0.1561
     94  C         23.4700   12.6740   35.8970 C.2   435  VAL435      0.2260
     95  O         23.7250   12.0770   36.9180 O.2   435  VAL435     -0.2867
     96  CB        21.0060   12.3710   35.6540 C.3   435  VAL435      0.0252
     97  CG1       20.8710   13.8190   36.1440 C.3   435  VAL435      0.0019
     98  CG2       19.8650   11.9940   34.6540 C.3   435  VAL435      0.0019
     99  N         24.5240   15.7980   38.0520 N.3   437  LEU437     -0.1245
    100  CA        24.1080   17.0490   38.5940 C.3   437  LEU437      0.1561
    101  C         25.3270   17.7210   39.2250 C.2   437  LEU437      0.2260
    102  O         25.9610   17.1790   40.0980 O.2   437  LEU437     -0.2867
    103  CB        23.0760   16.8620   39.6460 C.3   437  LEU437      0.0270
    104  CG        21.7110   16.3460   39.1880 C.3   437  LEU437      0.0019
    105  CD1       20.7710   16.4970   40.3820 C.3   437  LEU437      0.0001
    106  CD2       21.0930   16.9720   37.9250 C.3   437  LEU437      0.0001
    107  N         20.3980   13.3400   26.4000 N.3   470  TYR470     -0.1227
    108  CA        18.9360   13.0620   26.1690 C.3   470  TYR470      0.1736
    109  C         18.0950   14.3110   26.3630 C.2   470  TYR470      0.2595
    110  O         16.9470   14.3730   25.9140 O.2   470  TYR470     -0.2718
    111  CB        18.4710   11.9420   27.1200 C.3   470  TYR470      0.0548
    112  CG        17.6540   12.3270   28.3340 C.ar  470  TYR470     -0.0200
    113  CD1       18.2350   12.6910   29.5330 C.ar  470  TYR470     -0.0009
    114  CD2       16.2510   12.3360   28.2630 C.ar  470  TYR470     -0.0009
    115  CE1       17.4520   13.0570   30.6450 C.ar  470  TYR470      0.0417
    116  CE2       15.4740   12.6740   29.3600 C.ar  470  TYR470      0.0417
    117  CZ        16.0820   13.0350   30.5480 C.ar  470  TYR470      0.1957
    118  OH        15.2790   13.3620   31.6030 O.3   470  TYR470     -0.2866
    119  N         18.6470   15.3080   27.0840 N.am  471  ARG471     -0.1980
    120  CA        17.9250   16.4840   27.5750 C.3   471  ARG471      0.1597
    121  C         18.9560   17.4900   28.0520 C.2   471  ARG471      0.2287
    122  O         19.9820   17.0490   28.6080 O.2   471  ARG471     -0.2864
    123  CB        17.1150   16.1100   28.8460 C.3   471  ARG471      0.0334
    124  CG        15.9880   17.0570   29.2160 C.3   471  ARG471      0.0492
    125  CD        15.1160   16.3100   30.2160 C.3   471  ARG471      0.2205
    126  NE        14.1290   17.1720   30.8570 N.pl3 471  ARG471     -0.0865
    127  CZ        13.3940   16.8160   31.9030 C.cat 471  ARG471      0.5346
    128  NH1       13.5350   15.6450   32.4720 N.pl3 471  ARG471      0.1354
    129  NH2       12.5800   17.6930   32.4490 N.pl3 471  ARG471      0.1354
@<TRIPOS>BOND
     1   110   109    2
     2   108   109    1
     3   108   107    1
     4   108   111    1
     5   109   119   am
     6   119   120    1
     7   111   112    1
     8   120   121    1
     9   120   123    1
    10   121   122    2
    11   114   112   ar
    12   114   116   ar
    13   112   113   ar
    14   123   124    1
    15   124   125    1
    16   116   117   ar
    17   113   115   ar
    18   125   126    1
    19   117   115   ar
    20   117   118    1
    21   126   127    2
    22    12    11    2
    23    15    17   ar
    24    15    14   ar
    25    34    33    1
    26    13    14    1
    27    13    10    1
    28   127   129    1
    29   127   128    1
    30    17    19   ar
    31    14    16   ar
    32    11    10    1
    33    19    20    1
    34    19    18   ar
    35    10     9    1
    36    16    18   ar
    37    29    30    1
    38    87    86    2
    39    33    30    1
    40    33    35    1
    41    30    31    1
    42    86    85    1
    43    92    93    1
    44    98    96    1
    45    93    96    1
    46    93    94    1
    47    31    32    2
    48    90    88    1
    49    88    85    1
    50    88    89    1
    51    85    84    1
    52    96    97    1
    53    91    89    1
    54    94    95    2
    55     1     2    1
    56    78    77    2
    57     3     4    2
    58     3     2    1
    59     2     5    1
    60    77    76    1
    61    36    37    1
    62   106   104    1
    63    68    67    2
    64    99   100    1
    65     7     6    2
    66    37    38    1
    67    37    40    1
    68    47    46    1
    69    67    66    1
    70    44    46   ar
    71    44    42   ar
    72   100   101    1
    73   100   103    1
    74    38    39    2
    75     5     6    1
    76    46    45   ar
    77    42    41   ar
    78    73    71   ar
    79    73    74   ar
    80    71    70   ar
    81    75    76    1
    82     6     8   am
    83    76    79    1
    84   104   103    1
    85   104   105    1
    86   101   102    2
    87    45    43   ar
    88    41    40    1
    89    41    43   ar
    90    79    80    1
    91    80    81    1
    92    66    69    1
    93    66    65    1
    94    83    81   am
    95    74    72   ar
    96    70    69    1
    97    70    72   ar
    98    81    82    2
    99    21    22    1
   100    55    54    1
   101    27    26   ar
   102    28    26   ar
   103    26    25    1
   104    22    25    1
   105    22    23    1
   106    23    24    2
   107    54    53    1
   108    63    62   ar
   109    53    52    1
   110    52    49    1
   111    62    64   ar
   112    62    61    1
   113    49    48    1
   114    49    50    1
   115    61    60    1
   116    60    57    1
   117    59    58    2
   118    50    51    2
   119    58    57    1
   120    57    56    1
