@<TRIPOS>MOLECULE
tmp/5fxpA01.pdb
 145 135 0 0 0
SMALL
GASTEIGER

@<TRIPOS>ATOM
      1  N         13.7510   22.8540   36.7900 N.3    88  ASN88      -0.1225
      2  CA        14.9310   23.3220   37.4850 C.3    88  ASN88       0.1785
      3  C         16.0490   22.3490   37.2160 C.2    88  ASN88       0.2598
      4  O         15.8440   21.1460   37.2560 O.2    88  ASN88      -0.2718
      5  CB        14.6670   23.3960   38.9790 C.3    88  ASN88       0.1169
      6  CG        13.5990   24.4130   39.3410 C.2    88  ASN88       0.2627
      7  OD1       13.3220   25.3620   38.5950 O.2    88  ASN88      -0.2716
      8  ND2       12.9910   24.2150   40.4970 N.am   88  ASN88      -0.0877
      9  N         17.2230   22.8640   36.9060 N.am   89  GLY89      -0.1942
     10  CA        18.3100   22.0310   36.4180 C.3    89  GLY89       0.2014
     11  C         18.4320   22.1760   34.9230 C.2    89  GLY89       0.2638
     12  O         19.4770   21.8700   34.3610 O.2    89  GLY89      -0.2714
     13  N         17.3650   22.6410   34.2730 N.am   90  TYR90      -0.1973
     14  CA        17.3800   22.8580   32.8400 C.3    90  TYR90       0.1639
     15  C         16.9460   24.2600   32.4080 C.2    90  TYR90       0.2290
     16  O         16.8060   24.5100   31.2200 O.2    90  TYR90      -0.2864
     17  CB        16.5210   21.7990   32.1920 C.3    90  TYR90       0.0560
     18  CG        17.0450   20.3940   32.3850 C.ar   90  TYR90      -0.0198
     19  CD1       18.3060   20.0200   31.9180 C.ar   90  TYR90      -0.0009
     20  CD2       16.2600   19.4220   32.9910 C.ar   90  TYR90      -0.0009
     21  CE1       18.7650   18.7140   32.0730 C.ar   90  TYR90       0.0417
     22  CE2       16.7050   18.1270   33.1450 C.ar   90  TYR90       0.0417
     23  CZ        17.9470   17.7640   32.6880 C.ar   90  TYR90       0.1957
     24  OH        18.3600   16.4480   32.8700 O.3    90  TYR90      -0.2866
     25  N         11.6660   12.3940   41.0090 N.3   150  ASP150     -0.1239
     26  CA        12.2190   12.7260   42.3420 C.3   150  ASP150      0.1674
     27  C         11.5200   13.8620   43.0340 C.2   150  ASP150      0.2266
     28  O         11.4720   13.8770   44.2530 O.2   150  ASP150     -0.2867
     29  CB        13.7130   13.0860   42.2260 C.3   150  ASP150      0.1410
     30  CG        14.6170   11.8510   41.9890 C.2   150  ASP150      0.3668
     31  OD1       14.1040   10.7140   42.0850 O.co2 150  ASP150     -0.2456
     32  OD2       15.8480   12.0110   41.7380 O.co2 150  ASP150     -0.2456
     33  N         11.7340   11.3320   33.2380 N.3   165  VAL165     -0.1245
     34  CA        11.6610    9.9410   33.6480 C.3   165  VAL165      0.1561
     35  C         11.2490    9.8330   35.0980 C.2   165  VAL165      0.2260
     36  O         11.3980   10.7620   35.8810 O.2   165  VAL165     -0.2867
     37  CB        12.9980    9.2020   33.4260 C.3   165  VAL165      0.0252
     38  CG1       13.3010    9.2050   31.9590 C.3   165  VAL165      0.0019
     39  CG2       14.1530    9.8550   34.1810 C.3   165  VAL165      0.0019
     40  N         10.2190    6.2600   38.0280 N.3   167  TYR167     -0.1241
     41  CA        10.9060    5.0930   38.6090 C.3   167  TYR167      0.1605
     42  C         10.0760    3.8290   38.8380 C.2   167  TYR167      0.2264
     43  O         10.6500    2.8110   39.2150 O.2   167  TYR167     -0.2867
     44  CB        11.7150    5.5100   39.8560 C.3   167  TYR167      0.0534
     45  CG        12.6210    6.6860   39.5540 C.ar  167  TYR167     -0.0201
     46  CD1       13.8460    6.5140   38.9170 C.ar  167  TYR167     -0.0009
     47  CD2       12.2080    7.9880   39.8060 C.ar  167  TYR167     -0.0009
     48  CE1       14.6480    7.6090   38.5900 C.ar  167  TYR167      0.0417
     49  CE2       12.9990    9.0770   39.4730 C.ar  167  TYR167      0.0417
     50  CZ        14.2190    8.8910   38.8680 C.ar  167  TYR167      0.1957
     51  OH        14.9940    9.9940   38.5600 O.3   167  TYR167     -0.2866
     52  N         25.8630   12.3840   45.8990 N.3   281  MET281     -0.1245
     53  CA        24.4140   12.5090   45.6500 C.3   281  MET281      0.1570
     54  C         23.6370   12.1270   46.9070 C.2   281  MET281      0.2261
     55  O         22.7740   12.8760   47.3190 O.2   281  MET281     -0.2867
     56  CB        24.0280   11.6350   44.4280 C.3   281  MET281      0.0387
     57  CG        22.5670   11.5400   44.0100 C.3   281  MET281      0.0595
     58  SD        21.7800   12.9690   43.2520 S.3   281  MET281     -0.1393
     59  CE        22.4330   12.9840   41.5870 C.3   281  MET281      0.0692
     60  N         14.2240   15.3530   48.1420 N.3   377  GLU377     -0.1245
     61  CA        15.3550   15.6780   47.2830 C.3   377  GLU377      0.1567
     62  C         15.6810   17.1690   47.1710 C.2   377  GLU377      0.2260
     63  O         16.7590   17.5030   46.7360 O.2   377  GLU377     -0.2867
     64  CB        15.1360   15.0810   45.8750 C.3   377  GLU377      0.0388
     65  CG        15.3170   13.5550   45.7940 C.3   377  GLU377      0.1160
     66  CD        16.7560   13.1340   45.4930 C.2   377  GLU377      0.3649
     67  OE1       17.1520   13.0690   44.2810 O.co2 377  GLU377     -0.2457
     68  OE2       17.4860   12.8690   46.4850 O.co2 377  GLU377     -0.2457
     69  N         19.1550   18.3600   48.7940 N.3   380  LEU380     -0.1245
     70  CA        20.3460   18.4690   47.9170 C.3   380  LEU380      0.1561
     71  C         20.8990   19.8610   47.7170 C.2   380  LEU380      0.2260
     72  O         22.0950   20.0440   47.6960 O.2   380  LEU380     -0.2867
     73  CB        20.0270   17.9570   46.5140 C.3   380  LEU380      0.0270
     74  CG        20.3240   16.5100   46.1120 C.3   380  LEU380      0.0019
     75  CD1       19.9710   15.5320   47.2060 C.3   380  LEU380      0.0001
     76  CD2       19.5560   16.1740   44.8420 C.3   380  LEU380      0.0001
     77  N         21.7130   23.4130   41.0230 N.3   389  HIS389     -0.1241
     78  CA        22.2510   22.3470   40.1730 C.3   389  HIS389      0.1621
     79  C         22.0050   22.5600   38.6890 C.2   389  HIS389      0.2264
     80  O         21.1210   23.2710   38.2530 O.2   389  HIS389     -0.2867
     81  CB        21.7500   20.9530   40.6120 C.3   389  HIS389      0.0745
     82  CG        20.3060   20.6820   40.3100 C.ar  389  HIS389      0.0817
     83  ND1       19.8940   20.0350   39.1710 N.ar  389  HIS389     -0.2268
     84  CD2       19.1810   20.9430   41.0170 C.ar  389  HIS389      0.1154
     85  CE1       18.5760   19.9220   39.1710 C.ar  389  HIS389      0.1986
     86  NE2       18.1090   20.4230   40.3110 N.ar  389  HIS389     -0.2212
     87  N         21.8900   19.8620   35.1710 N.3   391  GLY391     -0.1225
     88  CA        21.8390   18.5150   34.6300 C.3   391  GLY391      0.1811
     89  C         22.6760   18.3960   33.3710 C.2   391  GLY391      0.2280
     90  O         22.4080   19.0360   32.3610 O.2   391  GLY391     -0.2866
     91  N         23.8360    9.9440   39.1170 N.3   424  GLN424     -0.1245
     92  CA        22.6680    9.0650   39.2060 C.3   424  GLN424      0.1566
     93  C         22.4150    8.3880   37.8660 C.2   424  GLN424      0.2260
     94  O         21.8530    9.0000   36.9630 O.2   424  GLN424     -0.2867
     95  CB        21.4250    9.8520   39.6490 C.3   424  GLN424      0.0367
     96  CG        20.1210    9.0680   39.5530 C.3   424  GLN424      0.0905
     97  CD        19.0150    9.5850   40.4600 C.2   424  GLN424      0.2608
     98  OE1       19.2140    9.7280   41.6540 O.2   424  GLN424     -0.2717
     99  NE2       17.8340    9.8260   39.9050 N.am  424  GLN424     -0.0878
    100  N         20.2250    6.1860   35.7900 N.3   426  ILE426     -0.1245
    101  CA        18.8250    5.7600   35.7610 C.3   426  ILE426      0.1561
    102  C         18.7810    4.6900   34.6670 C.2   426  ILE426      0.2260
    103  O         19.1920    4.9560   33.5620 O.2   426  ILE426     -0.2867
    104  CB        17.9020    6.9520   35.4350 C.3   426  ILE426      0.0252
    105  CG1       18.2550    8.1550   36.3290 C.3   426  ILE426      0.0019
    106  CG2       16.4440    6.5350   35.5390 C.3   426  ILE426      0.0019
    107  CD1       17.5700    9.4540   35.9580 C.3   426  ILE426      0.0001
    108  N         22.6690   10.8660   34.6690 N.3   435  VAL435     -0.1245
    109  CA        22.4800   12.1960   35.1920 C.3   435  VAL435      0.1561
    110  C         23.6540   12.5830   36.0910 C.2   435  VAL435      0.2260
    111  O         23.9550   11.9230   37.0750 O.2   435  VAL435     -0.2867
    112  CB        21.1420   12.3390   35.9120 C.3   435  VAL435      0.0252
    113  CG1       21.0220   13.7170   36.5520 C.3   435  VAL435      0.0019
    114  CG2       20.0230   12.1010   34.9130 C.3   435  VAL435      0.0019
    115  N         24.6700   15.6440   38.2030 N.3   437  LEU437     -0.1245
    116  CA        24.2190   16.8810   38.8310 C.3   437  LEU437      0.1561
    117  C         25.3930   17.5520   39.4630 C.2   437  LEU437      0.2260
    118  O         25.9860   17.0230   40.3810 O.2   437  LEU437     -0.2867
    119  CB        23.2330   16.6140   39.9640 C.3   437  LEU437      0.0270
    120  CG        21.7770   16.3520   39.7010 C.3   437  LEU437      0.0019
    121  CD1       21.0050   16.7340   40.9560 C.3   437  LEU437      0.0001
    122  CD2       21.2890   17.1540   38.5200 C.3   437  LEU437      0.0001
    123  N         20.4470   13.3350   26.4840 N.3   470  TYR470     -0.1227
    124  CA        19.0050   13.1450   26.2550 C.3   470  TYR470      0.1736
    125  C         18.1620   14.4100   26.5120 C.2   470  TYR470      0.2595
    126  O         17.0110   14.5050   26.0760 O.2   470  TYR470     -0.2718
    127  CB        18.4860   11.9920   27.0980 C.3   470  TYR470      0.0548
    128  CG        17.7650   12.3760   28.3700 C.ar  470  TYR470     -0.0200
    129  CD1       18.4570   12.6370   29.5400 C.ar  470  TYR470     -0.0009
    130  CD2       16.3820   12.4180   28.4190 C.ar  470  TYR470     -0.0009
    131  CE1       17.7890   12.9510   30.7210 C.ar  470  TYR470      0.0417
    132  CE2       15.7100   12.7350   29.5910 C.ar  470  TYR470      0.0417
    133  CZ        16.4070   13.0070   30.7370 C.ar  470  TYR470      0.1957
    134  OH        15.7110   13.3390   31.8900 O.3   470  TYR470     -0.2866
    135  N         18.7400   15.3790   27.2170 N.am  471  ARG471     -0.1980
    136  CA        18.0060   16.5320   27.7380 C.3   471  ARG471      0.1597
    137  C         19.0390   17.5120   28.2180 C.2   471  ARG471      0.2287
    138  O         20.0560   17.1000   28.7650 O.2   471  ARG471     -0.2864
    139  CB        17.1190   16.0770   28.9010 C.3   471  ARG471      0.0334
    140  CG        16.1350   17.0900   29.4370 C.3   471  ARG471      0.0492
    141  CD        15.1380   16.3470   30.3050 C.3   471  ARG471      0.2205
    142  NE        14.2240   17.2350   31.0160 N.pl3 471  ARG471     -0.0865
    143  CZ        13.5170   16.8980   32.0960 C.cat 471  ARG471      0.5346
    144  NH1       13.5950   15.6780   32.6260 N.pl3 471  ARG471      0.1354
    145  NH2       12.7260   17.8040   32.6680 N.pl3 471  ARG471      0.1354
@<TRIPOS>BOND
     1   126   125    2
     2   124   123    1
     3   124   125    1
     4   124   127    1
     5   125   135   am
     6   127   128    1
     7   135   136    1
     8   136   137    1
     9   136   139    1
    10   137   138    2
    11   128   130   ar
    12   128   129   ar
    13   130   132   ar
    14   139   140    1
    15   140   141    1
    16   129   131   ar
    17   132   133   ar
    18   141   142    1
    19   131   133   ar
    20   133   134    1
    21   142   143    2
    22    16    15    2
    23    19    21   ar
    24    19    18   ar
    25    38    37    1
    26    21    23   ar
    27   143   144    1
    28   143   145    1
    29    17    18    1
    30    17    14    1
    31    90    89    2
    32    18    20   ar
    33    15    14    1
    34    23    24    1
    35    23    22   ar
    36    14    13    1
    37    20    22   ar
    38    33    34    1
    39    89    88    1
    40    37    34    1
    41    37    39    1
    42   103   102    2
    43    34    35    1
    44    13    11   am
    45    12    11    2
    46    88    87    1
    47   102   101    1
    48   108   109    1
    49   114   112    1
    50    11    10    1
    51    35    36    2
    52   109   112    1
    53   109   110    1
    54   104   106    1
    55   104   101    1
    56   104   105    1
    57   101   100    1
    58   112   113    1
    59   107   105    1
    60   110   111    2
    61    10     9    1
    62     1     2    1
    63     9     3   am
    64    94    93    2
    65     3     4    2
    66     3     2    1
    67     2     5    1
    68    93    92    1
    69    40    41    1
    70   115   116    1
    71    80    79    2
    72   122   120    1
    73    51    50    1
    74    48    50   ar
    75    48    46   ar
    76     7     6    2
    77    41    42    1
    78    41    44    1
    79    79    78    1
    80   116   117    1
    81   116   119    1
    82    42    43    2
    83    50    49   ar
    84    46    45   ar
    85     5     6    1
    86    91    92    1
    87    85    83   ar
    88    85    86   ar
    89    83    82   ar
    90    92    95    1
    91     6     8   am
    92   117   118    2
    93    49    47   ar
    94    96    95    1
    95    96    97    1
    96    45    47   ar
    97    45    44    1
    98   120   119    1
    99   120   121    1
   100    99    97   am
   101    78    81    1
   102    78    77    1
   103    82    81    1
   104    82    84   ar
   105    86    84   ar
   106    97    98    2
   107    25    26    1
   108    59    58    1
   109    32    30   ar
   110    30    31   ar
   111    30    29    1
   112    29    26    1
   113    26    27    1
   114    27    28    2
   115    58    57    1
   116    57    56    1
   117    67    66   ar
   118    56    53    1
   119    76    74    1
   120    66    65    1
   121    66    68   ar
   122    53    52    1
   123    53    54    1
   124    65    64    1
   125    64    61    1
   126    74    73    1
   127    74    75    1
   128    73    70    1
   129    63    62    2
   130    54    55    2
   131    62    61    1
   132    61    60    1
   133    72    71    2
   134    71    70    1
   135    70    69    1
