@<TRIPOS>MOLECULE
tmp/5fxqA00.pdb
 165 154 0 0 0
SMALL
GASTEIGER

@<TRIPOS>ATOM
      1  N          8.1250  -11.2280   58.1990 N.3    26  GLU26      -0.1231
      2  CA         9.0160  -11.4970   57.0630 C.3    26  GLU26       0.1699
      3  C          8.7260  -10.4900   55.9810 C.2    26  GLU26       0.2592
      4  O          7.6000  -10.3200   55.5670 O.2    26  GLU26      -0.2718
      5  CB         8.7270  -12.9060   56.5370 C.3    26  GLU26       0.0402
      6  CG         9.5290  -13.3890   55.3830 C.3    26  GLU26       0.1161
      7  CD         9.0040  -14.7350   54.8710 C.2    26  GLU26       0.3649
      8  OE1        9.3210  -15.7710   55.4880 O.co2  26  GLU26      -0.2457
      9  OE2        8.2780  -14.7540   53.8490 O.co2  26  GLU26      -0.2457
     10  N          9.7530   -9.7970   55.5420 N.am   27  LEU27      -0.1966
     11  CA         9.5610   -8.6990   54.5580 C.3    27  LEU27       0.1728
     12  C          9.8330   -9.2140   53.1690 C.2    27  LEU27       0.2617
     13  O          9.2770   -8.7720   52.1760 O.2    27  LEU27      -0.2715
     14  CB        10.4860   -7.5070   54.8710 C.3    27  LEU27       0.0311
     15  CG        10.1790   -6.8400   56.2020 C.3    27  LEU27       0.0022
     16  CD1       10.9070   -5.5020   56.3610 C.3    27  LEU27       0.0001
     17  CD2        8.6580   -6.6850   56.3090 C.3    27  LEU27       0.0001
     18  N         10.7290  -10.1720   53.1390 N.am   28  GLY28      -0.1940
     19  CA        11.1560  -10.7810   51.9050 C.3    28  GLY28       0.2014
     20  C         12.4940  -11.4350   52.0370 C.2    28  GLY28       0.2639
     21  O         12.9380  -11.8160   53.1240 O.2    28  GLY28      -0.2714
     22  N         13.1170  -11.5530   50.8910 N.am   29  GLN29      -0.1963
     23  CA        14.3360  -12.3100   50.7520 C.3    29  GLN29       0.1733
     24  C         15.3390  -11.5910   49.8960 C.2    29  GLN29       0.2616
     25  O         15.0610  -11.2440   48.7470 O.2    29  GLN29      -0.2715
     26  CB        13.9920  -13.6490   50.1280 C.3    29  GLN29       0.0408
     27  CG        15.1310  -14.3190   49.4860 C.3    29  GLN29       0.0908
     28  CD        15.7970  -15.2820   50.4010 C.2    29  GLN29       0.2608
     29  OE1       16.3620  -14.8870   51.4170 O.2    29  GLN29      -0.2717
     30  NE2       15.7460  -16.5650   50.0530 N.am   29  GLN29      -0.0878
     31  N         16.4820  -11.3320   50.5160 N.am   30  GLY30      -0.1955
     32  CA        17.6590  -10.7800   49.8380 C.3    30  GLY30       0.1869
     33  C         18.6120  -11.8560   49.3570 C.2    30  GLY30       0.2309
     34  O         18.3660  -13.0580   49.4700 O.2    30  GLY30      -0.2863
     35  N         14.9550  -11.3400   55.1170 N.3    35  VAL35      -0.1245
     36  CA        14.8590  -10.0420   55.7690 C.3    35  VAL35       0.1561
     37  C         13.5250   -9.9460   56.4460 C.2    35  VAL35       0.2260
     38  O         12.4740  -10.2810   55.8950 O.2    35  VAL35      -0.2867
     39  CB        15.0580   -8.8670   54.7680 C.3    35  VAL35       0.0252
     40  CG1       15.0710   -7.5170   55.4930 C.3    35  VAL35       0.0019
     41  CG2       16.3570   -9.0540   54.0020 C.3    35  VAL35       0.0019
     42  N         11.1000   -7.7380   59.4370 N.3    37  GLU37      -0.1245
     43  CA        10.7860   -6.6290   60.2890 C.3    37  GLU37       0.1567
     44  C         10.9650   -7.0660   61.7300 C.2    37  GLU37       0.2260
     45  O         10.9260   -8.2400   62.0710 O.2    37  GLU37      -0.2867
     46  CB         9.3540   -6.1790   60.0510 C.3    37  GLU37       0.0388
     47  CG         8.9380   -5.1260   60.9780 C.3    37  GLU37       0.1160
     48  CD         7.4710   -4.8540   60.8380 C.2    37  GLU37       0.3649
     49  OE1        6.8570   -5.4630   59.9400 O.co2  37  GLU37      -0.2457
     50  OE2        6.9570   -4.0180   61.5970 O.co2  37  GLU37      -0.2457
     51  N         14.1690   -2.9870   60.4110 N.3    53  ALA53      -0.1245
     52  CA        14.3150   -4.0040   59.3960 C.3    53  ALA53       0.1562
     53  C         15.5910   -4.7480   59.6770 C.2    53  ALA53       0.2260
     54  O         16.6240   -4.1360   59.9210 O.2    53  ALA53      -0.2867
     55  CB        14.3600   -3.3900   58.0430 C.3    53  ALA53       0.0290
     56  N         18.0650   -7.6870   58.2360 N.3    55  LYS55      -0.1245
     57  CA        18.5930   -8.4550   57.1410 C.3    55  LYS55       0.1561
     58  C         19.4920   -9.4640   57.7660 C.2    55  LYS55       0.2260
     59  O         20.3800   -9.1360   58.5520 O.2    55  LYS55      -0.2867
     60  CB        19.3920   -7.5890   56.1710 C.3    55  LYS55       0.0271
     61  CG        18.6060   -6.5120   55.4510 C.3    55  LYS55       0.0035
     62  CD        19.4660   -5.9170   54.3300 C.3    55  LYS55       0.0206
     63  CE        20.6010   -5.0580   54.8760 C.3    55  LYS55       0.1093
     64  NZ        21.4780   -4.3960   53.8350 N.3    55  LYS55      -0.1314
     65  N         18.5860   -2.2440   60.1080 N.3   100  MET100     -0.1230
     66  CA        18.3230   -1.0750   59.2700 C.3   100  MET100      0.1702
     67  C         17.0870   -0.3370   59.7290 C.2   100  MET100      0.2592
     68  O         16.1940   -0.8870   60.3860 O.2   100  MET100     -0.2718
     69  CB        18.1130   -1.5020   57.8050 C.3   100  MET100      0.0401
     70  CG        19.2640   -2.2600   57.1660 C.3   100  MET100      0.0596
     71  SD        20.7510   -1.2900   56.9750 S.3   100  MET100     -0.1393
     72  CE        20.3080   -0.0500   55.7460 C.3   100  MET100      0.0692
     73  N         17.0480    0.9300   59.3520 N.am  101  GLU101     -0.1966
     74  CA        15.8060    1.7190   59.4150 C.3   101  GLU101      0.1733
     75  C         14.7130    1.0320   58.6050 C.2   101  GLU101      0.2616
     76  O         14.9070    0.6810   57.4410 O.2   101  GLU101     -0.2715
     77  CB        16.0300    3.1480   58.8940 C.3   101  GLU101      0.0429
     78  CG        14.7700    3.9430   58.5790 C.3   101  GLU101      0.1163
     79  CD        15.0740    5.3990   58.2130 C.2   101  GLU101      0.3649
     80  OE1       16.2500    5.7470   57.9620 O.co2 101  GLU101     -0.2457
     81  OE2       14.1340    6.2060   58.1890 O.co2 101  GLU101     -0.2457
     82  N         13.5720    0.8550   59.2480 N.am  102  LEU102     -0.1963
     83  CA        12.3730    0.2790   58.6140 C.3   102  LEU102      0.1728
     84  C         11.6660    1.2950   57.7460 C.2   102  LEU102      0.2616
     85  O         11.3260    2.4090   58.1900 O.2   102  LEU102     -0.2715
     86  CB        11.3680   -0.2230   59.6670 C.3   102  LEU102      0.0311
     87  CG        10.3320   -1.3110   59.3270 C.3   102  LEU102      0.0022
     88  CD1        9.1790   -1.3400   60.3430 C.3   102  LEU102      0.0001
     89  CD2        9.7700   -1.1770   57.9510 C.3   102  LEU102      0.0001
     90  N         11.4030    0.8600   56.5200 N.am  103  MET103     -0.1963
     91  CA        10.6010    1.6180   55.5440 C.3   103  MET103      0.1736
     92  C          9.3520    0.8120   55.1880 C.2   103  MET103      0.2617
     93  O          9.3450    0.0150   54.2640 O.2   103  MET103     -0.2715
     94  CB        11.4230    1.9140   54.2800 C.3   103  MET103      0.0427
     95  CG        12.7640    2.6180   54.5460 C.3   103  MET103      0.0599
     96  SD        12.5820    4.2540   55.2400 S.3   103  MET103     -0.1393
     97  CE        12.1390    5.1120   53.7370 C.3   103  MET103      0.0692
     98  N          8.2960    1.0690   55.9420 N.am  104  THR104     -0.1937
     99  CA         7.1150    0.2120   55.9630 C.3   104  THR104      0.2028
    100  C          6.4050    0.1380   54.6390 C.2   104  THR104      0.2642
    101  O          5.7220   -0.8080   54.3670 O.2   104  THR104     -0.2714
    102  CB         6.0630    0.6100   57.0670 C.3   104  THR104      0.1808
    103  OG1        5.5910    1.9570   56.8580 O.3   104  THR104     -0.2208
    104  CG2        6.6640    0.4880   58.4610 C.3   104  THR104      0.0379
    105  N          6.5860    1.1220   53.7870 N.am  105  ARG105     -0.1963
    106  CA         5.8450    1.1200   52.5250 C.3   105  ARG105      0.1729
    107  C          6.6920    0.6420   51.3640 C.2   105  ARG105      0.2617
    108  O          6.3290    0.7620   50.2020 O.2   105  ARG105     -0.2715
    109  CB         5.2480    2.4820   52.2560 C.3   105  ARG105      0.0348
    110  CG         4.3550    2.9330   53.3890 C.3   105  ARG105      0.0492
    111  CD         3.5100    4.1120   52.9600 C.3   105  ARG105      0.2205
    112  NE         2.7950    4.6670   54.0940 N.pl3 105  ARG105     -0.0865
    113  CZ         1.5560    4.3310   54.4220 C.cat 105  ARG105      0.5346
    114  NH1        0.9010    3.4660   53.6870 N.pl3 105  ARG105      0.1354
    115  NH2        0.9800    4.8750   55.4750 N.pl3 105  ARG105      0.1354
    116  N          7.8350    0.0890   51.7310 N.am  106  GLY106     -0.1940
    117  CA         8.7450   -0.5500   50.7790 C.3   106  GLY106      0.2014
    118  C          9.4490    0.3650   49.8160 C.2   106  GLY106      0.2638
    119  O          9.6640    1.5470   50.0870 O.2   106  GLY106     -0.2714
    120  N          9.8460   -0.2370   48.6950 N.am  107  ASP107     -0.1971
    121  CA        10.5600    0.4810   47.6430 C.3   107  ASP107      0.1709
    122  C          9.5600    1.2850   46.8450 C.2   107  ASP107      0.2293
    123  O          8.3870    0.9330   46.7280 O.2   107  ASP107     -0.2864
    124  CB        11.4110   -0.4430   46.7520 C.3   107  ASP107      0.1436
    125  CG        10.5860   -1.2640   45.7930 C.2   107  ASP107      0.3671
    126  OD1       10.1810   -2.3880   46.1650 O.co2 107  ASP107     -0.2456
    127  OD2       10.3590   -0.7780   44.6720 O.co2 107  ASP107     -0.2456
    128  N          7.5540   -0.2980   43.8220 N.3   110  SER110     -0.1217
    129  CA         6.4370   -1.0520   44.3740 C.3   110  SER110      0.1889
    130  C          5.3470   -0.1400   44.9170 C.2   110  SER110      0.2288
    131  O          4.1780   -0.3810   44.6900 O.2   110  SER110     -0.2866
    132  CB         6.9220   -1.9760   45.4850 C.3   110  SER110      0.2089
    133  OG         7.8750   -2.8800   44.9410 O.3   110  SER110     -0.2183
    134  N         13.1550    4.1440   48.8370 N.3   161  MET161     -0.1245
    135  CA        12.1360    3.5680   49.6960 C.3   161  MET161      0.1570
    136  C         11.2430    4.6190   50.2730 C.2   161  MET161      0.2261
    137  O         11.5030    5.8190   50.2070 O.2   161  MET161     -0.2867
    138  CB        12.7010    2.7040   50.8430 C.3   161  MET161      0.0387
    139  CG        14.1140    2.2150   50.6290 C.3   161  MET161      0.0595
    140  SD        14.4780    0.5110   51.0590 S.3   161  MET161     -0.1393
    141  CE        14.5140    0.5340   52.8140 C.3   161  MET161      0.0692
    142  N         18.4010    1.6200   50.7750 N.3   172  ASP172     -0.1239
    143  CA        19.4710    0.6740   51.1480 C.3   172  ASP172      0.1674
    144  C         20.0770    0.1810   49.8470 C.2   172  ASP172      0.2266
    145  O         19.3710   -0.2440   48.9390 O.2   172  ASP172     -0.2867
    146  CB        18.8800   -0.4850   51.9920 C.3   172  ASP172      0.1410
    147  CG        19.9140   -1.5220   52.4320 C.2   172  ASP172      0.3668
    148  OD1       21.1010   -1.1930   52.6760 O.co2 172  ASP172     -0.2456
    149  OD2       19.5060   -2.6970   52.5680 O.co2 172  ASP172     -0.2456
    150  N         19.1480   -3.4760   46.8650 N.3   175  MET175     -0.1245
    151  CA        18.1560   -4.4320   47.3400 C.3   175  MET175      0.1570
    152  C         17.1320   -4.8860   46.3080 C.2   175  MET175      0.2261
    153  O         16.5500   -5.9540   46.4650 O.2   175  MET175     -0.2867
    154  CB        17.5400   -3.9180   48.6310 C.3   175  MET175      0.0387
    155  CG        18.6330   -3.4430   49.5850 C.3   175  MET175      0.0595
    156  SD        19.7270   -4.6990   50.3020 S.3   175  MET175     -0.1393
    157  CE        21.0960   -4.8120   49.1570 C.3   175  MET175      0.0692
    158  N         15.5320   -8.3020   42.0180 N.3   179  ILE179     -0.1245
    159  CA        14.0870   -8.4710   42.1440 C.3   179  ILE179      0.1561
    160  C         13.4020   -7.9440   40.9060 C.2   179  ILE179      0.2260
    161  O         12.5850   -8.5990   40.2880 O.2   179  ILE179     -0.2867
    162  CB        13.5320   -7.6910   43.3560 C.3   179  ILE179      0.0252
    163  CG1       13.9710   -8.3860   44.6560 C.3   179  ILE179      0.0019
    164  CG2       12.0080   -7.6200   43.2830 C.3   179  ILE179      0.0019
    165  CD1       13.7650   -7.5780   45.9200 C.3   179  ILE179      0.0001
@<TRIPOS>BOND
     1   161   160    2
     2   160   159    1
     3   158   159    1
     4   159   162    1
     5   164   162    1
     6   162   163    1
     7   128   129    1
     8   129   130    1
     9   129   132    1
    10   163   165    1
    11   127   125   ar
    12   131   130    2
    13   133   132    1
    14   125   126   ar
    15   125   124    1
    16   152   153    2
    17   152   151    1
    18   123   122    2
    19   124   121    1
    20   122   121    1
    21   150   151    1
    22   151   154    1
    23   121   120    1
    24   154   155    1
    25   120   118   am
    26    25    24    2
    27   134   135    1
    28   145   144    2
    29   157   156    1
    30    33    34    2
    31    33    32    1
    32    27    26    1
    33    27    28    1
    34   155   156    1
    35   135   136    1
    36   135   138    1
    37   118   119    2
    38   118   117    1
    39    32    31    1
    40   144   143    1
    41    24    31   am
    42    24    23    1
    43    30    28   am
    44    26    23    1
    45   108   107    2
    46   137   136    2
    47    28    29    2
    48   139   138    1
    49   139   140    1
    50    23    22    1
    51   142   143    1
    52   117   116    1
    53    22    20   am
    54   140   141    1
    55   143   146    1
    56   107   116   am
    57   107   106    1
    58    19    20    1
    59    19    18    1
    60   146   147    1
    61    20    21    2
    62    13    12    2
    63   109   106    1
    64   109   110    1
    65   147   149   ar
    66   147   148   ar
    67   106   105    1
    68   111   110    1
    69   111   112    1
    70    18    12   am
    71    12    11    1
    72   114   113    1
    73    97    96    1
    74   105   100   am
    75    64    63    1
    76     9     7   ar
    77    41    39    1
    78   112   113    2
    79    93    92    2
    80    94    95    1
    81    94    91    1
    82    62    63    1
    83    62    61    1
    84   101   100    2
    85   113   115    1
    86    95    96    1
    87    11    14    1
    88    11    10    1
    89   100    99    1
    90    39    40    1
    91    39    36    1
    92    14    15    1
    93     7     6    1
    94     7     8   ar
    95    35    36    1
    96    92    91    1
    97    92    98   am
    98     6     5    1
    99    61    60    1
   100    10     3   am
   101    91    90    1
   102     4     3    2
   103    72    71    1
   104    36    37    1
   105    38    37    2
   106    98    99    1
   107    99   102    1
   108     3     2    1
   109    60    57    1
   110    15    17    1
   111    15    16    1
   112    90    84   am
   113     5     2    1
   114   103   102    1
   115    71    70    1
   116     2     1    1
   117   102   104    1
   118    57    58    1
   119    57    56    1
   120    70    69    1
   121    76    75    2
   122    84    85    2
   123    84    83    1
   124    58    59    2
   125    69    66    1
   126    89    87    1
   127    80    79   ar
   128    55    52    1
   129    81    79   ar
   130    79    78    1
   131    78    77    1
   132    75    82   am
   133    75    74    1
   134    83    82    1
   135    83    86    1
   136    77    74    1
   137    66    67    1
   138    66    65    1
   139    87    86    1
   140    87    88    1
   141    73    74    1
   142    73    67   am
   143    52    53    1
   144    52    51    1
   145    42    43    1
   146    53    54    2
   147    67    68    2
   148    49    48   ar
   149    46    43    1
   150    46    47    1
   151    43    44    1
   152    48    47    1
   153    48    50   ar
   154    44    45    2
