@<TRIPOS>MOLECULE
tmp/5fxsA00.pdb
 198 184 0 0 0
SMALL
GASTEIGER

@<TRIPOS>ATOM
      1  N          7.6510   -9.8350   61.8130 N.3    25  ARG25      -0.1245
      2  CA         7.0760  -10.0130   60.4860 C.3    25  ARG25       0.1563
      3  C          8.1450  -10.1460   59.3990 C.2    25  ARG25       0.2260
      4  O          9.1040   -9.3890   59.3710 O.2    25  ARG25      -0.2867
      5  CB         6.1650   -8.8210   60.1750 C.3    25  ARG25       0.0307
      6  CG         5.3010   -9.0130   58.9350 C.3    25  ARG25       0.0489
      7  CD         4.5190   -7.7260   58.6430 C.3    25  ARG25       0.2205
      8  NE         3.5930   -7.9190   57.5340 N.pl3  25  ARG25      -0.0865
      9  CZ         3.8480   -8.0020   56.2270 C.cat  25  ARG25       0.5346
     10  NH1        5.0810   -7.8710   55.7390 N.pl3  25  ARG25       0.1354
     11  NH2        2.8510   -8.2030   55.3570 N.pl3  25  ARG25       0.1354
     12  N          9.5780   -9.5720   55.8250 N.3    27  LEU27      -0.1231
     13  CA         9.4190   -8.5530   54.7680 C.3    27  LEU27       0.1693
     14  C          9.7290   -9.1160   53.3930 C.2    27  LEU27       0.2593
     15  O          9.1220   -8.7260   52.3980 O.2    27  LEU27      -0.2718
     16  CB        10.3350   -7.3500   55.0210 C.3    27  LEU27       0.0284
     17  CG        10.1680   -6.6800   56.3770 C.3    27  LEU27       0.0019
     18  CD1       10.9720   -5.3730   56.4390 C.3    27  LEU27       0.0001
     19  CD2        8.6850   -6.4340   56.6650 C.3    27  LEU27       0.0001
     20  N         10.6850  -10.0340   53.3400 N.am   28  GLY28      -0.1942
     21  CA        11.0560  -10.6470   52.0850 C.3    28  GLY28       0.2014
     22  C         12.3960  -11.3220   52.1700 C.2    28  GLY28       0.2639
     23  O         12.9540  -11.4940   53.2560 O.2    28  GLY28      -0.2714
     24  N         12.8920  -11.7050   51.0060 N.am   29  GLN29      -0.1963
     25  CA        14.1320  -12.4240   50.8550 C.3    29  GLN29       0.1733
     26  C         15.0890  -11.5200   50.0990 C.2    29  GLN29       0.2616
     27  O         14.7410  -11.0120   49.0250 O.2    29  GLN29      -0.2715
     28  CB        13.8570  -13.7070   50.0570 C.3    29  GLN29       0.0408
     29  CG        15.0750  -14.4790   49.6070 C.3    29  GLN29       0.0908
     30  CD        15.6540  -15.3080   50.7050 C.2    29  GLN29       0.2608
     31  OE1       16.5930  -14.8930   51.3720 O.2    29  GLN29      -0.2717
     32  NE2       15.0870  -16.4890   50.9190 N.am   29  GLN29      -0.0878
     33  N         16.2730  -11.2950   50.6690 N.am   30  GLY30      -0.1955
     34  CA        17.3700  -10.6200   49.9700 C.3    30  GLY30       0.1869
     35  C         18.3420  -11.6450   49.4040 C.2    30  GLY30       0.2309
     36  O         18.1760  -12.8450   49.6150 O.2    30  GLY30      -0.2863
     37  N         21.2520  -12.2390   50.3720 N.3    32  PHE32      -0.1241
     38  CA        21.9980  -12.7510   51.5300 C.3    32  PHE32       0.1605
     39  C         21.1630  -13.6430   52.4570 C.2    32  PHE32       0.2264
     40  O         21.6970  -14.4710   53.1960 O.2    32  PHE32      -0.2867
     41  CB        22.4770  -11.5560   52.3520 C.3    32  PHE32       0.0534
     42  CG        21.3740  -10.5720   52.6640 C.ar   32  PHE32      -0.0203
     43  CD1       20.5280  -10.7800   53.7460 C.ar   32  PHE32      -0.0042
     44  CD2       21.1540   -9.4720   51.8440 C.ar   32  PHE32      -0.0042
     45  CE1       19.4940   -9.9050   54.0250 C.ar   32  PHE32      -0.0003
     46  CE2       20.1240   -8.5840   52.1110 C.ar   32  PHE32      -0.0003
     47  CZ        19.2910   -8.7960   53.2020 C.ar   32  PHE32      -0.0000
     48  N         14.7430  -11.0490   55.4060 N.3    35  VAL35      -0.1245
     49  CA        14.6560   -9.7490   56.0610 C.3    35  VAL35       0.1561
     50  C         13.3450   -9.6750   56.8290 C.2    35  VAL35       0.2260
     51  O         12.2820  -10.0420   56.3090 O.2    35  VAL35      -0.2867
     52  CB        14.7370   -8.5950   55.0470 C.3    35  VAL35       0.0252
     53  CG1       14.7030   -7.2460   55.7680 C.3    35  VAL35       0.0019
     54  CG2       16.0030   -8.7240   54.1980 C.3    35  VAL35       0.0019
     55  N         10.8860   -7.4630   59.8850 N.3    37  GLU37      -0.1245
     56  CA        10.5980   -6.3350   60.7450 C.3    37  GLU37       0.1567
     57  C         10.8640   -6.7910   62.1840 C.2    37  GLU37       0.2260
     58  O         10.7720   -7.9780   62.4990 O.2    37  GLU37      -0.2867
     59  CB         9.1350   -5.9340   60.5870 C.3    37  GLU37       0.0388
     60  CG         8.7510   -4.7220   61.3780 C.3    37  GLU37       0.1160
     61  CD         7.2600   -4.5180   61.4470 C.2    37  GLU37       0.3649
     62  OE1        6.5520   -4.8520   60.4710 O.co2  37  GLU37      -0.2457
     63  OE2        6.7940   -3.9970   62.4840 O.co2  37  GLU37      -0.2457
     64  N         14.1130   -2.7140   60.6080 N.3    53  ALA53      -0.1245
     65  CA        14.2180   -3.7990   59.6460 C.3    53  ALA53       0.1562
     66  C         15.4870   -4.5540   59.9910 C.2    53  ALA53       0.2260
     67  O         16.5050   -3.9360   60.3200 O.2    53  ALA53      -0.2867
     68  CB        14.2940   -3.2630   58.2210 C.3    53  ALA53       0.0290
     69  N         18.1150   -7.3460   58.5510 N.3    55  LYS55      -0.1245
     70  CA        18.6560   -8.1930   57.4930 C.3    55  LYS55       0.1561
     71  C         19.4240   -9.3280   58.1610 C.2    55  LYS55       0.2260
     72  O         20.1920   -9.0840   59.0870 O.2    55  LYS55      -0.2867
     73  CB        19.5720   -7.3800   56.5810 C.3    55  LYS55       0.0271
     74  CG        18.8650   -6.1810   55.9430 C.3    55  LYS55       0.0035
     75  CD        19.7200   -5.5150   54.8840 C.3    55  LYS55       0.0206
     76  CE        20.9110   -4.8060   55.4880 C.3    55  LYS55       0.1093
     77  NZ        21.6200   -3.9670   54.4790 N.3    55  LYS55      -0.1314
     78  N         18.2140    6.1890   54.2210 N.3    85  VAL85      -0.1245
     79  CA        17.8310    5.1480   55.1880 C.3    85  VAL85       0.1561
     80  C         19.0230    4.8470   56.1060 C.2    85  VAL85       0.2260
     81  O         20.1390    4.6110   55.6280 O.2    85  VAL85      -0.2867
     82  CB        17.3740    3.8520   54.4810 C.3    85  VAL85       0.0252
     83  CG1       17.2070    2.7020   55.4840 C.3    85  VAL85       0.0019
     84  CG2       16.0730    4.0880   53.7080 C.3    85  VAL85       0.0019
     85  N         18.5020   -1.9700   60.4260 N.3   101  MET101     -0.1230
     86  CA        18.2550   -0.7830   59.6120 C.3   101  MET101      0.1702
     87  C         16.9890   -0.0660   60.0570 C.2   101  MET101      0.2592
     88  O         16.0920   -0.6600   60.6570 O.2   101  MET101     -0.2718
     89  CB        18.0690   -1.1750   58.1400 C.3   101  MET101      0.0401
     90  CG        19.2050   -1.9870   57.5300 C.3   101  MET101      0.0596
     91  SD        20.7670   -1.1100   57.4620 S.3   101  MET101     -0.1393
     92  CE        20.3970    0.2150   56.3060 C.3   101  MET101      0.0692
     93  N         16.9260    1.2240   59.7480 N.am  102  GLU102     -0.1966
     94  CA        15.7040    2.0020   59.8680 C.3   102  GLU102      0.1733
     95  C         14.6040    1.3000   59.0700 C.2   102  GLU102      0.2616
     96  O         14.8350    0.9070   57.9350 O.2   102  GLU102     -0.2715
     97  CB        15.9600    3.4030   59.3040 C.3   102  GLU102      0.0429
     98  CG        14.7710    4.3360   59.2980 C.3   102  GLU102      0.1163
     99  CD        15.0830    5.6800   58.6520 C.2   102  GLU102      0.3649
    100  OE1       16.2640    5.9490   58.3070 O.co2 102  GLU102     -0.2457
    101  OE2       14.1280    6.4660   58.4810 O.co2 102  GLU102     -0.2457
    102  N         13.4320    1.1170   59.6760 N.am  103  LEU103     -0.1963
    103  CA        12.2980    0.4770   58.9990 C.3   103  LEU103      0.1728
    104  C         11.5490    1.4710   58.1140 C.2   103  LEU103      0.2616
    105  O         11.1960    2.5590   58.5550 O.2   103  LEU103     -0.2715
    106  CB        11.3180   -0.1210   60.0110 C.3   103  LEU103      0.0311
    107  CG        10.0940   -0.8270   59.4050 C.3   103  LEU103      0.0022
    108  CD1       10.5020   -2.0830   58.6410 C.3   103  LEU103      0.0001
    109  CD2        9.0580   -1.1590   60.4600 C.3   103  LEU103      0.0001
    110  N         11.2950    1.0760   56.8720 N.am  104  MET104     -0.1963
    111  CA        10.5110    1.8750   55.9360 C.3   104  MET104      0.1736
    112  C          9.2370    1.0870   55.6190 C.2   104  MET104      0.2617
    113  O          9.2180    0.2290   54.7280 O.2   104  MET104     -0.2715
    114  CB        11.3400    2.1490   54.6860 C.3   104  MET104      0.0427
    115  CG        12.6630    2.8390   54.9830 C.3   104  MET104      0.0599
    116  SD        12.4760    4.5120   55.6260 S.3   104  MET104     -0.1393
    117  CE        12.1560    5.3880   54.0950 C.3   104  MET104      0.0692
    118  N          8.1800    1.3650   56.3770 N.am  105  THR105     -0.1937
    119  CA         6.9880    0.5090   56.3650 C.3   105  THR105      0.2028
    120  C          6.2330    0.4630   55.0400 C.2   105  THR105      0.2642
    121  O          5.5170   -0.4980   54.7880 O.2   105  THR105     -0.2714
    122  CB         5.9880    0.9110   57.4540 C.3   105  THR105      0.1808
    123  OG1        5.6220    2.2790   57.2700 O.3   105  THR105     -0.2208
    124  CG2        6.5980    0.7180   58.8300 C.3   105  THR105      0.0379
    125  N          6.3750    1.4880   54.2000 N.am  106  ARG106     -0.1963
    126  CA         5.6390    1.5250   52.9300 C.3   106  ARG106      0.1729
    127  C          6.4500    0.9950   51.7470 C.2   106  ARG106      0.2617
    128  O          6.0090    1.0780   50.6060 O.2   106  ARG106     -0.2715
    129  CB         5.0760    2.9190   52.6670 C.3   106  ARG106      0.0348
    130  CG         4.0220    3.3010   53.6830 C.3   106  ARG106      0.0492
    131  CD         3.3710    4.6320   53.3810 C.3   106  ARG106      0.2205
    132  NE         2.5560    5.0490   54.5160 N.pl3 106  ARG106     -0.0865
    133  CZ         1.3380    4.5820   54.7990 C.cat 106  ARG106      0.5346
    134  NH1        0.7480    3.6810   54.0190 N.pl3 106  ARG106      0.1354
    135  NH2        0.7040    5.0270   55.8790 N.pl3 106  ARG106      0.1354
    136  N          7.6310    0.4500   52.0250 N.am  107  GLY107     -0.1940
    137  CA         8.3630   -0.3350   51.0430 C.3   107  GLY107      0.2014
    138  C          9.1890    0.5000   50.0990 C.2   107  GLY107      0.2638
    139  O          9.4200    1.6850   50.3430 O.2   107  GLY107     -0.2714
    140  N          9.6530   -0.1160   49.0210 N.am  108  ASP108     -0.1971
    141  CA        10.4130    0.6330   48.0390 C.3   108  ASP108      0.1709
    142  C          9.4360    1.4970   47.2440 C.2   108  ASP108      0.2293
    143  O          8.2450    1.1820   47.1520 O.2   108  ASP108     -0.2864
    144  CB        11.2450   -0.2790   47.1330 C.3   108  ASP108      0.1436
    145  CG        10.4020   -1.0840   46.1960 C.2   108  ASP108      0.3671
    146  OD1        9.8750   -2.1290   46.6300 O.co2 108  ASP108     -0.2456
    147  OD2       10.2550   -0.6630   45.0320 O.co2 108  ASP108     -0.2456
    148  N          7.4180   -0.1590   44.2940 N.3   111  SER111     -0.1217
    149  CA         6.3010   -0.9190   44.8570 C.3   111  SER111      0.1889
    150  C          5.1840   -0.0130   45.3630 C.2   111  SER111      0.2288
    151  O          4.0040   -0.2710   45.1080 O.2   111  SER111     -0.2866
    152  CB         6.7790   -1.8060   46.0070 C.3   111  SER111      0.2089
    153  OG         7.5900   -2.8650   45.5390 O.3   111  SER111     -0.2183
    154  N          1.3970    0.3110   43.8790 N.3   115  SER115     -0.1217
    155  CA         0.2490    0.0780   44.7820 C.3   115  SER115      0.1889
    156  C         -0.8370    1.1560   44.6760 C.2   115  SER115      0.2288
    157  O         -1.9800    0.9230   45.0860 O.2   115  SER115     -0.2866
    158  CB         0.7130   -0.0460   46.2470 C.3   115  SER115      0.2089
    159  OG         0.8570    1.2250   46.8730 O.3   115  SER115     -0.2183
    160  N         13.0200    4.3840   49.2690 N.3   164  MET164     -0.1245
    161  CA        12.0960    3.7270   50.1850 C.3   164  MET164      0.1570
    162  C         11.1460    4.7510   50.7770 C.2   164  MET164      0.2261
    163  O         11.4500    5.9450   50.8070 O.2   164  MET164     -0.2867
    164  CB        12.8580    2.9660   51.2750 C.3   164  MET164      0.0387
    165  CG        13.5460    1.7110   50.7580 C.3   164  MET164      0.0595
    166  SD        14.4280    0.7920   52.0310 S.3   164  MET164     -0.1393
    167  CE        15.0820   -0.5770   51.0580 C.3   164  MET164      0.0692
    168  N         18.5100    1.6530   51.3150 N.3   175  ASP175     -0.1239
    169  CA        19.6450    0.7950   51.6090 C.3   175  ASP175      0.1674
    170  C         20.2460    0.3270   50.2850 C.2   175  ASP175      0.2266
    171  O         19.5330   -0.2010   49.4290 O.2   175  ASP175     -0.2867
    172  CB        19.1440   -0.3970   52.4300 C.3   175  ASP175      0.1410
    173  CG        20.2560   -1.2460   52.9930 C.2   175  ASP175      0.3668
    174  OD1       21.4450   -0.8430   52.9530 O.co2 175  ASP175     -0.2456
    175  OD2       19.9190   -2.3320   53.5050 O.co2 175  ASP175     -0.2456
    176  N         19.5230   -3.2920   47.5900 N.3   178  MET178     -0.1230
    177  CA        18.5840   -4.2520   48.1840 C.3   178  MET178      0.1702
    178  C         17.4190   -4.6950   47.2930 C.2   178  MET178      0.2593
    179  O         16.7200   -5.6550   47.6360 O.2   178  MET178     -0.2718
    180  CB        18.0240   -3.6900   49.4900 C.3   178  MET178      0.0401
    181  CG        19.0600   -3.5120   50.5930 C.3   178  MET178      0.0596
    182  SD        19.8670   -5.0420   51.1270 S.3   178  MET178     -0.1393
    183  CE        21.3140   -5.0930   50.0640 C.3   178  MET178      0.0692
    184  N         17.1950   -4.0180   46.1710 N.am  179  THR179     -0.1953
    185  CA        16.0560   -4.3550   45.3040 C.3   179  THR179      0.1897
    186  C         16.4300   -4.7710   43.8790 C.2   179  THR179      0.2313
    187  O         15.5590   -5.2250   43.1260 O.2   179  THR179     -0.2863
    188  CB        15.0470   -3.1890   45.2230 C.3   179  THR179      0.1794
    189  OG1       15.6130   -2.1110   44.4630 O.3   179  THR179     -0.2208
    190  CG2       14.6810   -2.7040   46.6200 C.3   179  THR179      0.0378
    191  N         15.3430   -8.1770   42.8900 N.3   182  ILE182     -0.1245
    192  CA        13.8890   -8.3330   42.8180 C.3   182  ILE182      0.1561
    193  C         13.3540   -7.8120   41.4830 C.2   182  ILE182      0.2260
    194  O         12.6020   -8.5090   40.8040 O.2   182  ILE182     -0.2867
    195  CB        13.1850   -7.6230   44.0070 C.3   182  ILE182      0.0252
    196  CG1       13.5180   -8.3480   45.3170 C.3   182  ILE182      0.0019
    197  CG2       11.6710   -7.5850   43.8070 C.3   182  ILE182      0.0019
    198  CD1       13.0120   -7.6440   46.5530 C.3   182  ILE182      0.0001
@<TRIPOS>BOND
     1   194   193    2
     2   193   192    1
     3   192   191    1
     4   192   195    1
     5   187   186    2
     6   197   195    1
     7   154   155    1
     8   186   185    1
     9   195   196    1
    10   148   149    1
    11   189   188    1
    12   156   155    1
    13   156   157    2
    14   155   158    1
    15   149   150    1
    16   149   152    1
    17   147   145   ar
    18   151   150    2
    19   188   185    1
    20   188   190    1
    21   185   184    1
    22   196   198    1
    23   153   152    1
    24   184   178   am
    25   145   146   ar
    26   145   144    1
    27   158   159    1
    28   144   141    1
    29   143   142    2
    30   142   141    1
    31   178   179    2
    32   178   177    1
    33   176   177    1
    34   141   140    1
    35   177   180    1
    36   140   138   am
    37    27    26    2
    38   160   161    1
    39    35    36    2
    40    35    34    1
    41   171   170    2
    42   180   181    1
    43    29    28    1
    44    29    30    1
    45    34    33    1
    46    28    25    1
    47   183   182    1
    48    26    33   am
    49    26    25    1
    50   138   139    2
    51   138   137    1
    52   161   162    1
    53   161   164    1
    54   170   169    1
    55    37    38    1
    56   181   182    1
    57   128   127    2
    58    30    32   am
    59    30    31    2
    60   165   164    1
    61   165   166    1
    62   162   163    2
    63    25    24    1
    64    24    22   am
    65   137   136    1
    66   167   166    1
    67   168   169    1
    68    38    41    1
    69    38    39    1
    70   169   172    1
    71   127   136   am
    72   127   126    1
    73    44    46   ar
    74    44    42   ar
    75    21    22    1
    76    21    20    1
    77    46    47   ar
    78    22    23    2
    79    41    42    1
    80    15    14    2
    81   172   173    1
    82    39    40    2
    83    42    43   ar
    84   129   126    1
    85   129   130    1
    86   126   125    1
    87   174   173   ar
    88   173   175   ar
    89    47    45   ar
    90    20    14   am
    91   131   130    1
    92   131   132    1
    93    14    13    1
    94    84    82    1
    95    43    45   ar
    96   134   133    1
    97   117   116    1
    98    54    52    1
    99   125   120   am
   100    78    79    1
   101    77    76    1
   102    82    79    1
   103    82    83    1
   104   132   133    2
   105   114   115    1
   106   114   111    1
   107   113   112    2
   108    13    16    1
   109    13    12    1
   110   121   120    2
   111   133   135    1
   112    75    76    1
   113    75    74    1
   114   115   116    1
   115    16    17    1
   116   120   119    1
   117    52    53    1
   118    52    49    1
   119    79    80    1
   120    11     9    1
   121    48    49    1
   122   112   111    1
   123   112   118   am
   124    81    80    2
   125    10     9    1
   126   111   110    1
   127    74    73    1
   128    49    50    1
   129     9     8    2
   130    92    91    1
   131    51    50    2
   132   119   118    1
   133   119   122    1
   134    17    18    1
   135    17    19    1
   136    73    70    1
   137   110   104   am
   138   123   122    1
   139   122   124    1
   140    91    90    1
   141    70    71    1
   142    70    69    1
   143    90    89    1
   144     8     7    1
   145    96    95    2
   146   104   105    2
   147   104   103    1
   148    89    86    1
   149    71    72    2
   150    68    65    1
   151   100    99   ar
   152   101    99   ar
   153   108   107    1
   154     7     6    1
   155    99    98    1
   156     6     5    1
   157   103   102    1
   158   103   106    1
   159    95   102   am
   160    95    94    1
   161    98    97    1
   162    97    94    1
   163     4     3    2
   164     3     2    1
   165   107   106    1
   166   107   109    1
   167    86    87    1
   168    86    85    1
   169    65    66    1
   170    65    64    1
   171    93    94    1
   172    93    87   am
   173    55    56    1
   174    66    67    2
   175    87    88    2
   176     5     2    1
   177    62    61   ar
   178     2     1    1
   179    59    56    1
   180    59    60    1
   181    56    57    1
   182    60    61    1
   183    61    63   ar
   184    57    58    2
