@<TRIPOS>MOLECULE
tmp/5fxtA00.pdb
 105 99 0 0 0
SMALL
GASTEIGER

@<TRIPOS>ATOM
      1  N         18.6130  -18.0680   14.5410 N.3   151  LYS151     -0.1245
      2  CA        18.3190  -17.8550   13.1240 C.3   151  LYS151      0.1561
      3  C         19.3420  -16.8400   12.6040 C.2   151  LYS151      0.2260
      4  O         19.4470  -15.7170   13.1140 O.2   151  LYS151     -0.2867
      5  CB        16.8570  -17.4090   12.9250 C.3   151  LYS151      0.0271
      6  CG        16.0970  -18.2560   11.9110 C.3   151  LYS151      0.0035
      7  CD        16.3880  -17.8630   10.4650 C.3   151  LYS151      0.0206
      8  CE        15.1970  -17.1800    9.8130 C.3   151  LYS151      0.1093
      9  NZ        15.6090  -16.1880    8.7900 N.3   151  LYS151     -0.1314
     10  N         18.8060  -13.0750   11.0430 N.3   154  LEU154     -0.1245
     11  CA        18.0870  -12.1730   11.9010 C.3   154  LEU154      0.1561
     12  C         18.9690  -11.7500   12.9890 C.2   154  LEU154      0.2260
     13  O         18.5990  -10.8520   13.6920 O.2   154  LEU154     -0.2867
     14  CB        16.8600  -12.8410   12.4920 C.3   154  LEU154      0.0270
     15  CG        15.8850  -13.3850   11.4670 C.3   154  LEU154      0.0019
     16  CD1       14.6620  -13.9170   12.2060 C.3   154  LEU154      0.0001
     17  CD2       15.5150  -12.3480   10.4160 C.3   154  LEU154      0.0001
     18  N         14.5730   -7.2100   12.8790 N.3   173  THR173     -0.1218
     19  CA        13.4120   -7.9880   13.3950 C.3   173  THR173      0.1862
     20  C         13.8990   -9.0900   14.3290 C.2   173  THR173      0.2287
     21  O         15.0590   -9.5680   14.2070 O.2   173  THR173     -0.2866
     22  CB        12.5780   -8.5960   12.2590 C.3   173  THR173      0.1770
     23  OG1       11.2880   -9.0320   12.7420 O.3   173  THR173     -0.2211
     24  CG2       13.3140   -9.7480   11.5570 C.3   173  THR173      0.0375
     25  N         11.3130  -11.4350   14.9180 N.3   175  THR175     -0.1203
     26  CA        10.0330  -12.1430   14.6650 C.3   175  THR175      0.1994
     27  C          8.8110  -11.6490   15.4220 C.2   175  THR175      0.2618
     28  O          7.7130  -11.8910   14.9450 O.2   175  THR175     -0.2717
     29  CB        10.0630  -13.7000   14.7870 C.3   175  THR175      0.1784
     30  OG1       10.2780  -14.1040   16.1590 O.3   175  THR175     -0.2211
     31  CG2       11.1260  -14.2660   13.9010 C.3   175  THR175      0.0376
     32  N          8.9930  -10.9320   16.5280 N.am  176  LYS176     -0.1965
     33  CA         7.8670  -10.3540   17.3060 C.3   176  LYS176      0.1728
     34  C          7.6160   -8.8630   16.9960 C.2   176  LYS176      0.2616
     35  O          6.4690   -8.3520   17.1200 O.2   176  LYS176     -0.2715
     36  CB         8.1340  -10.5430   18.7990 C.3   176  LYS176      0.0311
     37  CG         8.5120  -11.9750   19.2260 C.3   176  LYS176      0.0038
     38  CD         7.3510  -12.7460   19.8640 C.3   176  LYS176      0.0206
     39  CE         7.7420  -14.1590   20.3190 C.3   176  LYS176      0.1093
     40  NZ         7.0600  -14.5310   21.6060 N.3   176  LYS176     -0.1314
     41  N          8.7180   -8.1640   16.6670 N.am  177  ARG177     -0.1963
     42  CA         8.6930   -6.7990   16.1440 C.3   177  ARG177      0.1729
     43  C          9.7270   -6.6590   15.0410 C.2   177  ARG177      0.2616
     44  O         10.7060   -7.3920   15.0120 O.2   177  ARG177     -0.2715
     45  CB         8.9950   -5.7180   17.1750 C.3   177  ARG177      0.0348
     46  CG        10.3760   -5.8070   17.8510 C.3   177  ARG177      0.0492
     47  CD        10.2030   -6.4780   19.1780 C.3   177  ARG177      0.2205
     48  NE        11.4050   -6.6600   19.9270 N.pl3 177  ARG177     -0.0865
     49  CZ        11.9440   -5.7450   20.7010 C.cat 177  ARG177      0.5346
     50  NH1       11.4710   -4.4990   20.7520 N.pl3 177  ARG177      0.1354
     51  NH2       12.9900   -6.0690   21.3850 N.pl3 177  ARG177      0.1354
     52  N          9.4820   -5.6720   14.2070 N.am  178  LEU178     -0.1977
     53  CA        10.2980   -5.3420   13.0290 C.3   178  LEU178      0.1596
     54  C         10.3530   -3.8340   12.8970 C.2   178  LEU178      0.2287
     55  O          9.3330   -3.2080   12.7240 O.2   178  LEU178     -0.2864
     56  CB         9.6510   -5.9330   11.7710 C.3   178  LEU178      0.0297
     57  CG        10.4540   -5.8740   10.4530 C.3   178  LEU178      0.0022
     58  CD1       10.2320   -7.1210    9.6110 C.3   178  LEU178      0.0001
     59  CD2        9.9910   -4.6970    9.6470 C.3   178  LEU178      0.0001
     60  N         14.8850  -11.7950    5.1800 N.3   243  PRO243     -0.2116
     61  CA        13.4760  -11.8420    4.7870 C.3   243  PRO243      0.1372
     62  C         12.9550  -10.6030    4.0560 C.2   243  PRO243      0.2244
     63  O         13.3810   -9.4800    4.3200 O.2   243  PRO243     -0.2868
     64  CB        12.7260  -11.9920    6.1330 C.3   243  PRO243      0.0268
     65  CG        13.6930  -11.5880    7.1880 C.3   243  PRO243      0.0207
     66  CD        15.0410  -11.9920    6.6360 C.3   243  PRO243      0.0892
     67  N          5.9500   -8.3990    4.4130 N.3   248  ILE248     -0.1245
     68  CA         5.3300   -8.6090    5.7580 C.3   248  ILE248      0.1561
     69  C          4.5710   -7.4020    6.3280 C.2   248  ILE248      0.2260
     70  O          3.5740   -7.5690    7.0290 O.2   248  ILE248     -0.2867
     71  CB         6.2480   -9.3460    6.7920 C.3   248  ILE248      0.0252
     72  CG1        7.7310   -9.0910    6.5870 C.3   248  ILE248      0.0019
     73  CG2        6.0020  -10.8590    6.6740 C.3   248  ILE248      0.0019
     74  CD1        8.6500  -10.0530    7.3010 C.3   248  ILE248      0.0001
     75  N         -0.7690   -7.6610   13.4260 N.3   347  PRO347     -0.2116
     76  CA         0.2680   -6.6660   13.6930 C.3   347  PRO347      0.1372
     77  C         -0.1700   -5.2050   13.5000 C.2   347  PRO347      0.2244
     78  O         -1.0110   -4.8860   12.6200 O.2   347  PRO347     -0.2868
     79  CB         1.3780   -7.0290   12.7040 C.3   347  PRO347      0.0268
     80  CG         1.1440   -8.4540   12.3220 C.3   347  PRO347      0.0207
     81  CD        -0.2940   -8.7740   12.5740 C.3   347  PRO347      0.0892
     82  N          6.7180   -2.3010   13.4340 N.3   368  LEU368     -0.1231
     83  CA         5.6290   -3.2360   13.3460 C.3   368  LEU368      0.1693
     84  C          5.7810   -4.2310   14.4990 C.2   368  LEU368      0.2592
     85  O          6.8860   -4.6830   14.7890 O.2   368  LEU368     -0.2718
     86  CB         5.7100   -3.9520   11.9530 C.3   368  LEU368      0.0284
     87  CG         4.4350   -4.7460   11.6230 C.3   368  LEU368      0.0019
     88  CD1        3.3260   -3.8560   11.0840 C.3   368  LEU368      0.0001
     89  CD2        4.7240   -5.9140   10.6770 C.3   368  LEU368      0.0001
     90  N          4.6890   -4.5250   15.1840 N.am  369  MET369     -0.1965
     91  CA         4.6380   -5.4200   16.3230 C.3   369  MET369      0.1736
     92  C          3.4050   -6.3420   16.3070 C.2   369  MET369      0.2616
     93  O          2.2690   -5.9340   15.9940 O.2   369  MET369     -0.2715
     94  CB         4.5130   -4.6160   17.6260 C.3   369  MET369      0.0427
     95  CG         5.7980   -4.3400   18.3580 C.3   369  MET369      0.0599
     96  SD         5.4330   -3.1810   19.7210 S.3   369  MET369     -0.1393
     97  CE         5.1220   -1.7340   18.7310 C.3   369  MET369      0.0692
     98  N          3.6570   -7.5660   16.7490 N.am  370  MET370     -0.1977
     99  CA         2.6330   -8.5440   16.8980 C.3   370  MET370      0.1605
    100  C          1.9820   -8.2440   18.2620 C.2   370  MET370      0.2287
    101  O          2.6910   -8.0160   19.2340 O.2   370  MET370     -0.2864
    102  CB         3.2610   -9.9310   16.8860 C.3   370  MET370      0.0413
    103  CG         3.7010  -10.3960   15.4870 C.3   370  MET370      0.0598
    104  SD         3.7040  -12.1720   15.5740 S.3   370  MET370     -0.1393
    105  CE         5.1730  -12.5840   16.4450 C.3   370  MET370      0.0692
@<TRIPOS>BOND
     1    62    63    2
     2    62    61    1
     3    67    68    1
     4    61    60    1
     5    61    64    1
     6    60    66    1
     7    68    69    1
     8    68    71    1
     9    64    65    1
    10    69    70    2
    11    72    71    1
    12    72    74    1
    13    66    65    1
    14    73    71    1
    15     9     8    1
    16    58    57    1
    17    59    57    1
    18     8     7    1
    19    17    15    1
    20    57    56    1
    21     7     6    1
    22    89    87    1
    23    10    11    1
    24    88    87    1
    25    15    16    1
    26    15    14    1
    27    24    22    1
    28    87    86    1
    29    56    53    1
    30    11    14    1
    31    11    12    1
    32     6     5    1
    33    86    83    1
    34    22    23    1
    35    22    19    1
    36    80    81    1
    37    80    79    1
    38    81    75    1
    39     3     4    2
    40     3     2    1
    41    78    77    2
    42    79    76    1
    43    55    54    2
    44    18    19    1
    45    54    53    1
    46     5     2    1
    47    12    13    2
    48    53    52    1
    49     2     1    1
    50    83    82    1
    51    83    84    1
    52    19    20    1
    53    75    76    1
    54    77    76    1
    55    31    29    1
    56    52    43   am
    57    21    20    2
    58    84    85    2
    59    84    90   am
    60    26    29    1
    61    26    25    1
    62    26    27    1
    63    29    30    1
    64    28    27    2
    65    44    43    2
    66    43    42    1
    67    90    91    1
    68    27    32   am
    69   103   104    1
    70   103   102    1
    71   104   105    1
    72    93    92    2
    73    42    41    1
    74    42    45    1
    75    92    91    1
    76    92    98   am
    77    91    94    1
    78    32    33    1
    79    41    34   am
    80    98    99    1
    81   102    99    1
    82    99   100    1
    83    34    35    2
    84    34    33    1
    85    45    46    1
    86    33    36    1
    87    94    95    1
    88    46    47    1
    89   100   101    2
    90    95    96    1
    91    97    96    1
    92    36    37    1
    93    47    48    1
    94    37    38    1
    95    38    39    1
    96    48    49    2
    97    39    40    1
    98    49    50    1
    99    49    51    1
