@<TRIPOS>MOLECULE
tmp/5fxuA00.pdb
 84 83 0 0 0
SMALL
GASTEIGER

@<TRIPOS>ATOM
      1  N         29.8650    9.1680   51.3680 N.3    27  PRO27      -0.2102
      2  CA        29.1160   10.1550   52.1550 C.3    27  PRO27       0.1504
      3  C         29.0770   11.5380   51.5260 C.2    27  PRO27       0.2576
      4  O         30.0760   11.9700   51.0060 O.2    27  PRO27      -0.2718
      5  CB        29.8650   10.2100   53.4940 C.3    27  PRO27       0.0282
      6  CG        30.7760    9.0430   53.5130 C.3    27  PRO27       0.0208
      7  CD        31.0480    8.6670   52.0960 C.3    27  PRO27       0.0893
      8  N         27.9220   12.1880   51.5810 N.am   28  VAL28      -0.1967
      9  CA        27.7260   13.5710   51.1720 C.3    28  VAL28       0.1712
     10  C         27.2460   14.2900   52.4460 C.2    28  VAL28       0.2458
     11  O         26.5520   13.6710   53.2620 O.2    28  VAL28      -0.2730
     12  CB        26.6730   13.7980   50.0330 C.3    28  VAL28       0.0289
     13  CG1       26.8780   12.9020   48.8320 C.3    28  VAL28       0.0023
     14  CG2       25.2430   13.6510   50.5190 C.3    28  VAL28       0.0023
     15  N         27.5530   15.5950   52.6030 N.am   29  PRO29      -0.2727
     16  CA        26.9980   16.3750   53.7350 C.3    29  PRO29       0.1402
     17  C         25.4650   16.4690   53.6980 C.2    29  PRO29       0.2269
     18  O         24.8920   16.3990   52.6240 O.2    29  PRO29      -0.2865
     19  CB        27.6240   17.7760   53.5470 C.3    29  PRO29       0.0296
     20  CG        28.8000   17.5670   52.6650 C.3    29  PRO29       0.0237
     21  CD        28.4300   16.4190   51.7560 C.3    29  PRO29       0.0939
     22  N         24.2370    9.5810   59.2680 N.3   106  ASN106     -0.1225
     23  CA        24.4850    9.9540   60.6620 C.3   106  ASN106      0.1785
     24  C         24.0310   11.3920   60.7900 C.2   106  ASN106      0.2597
     25  O         23.3780   11.8910   59.8830 O.2   106  ASN106     -0.2718
     26  CB        25.9420    9.6810   61.0740 C.3   106  ASN106      0.1169
     27  CG        26.9600   10.5350   60.3300 C.2   106  ASN106      0.2627
     28  OD1       26.6270   11.5660   59.7360 O.2   106  ASN106     -0.2716
     29  ND2       28.2100   10.0980   60.3640 N.am  106  ASN106     -0.0877
     30  N         24.3700   12.0730   61.8840 N.am  107  GLN107     -0.1965
     31  CA        23.9710   13.4860   62.0490 C.3   107  GLN107      0.1733
     32  C         24.4350   14.4480   60.9540 C.2   107  GLN107      0.2617
     33  O         23.7360   15.4010   60.6470 O.2   107  GLN107     -0.2715
     34  CB        24.4740   14.0290   63.3880 C.3   107  GLN107      0.0408
     35  CG        23.7710   13.4760   64.5950 C.3   107  GLN107      0.0908
     36  CD        24.5660   13.7510   65.8340 C.2   107  GLN107      0.2608
     37  OE1       25.6570   13.2110   65.9870 O.2   107  GLN107     -0.2717
     38  NE2       24.0250   14.5590   66.7370 N.am  107  GLN107     -0.0878
     39  N         25.6120   14.2090   60.3920 N.am  108  THR108     -0.1937
     40  CA        26.2600   15.1810   59.5010 C.3   108  THR108      0.2028
     41  C         26.3690   14.7490   58.0420 C.2   108  THR108      0.2642
     42  O         26.5150   15.5960   57.1720 O.2   108  THR108     -0.2714
     43  CB        27.6750   15.5260   60.0200 C.3   108  THR108      0.1808
     44  OG1       28.4620   14.3280   60.1870 O.3   108  THR108     -0.2208
     45  CG2       27.5730   16.2100   61.3650 C.3   108  THR108      0.0379
     46  N         26.3220   13.4470   57.7670 N.am  109  ALA109     -0.1977
     47  CA        26.4940   12.9460   56.4160 C.3   109  ALA109      0.1597
     48  C         25.5420   11.8110   56.0430 C.2   109  ALA109      0.2287
     49  O         25.1070   11.0690   56.9070 O.2   109  ALA109     -0.2864
     50  CB        27.9360   12.4980   56.2470 C.3   109  ALA109      0.0319
     51  N         25.0130    8.5120   53.0610 N.3   111  GLN111     -0.1245
     52  CA        25.4010    7.6650   51.9410 C.3   111  GLN111      0.1566
     53  C         24.1420    7.2730   51.1760 C.2   111  GLN111      0.2260
     54  O         23.3400    6.4830   51.6720 O.2   111  GLN111     -0.2867
     55  CB        26.1470    6.4470   52.4660 C.3   111  GLN111      0.0367
     56  CG        27.4780    6.8090   53.1060 C.3   111  GLN111      0.0905
     57  CD        28.3250    5.5990   53.4440 C.2   111  GLN111      0.2608
     58  OE1       28.6140    5.3470   54.6000 O.2   111  GLN111     -0.2717
     59  NE2       28.7600    4.8620   52.4260 N.am  111  GLN111     -0.0878
     60  N         26.3490    7.8290   66.7590 N.3   277  SER277     -0.1202
     61  CA        27.3500    8.5670   66.0030 C.3   277  SER277      0.2020
     62  C         28.2930    7.5910   65.3310 C.2   277  SER277      0.2619
     63  O         28.3310    6.4050   65.6620 O.2   277  SER277     -0.2717
     64  CB        28.1340    9.5280   66.9040 C.3   277  SER277      0.2103
     65  OG        28.8420    8.8110   67.8870 O.3   277  SER277     -0.2182
     66  N         29.0470    8.1110   64.3830 N.am  278  GLY278     -0.1942
     67  CA        29.9900    7.3360   63.6430 C.3   278  GLY278      0.2014
     68  C         29.4020    7.0100   62.3010 C.2   278  GLY278      0.2639
     69  O         28.5040    7.6890   61.8050 O.2   278  GLY278     -0.2714
     70  N         29.9040    5.9340   61.7290 N.am  279  ASN279     -0.1958
     71  CA        29.5930    5.6040   60.3610 C.3   279  ASN279      0.1804
     72  C         28.1520    5.1510   60.2420 C.2   279  ASN279      0.2463
     73  O         27.6970    4.2900   61.0050 O.2   279  ASN279     -0.2730
     74  CB        30.5850    4.6190   59.7600 C.3   279  ASN279      0.1195
     75  CG        32.0310    5.1300   59.8590 C.2   279  ASN279      0.2630
     76  OD1       32.6080    5.2120   60.9550 O.2   279  ASN279     -0.2716
     77  ND2       32.5980    5.5200   58.7240 N.am  279  ASN279     -0.0877
     78  N         27.4040    5.7750   59.3260 N.am  280  PRO280     -0.2727
     79  CA        26.0410    5.3230   59.1040 C.3   280  PRO280      0.1402
     80  C         26.0610    3.8610   58.6990 C.2   280  PRO280      0.2269
     81  O         26.9710    3.4350   57.9910 O.2   280  PRO280     -0.2865
     82  CB        25.5620    6.2110   57.9680 C.3   280  PRO280      0.0296
     83  CG        26.8000    6.6880   57.2980 C.3   280  PRO280      0.0237
     84  CD        27.7780    6.8610   58.4110 C.3   280  PRO280      0.0939
@<TRIPOS>BOND
     1    13    12    1
     2    12    14    1
     3    12     9    1
     4     4     3    2
     5     9     8    1
     6     9    10    1
     7    53    54    2
     8    53    52    1
     9     1     7    1
    10     1     2    1
    11     3     8   am
    12     3     2    1
    13    21    15    1
    14    21    20    1
    15    52    55    1
    16    52    51    1
    17     7     6    1
    18     2     5    1
    19    59    57   am
    20    10    15   am
    21    10    11    2
    22    55    56    1
    23    15    16    1
    24    18    17    2
    25    20    19    1
    26    56    57    1
    27    57    58    2
    28     5     6    1
    29    19    16    1
    30    17    16    1
    31    48    47    1
    32    48    49    2
    33    50    47    1
    34    47    46    1
    35    42    41    2
    36    83    82    1
    37    83    84    1
    38    46    41   am
    39    82    79    1
    40    81    80    2
    41    41    40    1
    42    84    78    1
    43    80    79    1
    44    77    75   am
    45    79    78    1
    46    22    23    1
    47    78    72   am
    48    40    43    1
    49    40    39    1
    50    28    27    2
    51    74    75    1
    52    74    71    1
    53    75    76    2
    54    25    24    2
    55    43    44    1
    56    43    45    1
    57    72    71    1
    58    72    73    2
    59    27    29   am
    60    27    26    1
    61    71    70    1
    62    39    32   am
    63    33    32    2
    64    23    24    1
    65    23    26    1
    66    24    30   am
    67    32    31    1
    68    70    68   am
    69    69    68    2
    70    30    31    1
    71    31    34    1
    72    68    67    1
    73    34    35    1
    74    67    66    1
    75    66    62   am
    76    35    36    1
    77    62    63    2
    78    62    61    1
    79    36    37    2
    80    36    38   am
    81    61    60    1
    82    61    64    1
    83    64    65    1
