@<TRIPOS>MOLECULE
tmp/5fxvB00.pdb
 117 110 0 0 0
SMALL
GASTEIGER

@<TRIPOS>ATOM
      1  N        -37.0440   56.4670  -34.7280 N.3   125  PHE125     -0.1241
      2  CA       -37.4430   56.1050  -33.3770 C.3   125  PHE125      0.1605
      3  C        -36.6140   56.9500  -32.4000 C.2   125  PHE125      0.2264
      4  O        -35.3830   56.9110  -32.4310 O.2   125  PHE125     -0.2867
      5  CB       -37.2270   54.5870  -33.2200 C.3   125  PHE125      0.0534
      6  CG       -37.4840   54.0300  -31.8370 C.ar  125  PHE125     -0.0203
      7  CD1      -38.1820   54.7340  -30.8780 C.ar  125  PHE125     -0.0042
      8  CD2      -37.0160   52.7540  -31.5210 C.ar  125  PHE125     -0.0042
      9  CE1      -38.4090   54.1850  -29.6300 C.ar  125  PHE125     -0.0003
     10  CE2      -37.2340   52.2080  -30.2770 C.ar  125  PHE125     -0.0003
     11  CZ       -37.9290   52.9240  -29.3310 C.ar  125  PHE125     -0.0000
     12  N        -39.0810   57.5950  -24.3670 N.3   176  TYR176     -0.1241
     13  CA       -39.0440   57.1120  -25.7500 C.3   176  TYR176      0.1605
     14  C        -40.1450   57.8210  -26.5250 C.2   176  TYR176      0.2264
     15  O        -41.2550   57.9550  -26.0220 O.2   176  TYR176     -0.2867
     16  CB       -39.2290   55.5880  -25.8000 C.3   176  TYR176      0.0534
     17  CG       -38.2000   54.8370  -24.9680 C.ar  176  TYR176     -0.0201
     18  CD1      -38.3680   54.6840  -23.5930 C.ar  176  TYR176     -0.0009
     19  CD2      -37.0500   54.3230  -25.5490 C.ar  176  TYR176     -0.0009
     20  CE1      -37.4270   54.0220  -22.8240 C.ar  176  TYR176      0.0417
     21  CE2      -36.0950   53.6520  -24.7820 C.ar  176  TYR176      0.0417
     22  CZ       -36.2970   53.5090  -23.4220 C.ar  176  TYR176      0.1957
     23  OH       -35.3690   52.8550  -22.6420 O.3   176  TYR176     -0.2866
     24  N        -42.2550   57.6620  -30.1330 N.3   178  LYS178     -0.1245
     25  CA       -42.3450   56.6720  -31.2060 C.3   178  LYS178      0.1561
     26  C        -43.3190   56.9860  -32.3450 C.2   178  LYS178      0.2260
     27  O        -44.2690   57.7610  -32.1900 O.2   178  LYS178     -0.2867
     28  CB       -42.7200   55.3030  -30.6020 C.3   178  LYS178      0.0271
     29  CG       -41.9390   54.9510  -29.3130 C.3   178  LYS178      0.0035
     30  CD       -42.1660   53.4920  -28.9180 C.3   178  LYS178      0.0206
     31  CE       -41.4600   53.1400  -27.6330 C.3   178  LYS178      0.1093
     32  NZ       -41.8930   51.8010  -27.1150 N.3   178  LYS178     -0.1314
     33  N        -41.7290   51.5150  -34.6650 N.3   182  SER182     -0.1217
     34  CA       -40.5280   51.7990  -33.8630 C.3   182  SER182      0.1889
     35  C        -40.1660   50.6220  -32.9410 C.2   182  SER182      0.2288
     36  O        -40.9050   50.3180  -32.0020 O.2   182  SER182     -0.2866
     37  CB       -40.7300   53.0660  -33.0310 C.3   182  SER182      0.2089
     38  OG       -40.7640   54.2480  -33.8330 O.3   182  SER182     -0.2183
     39  N        -37.6770   48.2960  -30.3230 N.3   184  THR184     -0.1218
     40  CA       -36.5800   48.0040  -29.4160 C.3   184  THR184      0.1862
     41  C        -36.2360   46.5250  -29.5480 C.2   184  THR184      0.2287
     42  O        -37.0360   45.6700  -29.1530 O.2   184  THR184     -0.2866
     43  CB       -36.9480   48.3350  -27.9440 C.3   184  THR184      0.1770
     44  OG1      -37.1570   49.7540  -27.8140 O.3   184  THR184     -0.2211
     45  CG2      -35.8220   47.9020  -27.0100 C.3   184  THR184      0.0375
     46  N        -33.2670   41.9460  -26.0030 N.3   187  HIS187     -0.1241
     47  CA       -32.2490   42.1990  -25.0070 C.3   187  HIS187      0.1621
     48  C        -32.6870   41.7100  -23.6420 C.2   187  HIS187      0.2264
     49  O        -33.8680   41.4470  -23.4100 O.2   187  HIS187     -0.2867
     50  CB       -31.9230   43.6990  -24.9080 C.3   187  HIS187      0.0745
     51  CG       -33.0890   44.5280  -24.4620 C.ar  187  HIS187      0.0817
     52  ND1      -34.2080   44.7000  -25.2440 N.ar  187  HIS187     -0.2268
     53  CD2      -33.3330   45.1850  -23.2970 C.ar  187  HIS187      0.1154
     54  CE1      -35.0880   45.4490  -24.5900 C.ar  187  HIS187      0.1986
     55  NE2      -34.5840   45.7460  -23.4080 N.ar  187  HIS187     -0.2212
     56  N        -32.1280   43.2700  -19.5370 N.3   189  GLU189     -0.1245
     57  CA       -31.7400   44.5280  -18.8920 C.3   189  GLU189      0.1567
     58  C        -30.2590   44.5330  -18.4910 C.2   189  GLU189      0.2260
     59  O        -29.6650   43.4590  -18.3110 O.2   189  GLU189     -0.2867
     60  CB       -32.6130   44.7810  -17.6540 C.3   189  GLU189      0.0388
     61  CG       -34.0910   44.9900  -17.9740 C.3   189  GLU189      0.1160
     62  CD       -34.3020   46.0760  -19.0100 C.2   189  GLU189      0.3649
     63  OE1      -33.9530   47.2480  -18.7380 O.co2 189  GLU189     -0.2457
     64  OE2      -34.7850   45.7400  -20.1080 O.co2 189  GLU189     -0.2457
     65  N        -37.2390   45.8550  -14.6520 N.3   195  SER195     -0.1217
     66  CA       -37.5320   47.0670  -15.4020 C.3   195  SER195      0.1889
     67  C        -39.0050   47.4910  -15.2910 C.2   195  SER195      0.2288
     68  O        -39.8870   46.6460  -15.1080 O.2   195  SER195     -0.2866
     69  CB       -37.1060   46.8300  -16.8530 C.3   195  SER195      0.2089
     70  OG       -37.9850   47.4320  -17.7540 O.3   195  SER195     -0.2183
     71  N        -41.9410   50.0080  -17.2550 N.3   197  ASN197     -0.1240
     72  CA       -42.2630   50.7500  -18.4730 C.3   197  ASN197      0.1653
     73  C        -43.7470   51.1380  -18.4690 C.2   197  ASN197      0.2266
     74  O        -44.6180   50.2770  -18.3060 O.2   197  ASN197     -0.2867
     75  CB       -41.9130   49.9030  -19.7200 C.3   197  ASN197      0.1155
     76  CG       -42.1240   50.6450  -21.0470 C.2   197  ASN197      0.2627
     77  OD1      -43.2220   51.1100  -21.3470 O.2   197  ASN197     -0.2716
     78  ND2      -41.0670   50.7310  -21.8570 N.am  197  ASN197     -0.0877
     79  N        -45.5620   43.7980  -27.1680 N.3   207  TRP207     -0.1241
     80  CA       -44.4340   43.2190  -26.4530 C.3   207  TRP207      0.1605
     81  C        -44.2850   41.7440  -26.7350 C.2   207  TRP207      0.2264
     82  O        -45.2890   41.0390  -26.9130 O.2   207  TRP207     -0.2867
     83  CB       -44.5940   43.3970  -24.9360 C.3   207  TRP207      0.0550
     84  CG       -44.4280   44.8050  -24.4580 C.ar  207  TRP207      0.0003
     85  CD1      -45.2480   45.8600  -24.7280 C.ar  207  TRP207      0.0946
     86  CD2      -43.3990   45.3030  -23.6010 C.ar  207  TRP207      0.0152
     87  NE1      -44.7880   46.9830  -24.1090 N.ar  207  TRP207     -0.2442
     88  CE2      -43.6530   46.6770  -23.4080 C.ar  207  TRP207      0.0810
     89  CE3      -42.2740   44.7290  -22.9940 C.ar  207  TRP207      0.0012
     90  CZ2      -42.8350   47.4900  -22.6230 C.ar  207  TRP207      0.0191
     91  CZ3      -41.4540   45.5490  -22.1850 C.ar  207  TRP207      0.0001
     92  CH2      -41.7430   46.9100  -22.0150 C.ar  207  TRP207      0.0015
     93  N        -36.6580   40.2270  -23.9460 N.3   267  HIS267     -0.1241
     94  CA       -37.8050   40.8860  -24.5760 C.3   267  HIS267      0.1621
     95  C        -37.4410   41.8170  -25.7200 C.2   267  HIS267      0.2264
     96  O        -36.2990   42.2670  -25.8520 O.2   267  HIS267     -0.2867
     97  CB       -38.6430   41.6570  -23.5380 C.3   267  HIS267      0.0745
     98  CG       -37.8870   42.7140  -22.8000 C.ar  267  HIS267      0.0817
     99  ND1      -36.9310   42.4160  -21.8550 N.ar  267  HIS267     -0.2268
    100  CD2      -37.9870   44.0650  -22.8220 C.ar  267  HIS267      0.1154
    101  CE1      -36.4330   43.5350  -21.3700 C.ar  267  HIS267      0.1986
    102  NE2      -37.0560   44.5490  -21.9410 N.ar  267  HIS267     -0.2212
    103  N        -39.7680   44.8680  -28.3580 N.3   269  VAL269     -0.1245
    104  CA       -40.9830   45.6640  -28.3290 C.3   269  VAL269      0.1561
    105  C        -41.1110   46.4550  -29.6100 C.2   269  VAL269      0.2260
    106  O        -40.1010   46.8940  -30.1540 O.2   269  VAL269     -0.2867
    107  CB       -40.9690   46.6480  -27.1230 C.3   269  VAL269      0.0252
    108  CG1      -42.2600   47.4540  -27.0400 C.3   269  VAL269      0.0019
    109  CG2      -40.6770   45.8810  -25.8100 C.3   269  VAL269      0.0019
    110  N        -43.1950   56.4560  -24.4350 N.3   277  ASN277     -0.1240
    111  CA       -43.0640   55.5600  -23.2730 C.3   277  ASN277      0.1653
    112  C        -42.0430   56.1200  -22.2700 C.2   277  ASN277      0.2266
    113  O        -41.1020   56.8140  -22.6640 O.2   277  ASN277     -0.2867
    114  CB       -42.6250   54.1420  -23.7110 C.3   277  ASN277      0.1155
    115  CG       -43.6490   53.4420  -24.5890 C.2   277  ASN277      0.2627
    116  OD1      -43.8670   53.8260  -25.7260 O.2   277  ASN277     -0.2716
    117  ND2      -44.2400   52.3830  -24.0770 N.am  277  ASN277     -0.0877
@<TRIPOS>BOND
     1     1     2    1
     2    33    34    1
     3    34    37    1
     4    34    35    1
     5    38    37    1
     6     2     5    1
     7     2     3    1
     8     5     6    1
     9    35    36    2
    10     4     3    2
    11    26    27    2
    12    26    25    1
    13     6     8   ar
    14     6     7   ar
    15     8    10   ar
    16    25    28    1
    17    25    24    1
    18     7     9   ar
    19    28    29    1
    20    39    40    1
    21    10    11   ar
    22   106   105    2
    23     9    11   ar
    24   105   104    1
    25    41    40    1
    26    41    42    2
    27    40    43    1
    28    29    30    1
    29    30    31    1
    30   103   104    1
    31   104   107    1
    32    43    44    1
    33    43    45    1
    34    31    32    1
    35    79    80    1
    36   107   108    1
    37   107   109    1
    38    82    81    2
    39    81    80    1
    40    14    15    2
    41    14    13    1
    42    80    83    1
    43    46    47    1
    44    96    95    2
    45    16    13    1
    46    16    17    1
    47    13    12    1
    48   116   115    2
    49    95    94    1
    50    19    17   ar
    51    19    21   ar
    52    52    54   ar
    53    52    51   ar
    54    47    50    1
    55    47    48    1
    56    17    18   ar
    57    83    84    1
    58    50    51    1
    59    21    22   ar
    60    85    84   ar
    61    85    87   ar
    62    54    55   ar
    63   115   117   am
    64   115   114    1
    65    94    93    1
    66    94    97    1
    67    51    53   ar
    68    84    86   ar
    69   110   111    1
    70    87    88   ar
    71   114   111    1
    72    48    49    2
    73    86    88   ar
    74    86    89   ar
    75    18    20   ar
    76    97    98    1
    77    22    20   ar
    78    22    23    1
    79    55    53   ar
    80    88    90   ar
    81   111   112    1
    82    89    91   ar
    83   100    98   ar
    84   100   102   ar
    85    98    99   ar
    86   113   112    2
    87    90    92   ar
    88    91    92   ar
    89   102   101   ar
    90    78    76   am
    91    99   101   ar
    92    77    76    2
    93    76    75    1
    94    64    62   ar
    95    75    72    1
    96    56    57    1
    97    62    63   ar
    98    62    61    1
    99    57    58    1
   100    57    60    1
   101    58    59    2
   102    72    73    1
   103    72    71    1
   104    73    74    2
   105    61    60    1
   106    70    69    1
   107    69    66    1
   108    66    67    1
   109    66    65    1
   110    67    68    2
