@<TRIPOS>MOLECULE
tmp/5fxxB00.pdb
 124 116 0 0 0
SMALL
GASTEIGER

@<TRIPOS>ATOM
      1  N        -37.4330   56.8990  -35.4480 N.3   126  PHE126     -0.1241
      2  CA       -37.8500   56.5750  -34.0750 C.3   126  PHE126      0.1605
      3  C        -37.0080   57.3970  -33.0890 C.2   126  PHE126      0.2264
      4  O        -35.7780   57.3660  -33.1470 O.2   126  PHE126     -0.2867
      5  CB       -37.6960   55.0530  -33.8570 C.3   126  PHE126      0.0534
      6  CG       -37.9310   54.5580  -32.4300 C.ar  126  PHE126     -0.0203
      7  CD1      -38.6840   55.2780  -31.5030 C.ar  126  PHE126     -0.0042
      8  CD2      -37.4070   53.3200  -32.0400 C.ar  126  PHE126     -0.0042
      9  CE1      -38.8880   54.7890  -30.2070 C.ar  126  PHE126     -0.0003
     10  CE2      -37.5970   52.8190  -30.7520 C.ar  126  PHE126     -0.0003
     11  CZ       -38.3300   53.5560  -29.8250 C.ar  126  PHE126     -0.0000
     12  N        -39.4400   58.1100  -24.8750 N.3   177  TYR177     -0.1241
     13  CA       -39.4540   57.6140  -26.2590 C.3   177  TYR177      0.1605
     14  C        -40.6020   58.2780  -27.0360 C.2   177  TYR177      0.2264
     15  O        -41.7150   58.3590  -26.5190 O.2   177  TYR177     -0.2867
     16  CB       -39.6070   56.0780  -26.2730 C.3   177  TYR177      0.0534
     17  CG       -38.5890   55.3880  -25.3810 C.ar  177  TYR177     -0.0201
     18  CD1      -38.8140   55.2450  -24.0170 C.ar  177  TYR177     -0.0009
     19  CD2      -37.3970   54.9010  -25.9040 C.ar  177  TYR177     -0.0009
     20  CE1      -37.8810   54.6550  -23.1980 C.ar  177  TYR177      0.0417
     21  CE2      -36.4410   54.2870  -25.0820 C.ar  177  TYR177      0.0417
     22  CZ       -36.6990   54.1720  -23.7320 C.ar  177  TYR177      0.1957
     23  OH       -35.7860   53.5830  -22.8940 O.3   177  TYR177     -0.2866
     24  N        -42.7170   58.1440  -30.7290 N.3   179  LYS179     -0.1245
     25  CA       -42.8400   57.1430  -31.8050 C.3   179  LYS179      0.1561
     26  C        -43.8240   57.4590  -32.9360 C.2   179  LYS179      0.2260
     27  O        -44.7910   58.2370  -32.7630 O.2   179  LYS179     -0.2867
     28  CB       -43.2230   55.7700  -31.2070 C.3   179  LYS179      0.0271
     29  CG       -42.4000   55.3740  -29.9680 C.3   179  LYS179      0.0035
     30  CD       -42.7020   53.9380  -29.5270 C.3   179  LYS179      0.0206
     31  CE       -42.0120   53.6050  -28.1980 C.3   179  LYS179      0.1093
     32  NZ       -42.4380   52.2900  -27.6410 N.3   179  LYS179     -0.1314
     33  N        -38.1710   48.6980  -30.7830 N.3   185  THR185     -0.1218
     34  CA       -37.0800   48.4440  -29.8540 C.3   185  THR185      0.1862
     35  C        -36.6790   46.9790  -29.9520 C.2   185  THR185      0.2287
     36  O        -37.4540   46.1020  -29.5840 O.2   185  THR185     -0.2866
     37  CB       -37.4530   48.7680  -28.4130 C.3   185  THR185      0.1770
     38  OG1      -37.6880   50.1740  -28.2930 O.3   185  THR185     -0.2211
     39  CG2      -36.3030   48.3660  -27.4750 C.3   185  THR185      0.0375
     40  N        -33.6210   42.4500  -26.4000 N.3   188  HIS188     -0.1241
     41  CA       -32.5990   42.7270  -25.3900 C.3   188  HIS188      0.1621
     42  C        -33.0220   42.1880  -24.0230 C.2   188  HIS188      0.2264
     43  O        -34.2000   41.8590  -23.8060 O.2   188  HIS188     -0.2867
     44  CB       -32.3090   44.2440  -25.3020 C.3   188  HIS188      0.0745
     45  CG       -33.4550   45.0570  -24.7630 C.ar  188  HIS188      0.0817
     46  ND1      -34.6140   45.2870  -25.4800 N.ar  188  HIS188     -0.2268
     47  CD2      -33.6260   45.6780  -23.5710 C.ar  188  HIS188      0.1154
     48  CE1      -35.4420   46.0170  -24.7540 C.ar  188  HIS188      0.1986
     49  NE2      -34.8700   46.2660  -23.5890 N.ar  188  HIS188     -0.2212
     50  N        -32.3900   43.6870  -19.9130 N.3   190  GLU190     -0.1245
     51  CA       -32.0110   44.9270  -19.2330 C.3   190  GLU190      0.1567
     52  C        -30.5340   44.9320  -18.7920 C.2   190  GLU190      0.2260
     53  O        -29.9400   43.8610  -18.5960 O.2   190  GLU190     -0.2867
     54  CB       -32.9010   45.1460  -18.0130 C.3   190  GLU190      0.0388
     55  CG       -34.3760   45.3540  -18.3620 C.3   190  GLU190      0.1160
     56  CD       -34.5750   46.5180  -19.2980 C.2   190  GLU190      0.3649
     57  OE1      -34.2160   47.6640  -18.9320 O.co2 190  GLU190     -0.2457
     58  OE2      -35.0790   46.2800  -20.4120 O.co2 190  GLU190     -0.2457
     59  N        -37.5550   46.3130  -15.0010 N.3   196  SER196     -0.1217
     60  CA       -37.8870   47.5460  -15.7120 C.3   196  SER196      0.1889
     61  C        -39.3860   47.9060  -15.6140 C.2   196  SER196      0.2288
     62  O        -40.2200   47.0280  -15.4480 O.2   196  SER196     -0.2866
     63  CB       -37.4830   47.4200  -17.1840 C.3   196  SER196      0.2089
     64  OG       -37.5120   48.6790  -17.8240 O.3   196  SER196     -0.2183
     65  N        -42.3450   50.3250  -17.7190 N.3   198  ASN198     -0.1240
     66  CA       -42.6480   51.0820  -18.9360 C.3   198  ASN198      0.1653
     67  C        -44.1280   51.5230  -18.9130 C.2   198  ASN198      0.2266
     68  O        -45.0170   50.6900  -18.7380 O.2   198  ASN198     -0.2867
     69  CB       -42.3310   50.2260  -20.1860 C.3   198  ASN198      0.1155
     70  CG       -42.5300   50.9780  -21.5030 C.2   198  ASN198      0.2627
     71  OD1      -43.6030   51.5520  -21.7610 O.2   198  ASN198     -0.2716
     72  ND2      -41.5160   50.9450  -22.3610 N.am  198  ASN198     -0.0877
     73  N        -46.0360   44.1390  -27.6030 N.3   208  TRP208     -0.1241
     74  CA       -44.9170   43.5770  -26.8650 C.3   208  TRP208      0.1605
     75  C        -44.7320   42.0920  -27.1550 C.2   208  TRP208      0.2264
     76  O        -45.7180   41.3620  -27.3660 O.2   208  TRP208     -0.2867
     77  CB       -45.1110   43.7640  -25.3620 C.3   208  TRP208      0.0550
     78  CG       -44.9400   45.1900  -24.8760 C.ar  208  TRP208      0.0003
     79  CD1      -45.7790   46.2460  -25.1170 C.ar  208  TRP208      0.0946
     80  CD2      -43.8700   45.7030  -24.0740 C.ar  208  TRP208      0.0152
     81  NE1      -45.2980   47.3800  -24.5120 N.ar  208  TRP208     -0.2442
     82  CE2      -44.1210   47.0780  -23.8710 C.ar  208  TRP208      0.0810
     83  CE3      -42.7140   45.1350  -23.5140 C.ar  208  TRP208      0.0012
     84  CZ2      -43.2700   47.8990  -23.1250 C.ar  208  TRP208      0.0191
     85  CZ3      -41.8610   45.9580  -22.7710 C.ar  208  TRP208      0.0001
     86  CH2      -42.1430   47.3210  -22.5890 C.ar  208  TRP208      0.0015
     87  N        -41.3880   44.5090  -16.3660 N.3   262  ILE262     -0.1245
     88  CA       -40.4750   43.4950  -16.9120 C.3   262  ILE262      0.1561
     89  C        -39.6040   42.8720  -15.8120 C.2   262  ILE262      0.2260
     90  O        -38.7630   43.5620  -15.2050 O.2   262  ILE262     -0.2867
     91  CB       -39.5410   44.0990  -17.9980 C.3   262  ILE262      0.0252
     92  CG1      -40.3230   44.5140  -19.2460 C.3   262  ILE262      0.0019
     93  CG2      -38.4050   43.1120  -18.3730 C.3   262  ILE262      0.0019
     94  CD1      -40.9510   43.3380  -20.0150 C.3   262  ILE262      0.0001
     95  N        -37.0700   40.7240  -24.2170 N.3   268  HIS268     -0.1241
     96  CA       -38.2320   41.3770  -24.8420 C.3   268  HIS268      0.1621
     97  C        -37.8930   42.2840  -26.0180 C.2   268  HIS268      0.2264
     98  O        -36.7660   42.7760  -26.1430 O.2   268  HIS268     -0.2867
     99  CB       -39.0270   42.1740  -23.7990 C.3   268  HIS268      0.0745
    100  CG       -38.2160   43.2010  -23.0580 C.ar  268  HIS268      0.0817
    101  ND1      -37.2180   42.8680  -22.1720 N.ar  268  HIS268     -0.2268
    102  CD2      -38.2800   44.5550  -23.0550 C.ar  268  HIS268      0.1154
    103  CE1      -36.6870   43.9660  -21.6680 C.ar  268  HIS268      0.1986
    104  NE2      -37.3210   45.0040  -22.1820 N.ar  268  HIS268     -0.2212
    105  N        -40.2240   45.2630  -28.7980 N.3   270  VAL270     -0.1245
    106  CA       -41.4620   46.0720  -28.8200 C.3   270  VAL270      0.1561
    107  C        -41.6210   46.8540  -30.1180 C.2   270  VAL270      0.2260
    108  O        -40.6210   47.2720  -30.7150 O.2   270  VAL270     -0.2867
    109  CB       -41.4920   47.1020  -27.6430 C.3   270  VAL270      0.0252
    110  CG1      -42.8470   47.8360  -27.5630 C.3   270  VAL270      0.0019
    111  CG2      -41.1580   46.4380  -26.3100 C.3   270  VAL270      0.0019
    112  N        -43.6930   56.8650  -24.8650 N.3   278  ASN278     -0.1240
    113  CA       -43.5280   55.9680  -23.7060 C.3   278  ASN278      0.1653
    114  C        -42.4780   56.5380  -22.7280 C.2   278  ASN278      0.2266
    115  O        -41.5750   57.2820  -23.1290 O.2   278  ASN278     -0.2867
    116  CB       -43.0710   54.5450  -24.1220 C.3   278  ASN278      0.1155
    117  CG       -44.1250   53.7440  -24.8960 C.2   278  ASN278      0.2627
    118  OD1      -44.3930   53.9970  -26.0720 O.2   278  ASN278     -0.2716
    119  ND2      -44.6890   52.7320  -24.2380 N.am  278  ASN278     -0.0877
    120  N        -39.7250   55.1250  -19.4590 N.3   280  ALA280     -0.1245
    121  CA       -39.2390   53.8820  -18.8570 C.3   280  ALA280      0.1562
    122  C        -38.0060   54.1000  -17.9730 C.2   280  ALA280      0.2260
    123  O        -37.2830   55.0910  -18.1170 O.2   280  ALA280     -0.2867
    124  CB       -38.9550   52.8400  -19.9550 C.3   280  ALA280      0.0290
@<TRIPOS>BOND
     1     1     2    1
     2     2     5    1
     3     2     3    1
     4     5     6    1
     5     4     3    2
     6    26    27    2
     7    26    25    1
     8     6     8   ar
     9     6     7   ar
    10     8    10   ar
    11    25    28    1
    12    25    24    1
    13     7     9   ar
    14    28    29    1
    15    33    34    1
    16    10    11   ar
    17   108   107    2
    18     9    11   ar
    19   107   106    1
    20    29    30    1
    21    35    34    1
    22    35    36    2
    23    34    37    1
    24    30    31    1
    25   106   105    1
    26   106   109    1
    27    37    38    1
    28    37    39    1
    29    31    32    1
    30   109   110    1
    31   109   111    1
    32    73    74    1
    33    76    75    2
    34    75    74    1
    35    14    15    2
    36    14    13    1
    37    74    77    1
    38    40    41    1
    39    16    13    1
    40    16    17    1
    41    13    12    1
    42    98    97    2
    43   118   117    2
    44    97    96    1
    45    19    17   ar
    46    19    21   ar
    47    46    45   ar
    48    46    48   ar
    49    41    44    1
    50    41    42    1
    51    17    18   ar
    52    77    78    1
    53    44    45    1
    54    79    78   ar
    55    79    81   ar
    56    21    22   ar
    57   117   119   am
    58   117   116    1
    59    78    80   ar
    60   112   113    1
    61    96    95    1
    62    96    99    1
    63    45    47   ar
    64    48    49   ar
    65    81    82   ar
    66   116   113    1
    67    80    82   ar
    68    80    83   ar
    69    42    43    2
    70    18    20   ar
    71    82    84   ar
    72    99   100    1
    73    22    20   ar
    74    22    23    1
    75   113   114    1
    76    49    47   ar
    77    83    85   ar
    78   115   114    2
    79    84    86   ar
    80   100   102   ar
    81   100   101   ar
    82   102   104   ar
    83    85    86   ar
    84    72    70   am
    85   104   103   ar
    86   101   103   ar
    87    71    70    2
    88    70    69    1
    89    58    56   ar
    90    69    66    1
    91    94    92    1
    92   124   121    1
    93    50    51    1
    94   120   121    1
    95    56    57   ar
    96    56    55    1
    97    92    91    1
    98    51    52    1
    99    51    54    1
   100    66    67    1
   101    66    65    1
   102    67    68    2
   103   121   122    1
   104    52    53    2
   105    93    91    1
   106    55    54    1
   107   123   122    2
   108    91    88    1
   109    64    63    1
   110    63    60    1
   111    88    87    1
   112    88    89    1
   113    89    90    2
   114    60    61    1
   115    60    59    1
   116    61    62    2
