@<TRIPOS>MOLECULE
tmp/5fxzA00.pdb
 121 114 0 0 0
SMALL
GASTEIGER

@<TRIPOS>ATOM
      1  N        -11.5060    3.1310  -32.3950 N.3   134  ASN134     -0.1240
      2  CA       -10.5950    4.2580  -32.6430 C.3   134  ASN134      0.1653
      3  C        -10.5340    4.7990  -34.0640 C.2   134  ASN134      0.2266
      4  O         -9.4350    5.0410  -34.5810 O.2   134  ASN134     -0.2867
      5  CB        -9.1590    3.8760  -32.2360 C.3   134  ASN134      0.1155
      6  CG        -9.0620    3.4170  -30.7980 C.2   134  ASN134      0.2627
      7  OD1       -9.7510    3.9390  -29.9060 O.2   134  ASN134     -0.2716
      8  ND2       -8.2040    2.4410  -30.5580 N.am  134  ASN134     -0.0877
      9  N        -13.3250   10.5780  -32.1250 N.3   180  GLN180     -0.1245
     10  CA       -13.1580    9.1730  -32.5310 C.3   180  GLN180      0.1566
     11  C        -14.4970    8.4660  -32.6990 C.2   180  GLN180      0.2260
     12  O        -15.4370    8.7560  -31.9580 O.2   180  GLN180     -0.2867
     13  CB       -12.3200    8.4190  -31.5080 C.3   180  GLN180      0.0367
     14  CG       -10.9010    8.9600  -31.3860 C.3   180  GLN180      0.0905
     15  CD        -9.9270    7.8770  -30.9780 C.2   180  GLN180      0.2608
     16  OE1       -9.1500    7.3810  -31.7980 O.2   180  GLN180     -0.2717
     17  NE2       -9.9700    7.4970  -29.7070 N.am  180  GLN180     -0.0878
     18  N        -16.6130    4.5700  -33.2150 N.3   182  TYR182     -0.1241
     19  CA       -16.6190    3.1550  -32.8600 C.3   182  TYR182      0.1605
     20  C        -17.7850    2.4760  -33.5900 C.2   182  TYR182      0.2264
     21  O        -18.9000    3.0020  -33.5740 O.2   182  TYR182     -0.2867
     22  CB       -16.7730    2.9870  -31.3400 C.3   182  TYR182      0.0534
     23  CG       -15.7770    3.8220  -30.5630 C.ar  182  TYR182     -0.0201
     24  CD1      -15.9840    5.1850  -30.3540 C.ar  182  TYR182     -0.0009
     25  CD2      -14.6180    3.2530  -30.0550 C.ar  182  TYR182     -0.0009
     26  CE1      -15.0500    5.9600  -29.6620 C.ar  182  TYR182      0.0417
     27  CE2      -13.6890    4.0190  -29.3670 C.ar  182  TYR182      0.0417
     28  CZ       -13.9060    5.3650  -29.1700 C.ar  182  TYR182      0.1957
     29  OH       -12.9620    6.1130  -28.4780 O.3   182  TYR182     -0.2866
     30  N        -19.8890   -1.2200  -33.7900 N.3   184  LYS184     -0.1245
     31  CA       -20.0140   -2.3790  -32.9040 C.3   184  LYS184      0.1561
     32  C        -20.9970   -3.4710  -33.3230 C.2   184  LYS184      0.2260
     33  O        -21.9610   -3.2180  -34.0710 O.2   184  LYS184     -0.2867
     34  CB       -20.3940   -1.9060  -31.4940 C.3   184  LYS184      0.0271
     35  CG       -19.5600   -0.7470  -30.9610 C.3   184  LYS184      0.0035
     36  CD       -19.8490   -0.4440  -29.4830 C.3   184  LYS184      0.0206
     37  CE       -19.0450    0.7940  -29.0070 C.3   184  LYS184      0.1093
     38  NZ       -19.4240    1.2550  -27.6240 N.3   184  LYS184     -0.1314
     39  N        -15.1670   -2.5840  -24.3620 N.3   190  THR190     -0.1218
     40  CA       -14.0610   -1.6980  -23.9990 C.3   190  THR190      0.1862
     41  C        -13.6800   -2.0140  -22.5660 C.2   190  THR190      0.2287
     42  O        -14.4850   -1.7870  -21.6580 O.2   190  THR190     -0.2866
     43  CB       -14.4440   -0.2170  -24.1230 C.3   190  THR190      0.1770
     44  OG1      -14.8700    0.0510  -25.4610 O.3   190  THR190     -0.2211
     45  CG2      -13.2660    0.7020  -23.7770 C.3   190  THR190      0.0375
     46  N        -10.5970    1.0490  -17.5710 N.3   193  HIS193     -0.1241
     47  CA        -9.5870    2.1070  -17.7200 C.3   193  HIS193      0.1621
     48  C        -10.0070    3.4380  -17.1180 C.2   193  HIS193      0.2264
     49  O        -11.1960    3.6830  -16.8380 O.2   193  HIS193     -0.2867
     50  CB        -9.2770    2.3420  -19.1970 C.3   193  HIS193      0.0745
     51  CG       -10.4330    2.9160  -19.9610 C.ar  193  HIS193      0.0817
     52  ND1      -11.5670    2.1850  -20.2540 N.ar  193  HIS193     -0.2268
     53  CD2      -10.6360    4.1460  -20.4900 C.ar  193  HIS193      0.1154
     54  CE1      -12.4110    2.9350  -20.9390 C.ar  193  HIS193      0.1986
     55  NE2      -11.8730    4.1300  -21.0920 N.ar  193  HIS193     -0.2212
     56  N         -9.4410    7.6000  -18.3220 N.3   195  GLU195     -0.1245
     57  CA        -9.0700    8.4070  -19.4840 C.3   195  GLU195      0.1567
     58  C         -7.6250    8.8290  -19.4030 C.2   195  GLU195      0.2260
     59  O         -7.0550    8.8650  -18.3120 O.2   195  GLU195     -0.2867
     60  CB        -9.9290    9.6700  -19.5940 C.3   195  GLU195      0.0388
     61  CG       -11.4180    9.3890  -19.8560 C.3   195  GLU195      0.1160
     62  CD       -11.6250    8.5620  -21.1080 C.2   195  GLU195      0.3649
     63  OE1      -11.2570    9.0220  -22.2050 O.co2 195  GLU195     -0.2457
     64  OE2      -12.1400    7.4410  -20.9910 O.co2 195  GLU195     -0.2457
     65  N        -14.6270   12.6810  -20.2760 N.3   201  SER201     -0.1202
     66  CA       -14.9450   12.1970  -21.6150 C.3   201  SER201      0.2020
     67  C        -16.4450   12.3640  -21.9130 C.2   201  SER201      0.2619
     68  O        -17.2830   12.3210  -21.0160 O.2   201  SER201     -0.2717
     69  CB       -14.5160   10.7380  -21.8000 C.3   201  SER201      0.2103
     70  OG       -15.4190    9.8470  -21.1800 O.3   201  SER201     -0.2182
     71  N        -16.7480   12.5530  -23.1920 N.am  202  VAL202     -0.1965
     72  CA       -18.1000   12.7240  -23.7040 C.3   202  VAL202      0.1727
     73  C        -18.3560   11.5970  -24.7220 C.2   202  VAL202      0.2616
     74  O        -17.5330   11.3740  -25.5890 O.2   202  VAL202     -0.2715
     75  CB       -18.2570   14.1160  -24.3930 C.3   202  VAL202      0.0290
     76  CG1      -19.5910   14.2520  -25.0890 C.3   202  VAL202      0.0023
     77  CG2      -18.0170   15.2700  -23.4000 C.3   202  VAL202      0.0023
     78  N        -19.4810   10.8820  -24.6070 N.am  203  ASN203     -0.1972
     79  CA       -19.8180    9.7800  -25.5210 C.3   203  ASN203      0.1688
     80  C        -21.2840    9.8550  -25.9670 C.2   203  ASN203      0.2292
     81  O        -22.1680    9.9310  -25.1140 O.2   203  ASN203     -0.2864
     82  CB       -19.5500    8.4250  -24.8410 C.3   203  ASN203      0.1181
     83  CG       -19.7490    7.2430  -25.7730 C.2   203  ASN203      0.2629
     84  OD1      -20.8350    7.0320  -26.3360 O.2   203  ASN203     -0.2716
     85  ND2      -18.6970    6.4570  -25.9430 N.am  203  ASN203     -0.0877
     86  N        -23.0690    0.2450  -19.5700 N.3   213  TRP213     -0.1241
     87  CA       -21.9080    0.8780  -18.9250 C.3   213  TRP213      0.1605
     88  C        -21.7610    0.4480  -17.4630 C.2   213  TRP213      0.2264
     89  O        -22.7700    0.2870  -16.7630 O.2   213  TRP213     -0.2867
     90  CB       -22.0390    2.4070  -18.9730 C.3   213  TRP213      0.0550
     91  CG       -21.8800    3.0500  -20.3110 C.ar  213  TRP213      0.0003
     92  CD1      -22.7180    2.9470  -21.3810 C.ar  213  TRP213      0.0946
     93  CD2      -20.8300    3.9560  -20.7030 C.ar  213  TRP213      0.0152
     94  NE1      -22.2460    3.7160  -22.4260 N.ar  213  TRP213     -0.2442
     95  CE2      -21.0790    4.3280  -22.0410 C.ar  213  TRP213      0.0810
     96  CE3      -19.6770    4.4480  -20.0630 C.ar  213  TRP213      0.0012
     97  CZ2      -20.2460    5.2030  -22.7430 C.ar  213  TRP213      0.0191
     98  CZ3      -18.8300    5.3100  -20.7760 C.ar  213  TRP213      0.0001
     99  CH2      -19.1200    5.6710  -22.1020 C.ar  213  TRP213      0.0015
    100  N        -14.0630    3.0460  -15.6610 N.3   273  HIS273     -0.1241
    101  CA       -15.2540    2.5170  -16.3610 C.3   273  HIS273      0.1621
    102  C        -14.9080    1.4640  -17.4150 C.2   273  HIS273      0.2264
    103  O        -13.7590    1.3880  -17.8720 O.2   273  HIS273     -0.2867
    104  CB       -16.0530    3.6610  -17.0130 C.3   273  HIS273      0.0745
    105  CG       -15.2520    4.4890  -17.9710 C.ar  273  HIS273      0.0817
    106  ND1      -14.2590    5.3510  -17.5510 N.ar  273  HIS273     -0.2268
    107  CD2      -15.2960    4.5940  -19.3230 C.ar  273  HIS273      0.1154
    108  CE1      -13.7130    5.9370  -18.6040 C.ar  273  HIS273      0.1986
    109  NE2      -14.3260    5.5010  -19.6900 N.ar  273  HIS273     -0.2212
    110  N        -17.2090   -0.9140  -20.7700 N.3   275  VAL275     -0.1245
    111  CA       -18.4510   -0.8320  -21.5730 C.3   275  VAL275      0.1561
    112  C        -18.6250   -2.0450  -22.4970 C.2   275  VAL275      0.2260
    113  O        -17.6310   -2.6270  -22.9640 O.2   275  VAL275     -0.2867
    114  CB       -18.4670    0.4700  -22.4540 C.3   275  VAL275      0.0252
    115  CG1      -19.8500    0.7300  -23.0620 C.3   275  VAL275      0.0019
    116  CG2      -18.0050    1.7030  -21.6390 C.3   275  VAL275      0.0019
    117  N        -16.9980    9.7900  -29.5200 N.3   285  ALA285     -0.1245
    118  CA       -16.4660   10.2080  -28.2220 C.3   285  ALA285      0.1562
    119  C        -15.2420   11.0950  -28.3600 C.2   285  ALA285      0.2260
    120  O        -14.5360   11.0210  -29.3660 O.2   285  ALA285     -0.2867
    121  CB       -16.1120    8.9590  -27.3570 C.3   285  ALA285      0.0290
@<TRIPOS>BOND
     1     4     3    2
     2    33    32    2
     3     3     2    1
     4    30    31    1
     5    20    21    2
     6    20    19    1
     7    32    31    1
     8    18    19    1
     9    31    34    1
    10    19    22    1
    11    11    10    1
    12    11    12    2
    13     2     1    1
    14     2     5    1
    15    10     9    1
    16    10    13    1
    17     5     6    1
    18    16    15    2
    19    13    14    1
    20    34    35    1
    21    14    15    1
    22    22    23    1
    23    15    17   am
    24    35    36    1
    25     6     8   am
    26     6     7    2
    27    23    24   ar
    28    23    25   ar
    29    24    26   ar
    30    25    27   ar
    31    26    28   ar
    32   117   118    1
    33    36    37    1
    34    27    28   ar
    35   120   119    2
    36    28    29    1
    37    37    38    1
    38   119   118    1
    39   118   121    1
    40    84    83    2
    41    80    79    1
    42    80    81    2
    43    85    83   am
    44    83    82    1
    45    74    73    2
    46    79    82    1
    47    79    78    1
    48    44    43    1
    49    76    75    1
    50    73    78   am
    51    73    72    1
    52    75    72    1
    53    75    77    1
    54    39    40    1
    55    43    40    1
    56    43    45    1
    57    40    41    1
    58    72    71    1
    59    71    67   am
    60   115   114    1
    61   113   112    2
    62    97    99   ar
    63    97    95   ar
    64    41    42    2
    65   112   111    1
    66   114   116    1
    67   114   111    1
    68    94    95   ar
    69    94    92   ar
    70    63    62   ar
    71    99    98   ar
    72    95    93   ar
    73    67    66    1
    74    67    68    2
    75    69    66    1
    76    69    70    1
    77    66    65    1
    78   111   110    1
    79    92    91   ar
    80    62    64   ar
    81    62    61    1
    82    55    54   ar
    83    55    53   ar
    84    54    52   ar
    85    98    96   ar
    86    93    91   ar
    87    93    96   ar
    88    53    51   ar
    89    91    90    1
    90    52    51   ar
    91    51    50    1
    92    61    60    1
    93   109   107   ar
    94   109   108   ar
    95    60    57    1
    96    86    87    1
    97    57    58    1
    98    57    56    1
    99    58    59    2
   100   107   105   ar
   101    50    47    1
   102    90    87    1
   103    87    88    1
   104   108   106   ar
   105   105   106   ar
   106   105   104    1
   107   103   102    2
   108    47    46    1
   109    47    48    1
   110    88    89    2
   111   102   101    1
   112    48    49    2
   113   104   101    1
   114   101   100    1
