@<TRIPOS>MOLECULE
tmp/5fy5A01.pdb
 117 112 0 0 0
SMALL
GASTEIGER

@<TRIPOS>ATOM
      1  N         83.0810   56.6070    5.7390 N.3    75  ARG75      -0.1245
      2  CA        82.8880   57.3350    7.0050 C.3    75  ARG75       0.1563
      3  C         83.1260   56.4680    8.2480 C.2    75  ARG75       0.2260
      4  O         84.1140   56.6710    8.9530 O.2    75  ARG75      -0.2867
      5  CB        81.4900   57.9580    7.0680 C.3    75  ARG75       0.0307
      6  CG        81.3380   59.1860    6.1720 C.3    75  ARG75       0.0489
      7  CD        80.4870   60.2940    6.8040 C.3    75  ARG75       0.2205
      8  NE        81.1120   60.8530    8.0050 N.pl3  75  ARG75      -0.0865
      9  CZ        80.5920   61.8320    8.7460 C.cat  75  ARG75       0.5346
     10  NH1       79.4290   62.3900    8.3980 N.pl3  75  ARG75       0.1354
     11  NH2       81.2410   62.2550    9.8390 N.pl3  75  ARG75       0.1354
     12  N         93.5160   55.4430   13.9910 N.3   127  TYR127     -0.1241
     13  CA        92.6330   56.3720   14.6820 C.3   127  TYR127      0.1605
     14  C         91.7390   55.5270   15.5980 C.2   127  TYR127      0.2264
     15  O         91.4890   54.3570   15.3200 O.2   127  TYR127     -0.2867
     16  CB        91.7360   57.1520   13.6970 C.3   127  TYR127      0.0534
     17  CG        91.3490   58.5730   14.1290 C.ar  127  TYR127     -0.0201
     18  CD1       91.1360   58.8850   15.4790 C.ar  127  TYR127     -0.0009
     19  CD2       91.3180   59.6280   13.2120 C.ar  127  TYR127     -0.0009
     20  CE1       90.8110   60.1820   15.8930 C.ar  127  TYR127      0.0417
     21  CE2       90.9840   60.9240   13.6220 C.ar  127  TYR127      0.0417
     22  CZ        90.7410   61.1930   14.9730 C.ar  127  TYR127      0.1957
     23  OH        90.4130   62.4650   15.4320 O.3   127  TYR127     -0.2866
     24  N         87.1880   60.3750   20.1460 N.3   188  TYR188     -0.1241
     25  CA        88.2640   60.2030   19.1860 C.3   188  TYR188      0.1605
     26  C         89.6330   60.1960   19.8670 C.2   188  TYR188      0.2264
     27  O         90.0580   61.1970   20.4570 O.2   188  TYR188     -0.2867
     28  CB        88.2020   61.2980   18.1230 C.3   188  TYR188      0.0534
     29  CG        86.8590   61.4210   17.4410 C.ar  188  TYR188     -0.0201
     30  CD1       85.8570   62.2300   17.9730 C.ar  188  TYR188     -0.0009
     31  CD2       86.5830   60.7140   16.2700 C.ar  188  TYR188     -0.0009
     32  CE1       84.6240   62.3360   17.3510 C.ar  188  TYR188      0.0417
     33  CE2       85.3570   60.8060   15.6430 C.ar  188  TYR188      0.0417
     34  CZ        84.3810   61.6230   16.1810 C.ar  188  TYR188      0.1957
     35  OH        83.1510   61.7220   15.5590 O.3   188  TYR188     -0.2866
     36  N         90.5440   63.2550    9.7010 N.3   196  PHE196     -0.1241
     37  CA        89.1520   63.1050    9.3800 C.3   196  PHE196      0.1605
     38  C         88.9120   63.8430    8.0860 C.2   196  PHE196      0.2264
     39  O         89.3190   64.9930    7.9500 O.2   196  PHE196     -0.2867
     40  CB        88.2400   63.6010   10.5190 C.3   196  PHE196      0.0534
     41  CG        88.5440   64.9980   11.0300 C.ar  196  PHE196     -0.0203
     42  CD1       89.5820   65.2220   11.9340 C.ar  196  PHE196     -0.0042
     43  CD2       87.7290   66.0690   10.6810 C.ar  196  PHE196     -0.0042
     44  CE1       89.8410   66.5010   12.4400 C.ar  196  PHE196     -0.0003
     45  CE2       87.9750   67.3580   11.1880 C.ar  196  PHE196     -0.0003
     46  CZ        89.0320   67.5760   12.0610 C.ar  196  PHE196     -0.0000
     47  N         83.7350   66.4860    5.3490 N.3   199  HIS199     -0.1241
     48  CA        82.3500   66.0760    5.4970 C.3   199  HIS199      0.1621
     49  C         81.5540   67.2130    6.0820 C.2   199  HIS199      0.2264
     50  O         82.1120   68.2210    6.5250 O.2   199  HIS199     -0.2867
     51  CB        82.2400   64.8430    6.3860 C.3   199  HIS199      0.0745
     52  CG        82.6070   65.1140    7.8050 C.ar  199  HIS199      0.0817
     53  ND1       83.9120   65.1420    8.2390 N.ar  199  HIS199     -0.2268
     54  CD2       81.8440   65.4080    8.8830 C.ar  199  HIS199      0.1154
     55  CE1       83.9360   65.4130    9.5310 C.ar  199  HIS199      0.1986
     56  NE2       82.6940   65.5750    9.9460 N.ar  199  HIS199     -0.2212
     57  N         77.7880   67.4260    8.6530 N.3   201  GLU201     -0.1245
     58  CA        77.0730   66.5510    9.5880 C.3   201  GLU201      0.1567
     59  C         75.7590   66.0660    8.9870 C.2   201  GLU201      0.2260
     60  O         75.1560   66.7380    8.1550 O.2   201  GLU201     -0.2867
     61  CB        76.8040   67.2640   10.9130 C.3   201  GLU201      0.0388
     62  CG        78.0620   67.8010   11.6100 C.3   201  GLU201      0.1160
     63  CD        79.1660   66.7720   11.7430 C.2   201  GLU201      0.3649
     64  OE1       78.9160   65.6430   12.2450 O.co2 201  GLU201     -0.2457
     65  OE2       80.3040   67.0960   11.3290 O.co2 201  GLU201     -0.2457
     66  N         77.9460   70.6920   15.0030 N.3   207  SER207     -0.1217
     67  CA        78.6410   69.8070   15.9310 C.3   207  SER207      0.1889
     68  C         79.5300   70.6490   16.8300 C.2   207  SER207      0.2288
     69  O         79.8480   71.8010   16.5270 O.2   207  SER207     -0.2866
     70  CB        79.4440   68.7170   15.2090 C.3   207  SER207      0.2089
     71  OG        80.5120   69.2550   14.4460 O.3   207  SER207     -0.2183
     72  N         82.9940   69.9760   19.4460 N.3   209  ASN209     -0.1240
     73  CA        84.0870   69.0490   19.6600 C.3   209  ASN209      0.1653
     74  C         84.9650   69.6280   20.7550 C.2   209  ASN209      0.2266
     75  O         85.3520   70.8010   20.7120 O.2   209  ASN209     -0.2867
     76  CB        84.8690   68.8260   18.3480 C.3   209  ASN209      0.1155
     77  CG        86.0670   67.8840   18.5160 C.2   209  ASN209      0.2627
     78  OD1       86.9600   68.1300   19.3370 O.2   209  ASN209     -0.2716
     79  ND2       86.0880   66.7960   17.7370 N.am  209  ASN209     -0.0877
     80  N         94.6250   69.3920   17.6590 N.3   217  LYS217     -0.1245
     81  CA        93.9080   68.8600   16.5240 C.3   217  LYS217      0.1561
     82  C         93.8180   70.0000   15.5250 C.2   217  LYS217      0.2260
     83  O         93.3700   71.0960   15.8670 O.2   217  LYS217     -0.2867
     84  CB        92.5220   68.3410   16.9410 C.3   217  LYS217      0.0271
     85  CG        91.7070   67.7190   15.8110 C.3   217  LYS217      0.0035
     86  CD        90.2350   67.4380   16.1840 C.3   217  LYS217      0.0206
     87  CE        90.0800   66.4370   17.3340 C.3   217  LYS217      0.1093
     88  NZ        90.7150   65.1260   17.0650 N.3   217  LYS217     -0.1314
     89  N         92.2740   71.7440   12.2530 N.3   219  TRP219     -0.1241
     90  CA        90.9860   71.7820   11.5730 C.3   219  TRP219      0.1605
     91  C         91.0470   72.6200   10.3160 C.2   219  TRP219      0.2264
     92  O         91.6850   73.6620   10.3020 O.2   219  TRP219     -0.2867
     93  CB        89.9000   72.3980   12.4660 C.3   219  TRP219      0.0550
     94  CG        89.5190   71.5800   13.6230 C.ar  219  TRP219      0.0003
     95  CD1       90.2510   71.3540   14.7560 C.ar  219  TRP219      0.0946
     96  CD2       88.3000   70.8660   13.7810 C.ar  219  TRP219      0.0152
     97  NE1       89.5600   70.5380   15.6040 N.ar  219  TRP219     -0.2442
     98  CE2       88.3540   70.2170   15.0330 C.ar  219  TRP219      0.0810
     99  CE3       87.1520   70.7170   12.9890 C.ar  219  TRP219      0.0012
    100  CZ2       87.3130   69.4280   15.5200 C.ar  219  TRP219      0.0191
    101  CZ3       86.1180   69.9380   13.4700 C.ar  219  TRP219      0.0001
    102  CH2       86.2080   69.3010   14.7270 C.ar  219  TRP219      0.0015
    103  N         84.1880   70.2990    6.9100 N.3   287  HIS287     -0.1241
    104  CA        85.3810   70.3560    7.7050 C.3   287  HIS287      0.1621
    105  C         86.1560   69.0580    7.5920 C.2   287  HIS287      0.2264
    106  O         85.6050   68.0150    7.2320 O.2   287  HIS287     -0.2867
    107  CB        85.0630   70.7010    9.1840 C.3   287  HIS287      0.0745
    108  CG        84.0020   69.8460    9.8030 C.ar  287  HIS287      0.0817
    109  ND1       82.6580   70.0730    9.6050 N.ar  287  HIS287     -0.2268
    110  CD2       84.0870   68.7720   10.6280 C.ar  287  HIS287      0.1154
    111  CE1       81.9590   69.1710   10.2750 C.ar  287  HIS287      0.1986
    112  NE2       82.8000   68.3740   10.9080 N.ar  287  HIS287     -0.2212
    113  N         83.0250   64.5490   20.7830 N.3   299  ALA299     -0.1245
    114  CA        82.1680   65.4010   19.9680 C.3   299  ALA299      0.1562
    115  C         80.7240   64.9130   19.8970 C.2   299  ALA299      0.2260
    116  O         80.4290   63.7180   20.0110 O.2   299  ALA299     -0.2867
    117  CB        82.7410   65.5230   18.5810 C.3   299  ALA299      0.0290
@<TRIPOS>BOND
     1    47    48    1
     2    48    49    1
     3    48    51    1
     4     1     2    1
     5    49    50    2
     6     6     7    1
     7     6     5    1
     8    51    52    1
     9     7     8    1
    10   103   104    1
    11     2     5    1
    12     2     3    1
    13   106   105    2
    14   105   104    1
    15   104   107    1
    16    52    53   ar
    17    52    54   ar
    18    39    38    2
    19     8     9    2
    20    38    37    1
    21    60    59    2
    22    53    55   ar
    23     3     4    2
    24    10     9    1
    25    57    58    1
    26     9    11    1
    27    54    56   ar
    28    59    58    1
    29   107   108    1
    30    37    36    1
    31    37    40    1
    32    55    56   ar
    33    58    61    1
    34   109   108   ar
    35   109   111   ar
    36   108   110   ar
    37   111   112   ar
    38    92    91    2
    39    91    90    1
    40    40    41    1
    41   110   112   ar
    42    43    41   ar
    43    43    45   ar
    44    61    62    1
    45    41    42   ar
    46    45    46   ar
    47    65    63   ar
    48    90    89    1
    49    90    93    1
    50    62    63    1
    51    63    64   ar
    52    42    44   ar
    53    46    44   ar
    54    93    94    1
    55    99   101   ar
    56    99    96   ar
    57    19    21   ar
    58    19    17   ar
    59   101   102   ar
    60    21    22   ar
    61    94    96   ar
    62    94    95   ar
    63    16    17    1
    64    16    13    1
    65    96    98   ar
    66    12    13    1
    67    17    18   ar
    68    71    70    1
    69    13    14    1
    70   102   100   ar
    71    95    97   ar
    72    22    23    1
    73    22    20   ar
    74    66    67    1
    75    98   100   ar
    76    98    97   ar
    77    70    67    1
    78    15    14    2
    79    18    20   ar
    80    82    83    2
    81    82    81    1
    82    35    34    1
    83    33    34   ar
    84    33    31   ar
    85    85    86    1
    86    85    84    1
    87    67    68    1
    88    34    32   ar
    89    86    87    1
    90    31    29   ar
    91    81    84    1
    92    81    80    1
    93    69    68    2
    94    88    87    1
    95    32    30   ar
    96    29    30   ar
    97    29    28    1
    98    79    77   am
    99    28    25    1
   100    76    77    1
   101    76    73    1
   102    77    78    2
   103   117   114    1
   104    25    26    1
   105    25    24    1
   106    72    73    1
   107    73    74    1
   108    26    27    2
   109   115   114    1
   110   115   116    2
   111   114   113    1
   112    75    74    2
