@<TRIPOS>MOLECULE
tmp/5fy7A00.pdb
 122 114 0 0 0
SMALL
GASTEIGER

@<TRIPOS>ATOM
      1  N        -14.7100   -6.0030  -33.2480 N.3   133  PHE133     -0.1241
      2  CA       -15.1000   -4.6710  -32.7570 C.3   133  PHE133      0.1605
      3  C        -14.2280   -3.6390  -33.4840 C.2   133  PHE133      0.2264
      4  O        -12.9940   -3.7180  -33.4250 O.2   133  PHE133     -0.2867
      5  CB       -14.9290   -4.6300  -31.2180 C.3   133  PHE133      0.0534
      6  CG       -15.1120   -3.2630  -30.5680 C.ar  133  PHE133     -0.0203
      7  CD1      -15.8710   -2.2540  -31.1600 C.ar  133  PHE133     -0.0042
      8  CD2      -14.5320   -3.0170  -29.3250 C.ar  133  PHE133     -0.0042
      9  CE1      -16.0230   -1.0150  -30.5380 C.ar  133  PHE133     -0.0003
     10  CE2      -14.6770   -1.7870  -28.6950 C.ar  133  PHE133     -0.0003
     11  CZ       -15.4280   -0.7800  -29.3050 C.ar  133  PHE133     -0.0000
     12  N        -16.5540    4.5330  -33.0740 N.3   184  TYR184     -0.1241
     13  CA       -16.5870    3.1120  -32.7440 C.3   184  TYR184      0.1605
     14  C        -17.7400    2.4190  -33.4770 C.2   184  TYR184      0.2264
     15  O        -18.8860    2.8940  -33.4170 O.2   184  TYR184     -0.2867
     16  CB       -16.7400    2.9190  -31.2260 C.3   184  TYR184      0.0534
     17  CG       -15.7510    3.7450  -30.4090 C.ar  184  TYR184     -0.0201
     18  CD1      -15.9980    5.0840  -30.1190 C.ar  184  TYR184     -0.0009
     19  CD2      -14.5740    3.1800  -29.9270 C.ar  184  TYR184     -0.0009
     20  CE1      -15.0860    5.8430  -29.3820 C.ar  184  TYR184      0.0417
     21  CE2      -13.6730    3.9240  -29.1890 C.ar  184  TYR184      0.0417
     22  CZ       -13.9210    5.2470  -28.9180 C.ar  184  TYR184      0.1957
     23  OH       -12.9960    5.9710  -28.1750 O.3   184  TYR184     -0.2866
     24  N        -19.8490   -1.2860  -33.9310 N.3   186  LYS186     -0.1245
     25  CA       -20.0390   -2.4270  -33.0360 C.3   186  LYS186      0.1561
     26  C        -21.0250   -3.5070  -33.4980 C.2   186  LYS186      0.2260
     27  O        -21.9530   -3.2310  -34.2760 O.2   186  LYS186     -0.2867
     28  CB       -20.4970   -1.9250  -31.6560 C.3   186  LYS186      0.0271
     29  CG       -19.5790   -0.8550  -31.0300 C.3   186  LYS186      0.0035
     30  CD       -20.0950   -0.3830  -29.6600 C.3   186  LYS186      0.0206
     31  CE       -19.2590    0.7800  -29.0920 C.3   186  LYS186      0.1093
     32  NZ       -19.7290    1.1930  -27.7170 N.3   186  LYS186     -0.1314
     33  N        -19.2770   -6.4140  -28.2610 N.3   190  SER190     -0.1217
     34  CA       -18.0860   -5.5760  -28.4290 C.3   190  SER190      0.1889
     35  C        -17.7400   -4.8230  -27.1400 C.2   190  SER190      0.2288
     36  O        -18.5530   -4.0430  -26.6310 O.2   190  SER190     -0.2866
     37  CB       -18.2780   -4.5780  -29.5720 C.3   190  SER190      0.2089
     38  OG       -18.4720   -5.2460  -30.8090 O.3   190  SER190     -0.2183
     39  N        -15.2070   -2.4060  -24.6600 N.3   192  THR192     -0.1218
     40  CA       -14.1250   -1.4850  -24.2880 C.3   192  THR192      0.1862
     41  C        -13.7520   -1.8030  -22.8340 C.2   192  THR192      0.2287
     42  O        -14.5340   -1.5420  -21.9200 O.2   192  THR192     -0.2866
     43  CB       -14.5420    0.0150  -24.4450 C.3   192  THR192      0.1770
     44  OG1      -14.6860    0.3370  -25.8360 O.3   192  THR192     -0.2211
     45  CG2      -13.4810    0.9500  -23.8440 C.3   192  THR192      0.0375
     46  N        -10.6620    1.0300  -17.8220 N.3   195  HIS195     -0.1241
     47  CA        -9.6680    2.0950  -17.9710 C.3   195  HIS195      0.1621
     48  C        -10.0600    3.4070  -17.3090 C.2   195  HIS195      0.2264
     49  O        -11.2340    3.6510  -17.0110 O.2   195  HIS195     -0.2867
     50  CB        -9.4090    2.3600  -19.4500 C.3   195  HIS195      0.0745
     51  CG       -10.5930    2.9310  -20.1640 C.ar  195  HIS195      0.0817
     52  ND1      -11.7390    2.2020  -20.4020 N.ar  195  HIS195     -0.2268
     53  CD2      -10.8180    4.1650  -20.6740 C.ar  195  HIS195      0.1154
     54  CE1      -12.6140    2.9580  -21.0430 C.ar  195  HIS195      0.1986
     55  NE2      -12.0810    4.1540  -21.2170 N.ar  195  HIS195     -0.2212
     56  N         -9.4410    7.5970  -18.3170 N.3   197  GLU197     -0.1245
     57  CA        -9.0820    8.4280  -19.4600 C.3   197  GLU197      0.1567
     58  C         -7.6180    8.8540  -19.3800 C.2   197  GLU197      0.2260
     59  O         -7.0540    8.9070  -18.2860 O.2   197  GLU197     -0.2867
     60  CB        -9.9710    9.6700  -19.5230 C.3   197  GLU197      0.0388
     61  CG       -11.4530    9.3320  -19.7810 C.3   197  GLU197      0.1160
     62  CD       -11.6210    8.5640  -21.0810 C.2   197  GLU197      0.3649
     63  OE1      -11.3100    9.1350  -22.1510 O.co2 197  GLU197     -0.2457
     64  OE2      -12.0330    7.3880  -21.0320 O.co2 197  GLU197     -0.2457
     65  N        -14.6260   12.7920  -20.2220 N.3   203  SER203     -0.1217
     66  CA       -14.9350   12.3480  -21.5740 C.3   203  SER203      0.1889
     67  C        -16.4390   12.4290  -21.8770 C.2   203  SER203      0.2288
     68  O        -17.2750   12.4160  -20.9670 O.2   203  SER203     -0.2866
     69  CB       -14.4130   10.9200  -21.8010 C.3   203  SER203      0.2089
     70  OG       -15.2350    9.9440  -21.1870 O.3   203  SER203     -0.2183
     71  N        -19.4090   10.6320  -24.5060 N.3   205  ASN205     -0.1240
     72  CA       -19.7120    9.5200  -25.4160 C.3   205  ASN205      0.1653
     73  C        -21.1870    9.6010  -25.8450 C.2   205  ASN205      0.2266
     74  O        -22.0690    9.6600  -24.9870 O.2   205  ASN205     -0.2867
     75  CB       -19.4220    8.1740  -24.7230 C.3   205  ASN205      0.1155
     76  CG       -19.6420    6.9560  -25.6290 C.2   205  ASN205      0.2627
     77  OD1      -20.7160    6.7640  -26.2010 O.2   205  ASN205     -0.2716
     78  ND2      -18.6180    6.0900  -25.7140 N.am  205  ASN205     -0.0877
     79  N        -23.1530    0.0970  -19.5070 N.3   215  TRP215     -0.1241
     80  CA       -21.9840    0.7390  -18.8810 C.3   215  TRP215      0.1605
     81  C        -21.7880    0.2940  -17.4320 C.2   215  TRP215      0.2264
     82  O        -22.7690    0.1240  -16.6930 O.2   215  TRP215     -0.2867
     83  CB       -22.1220    2.2740  -18.8970 C.3   215  TRP215      0.0550
     84  CG       -21.9390    2.9400  -20.2350 C.ar  215  TRP215      0.0003
     85  CD1      -22.7530    2.8290  -21.3300 C.ar  215  TRP215      0.0946
     86  CD2      -20.8840    3.8460  -20.6020 C.ar  215  TRP215      0.0152
     87  NE1      -22.2580    3.6020  -22.3610 N.ar  215  TRP215     -0.2442
     88  CE2      -21.1070    4.2260  -21.9420 C.ar  215  TRP215      0.0810
     89  CE3      -19.7650    4.3570  -19.9300 C.ar  215  TRP215      0.0012
     90  CZ2      -20.2620    5.1030  -22.6230 C.ar  215  TRP215      0.0191
     91  CZ3      -18.9070    5.2290  -20.6120 C.ar  215  TRP215      0.0001
     92  CH2      -19.1610    5.5910  -21.9450 C.ar  215  TRP215      0.0015
     93  N        -14.0650    3.0040  -15.7670 N.3   275  HIS275     -0.1241
     94  CA       -15.2460    2.5120  -16.5000 C.3   275  HIS275      0.1621
     95  C        -14.9080    1.4650  -17.5780 C.2   275  HIS275      0.2264
     96  O        -13.7590    1.3850  -18.0440 O.2   275  HIS275     -0.2867
     97  CB       -16.0330    3.7090  -17.1180 C.3   275  HIS275      0.0745
     98  CG       -15.2220    4.5730  -18.0450 C.ar  275  HIS275      0.0817
     99  ND1      -14.2290    5.4200  -17.5980 N.ar  275  HIS275     -0.2268
    100  CD2      -15.2620    4.7220  -19.3930 C.ar  275  HIS275      0.1154
    101  CE1      -13.6820    6.0440  -18.6280 C.ar  275  HIS275      0.1986
    102  NE2      -14.2920    5.6410  -19.7320 N.ar  275  HIS275     -0.2212
    103  N        -17.2620   -0.9300  -20.8990 N.3   277  VAL277     -0.1245
    104  CA       -18.5030   -0.8010  -21.7030 C.3   277  VAL277      0.1561
    105  C        -18.6830   -1.9910  -22.6540 C.2   277  VAL277      0.2260
    106  O        -17.6990   -2.5150  -23.1960 O.2   277  VAL277     -0.2867
    107  CB       -18.5070    0.5320  -22.5610 C.3   277  VAL277      0.0252
    108  CG1      -19.8390    0.7400  -23.3060 C.3   277  VAL277      0.0019
    109  CG2      -18.2010    1.7620  -21.6930 C.3   277  VAL277      0.0019
    110  N        -20.7890    4.3880  -31.8210 N.3   285  ASN285     -0.1240
    111  CA       -20.6360    5.4530  -30.8140 C.3   285  ASN285      0.1653
    112  C        -19.5780    6.4980  -31.2680 C.2   285  ASN285      0.2266
    113  O        -18.7050    6.1830  -32.0910 O.2   285  ASN285     -0.2867
    114  CB       -20.2190    4.8720  -29.4470 C.3   285  ASN285      0.1155
    115  CG       -21.2660    3.9470  -28.8280 C.2   285  ASN285      0.2627
    116  OD1      -21.5520    2.8650  -29.3500 O.2   285  ASN285     -0.2716
    117  ND2      -21.8140    4.3530  -27.6780 N.am  285  ASN285     -0.0877
    118  N        -16.8930    9.5990  -29.3840 N.3   287  ALA287     -0.1245
    119  CA       -16.4070   10.0660  -28.0790 C.3   287  ALA287      0.1562
    120  C        -15.1940   10.9680  -28.2130 C.2   287  ALA287      0.2260
    121  O        -14.4750   10.8930  -29.2180 O.2   287  ALA287     -0.2867
    122  CB       -16.0740    8.8630  -27.1650 C.3   287  ALA287      0.0290
@<TRIPOS>BOND
     1    27    26    2
     2    24    25    1
     3    26    25    1
     4     3     4    2
     5     3     2    1
     6    14    15    2
     7    14    13    1
     8     1     2    1
     9    12    13    1
    10    25    28    1
    11     2     5    1
    12    13    16    1
    13   113   112    2
    14   110   111    1
    15    28    29    1
    16   112   111    1
    17    16    17    1
    18     5     6    1
    19     7     6   ar
    20     7     9   ar
    21    29    30    1
    22   111   114    1
    23    38    37    1
    24     6     8   ar
    25     9    11   ar
    26    17    18   ar
    27    17    19   ar
    28    18    20   ar
    29    19    21   ar
    30    30    31    1
    31    37    34    1
    32   114   115    1
    33   118   119    1
    34    20    22   ar
    35   116   115    2
    36     8    10   ar
    37    11    10   ar
    38   121   120    2
    39    21    22   ar
    40    31    32    1
    41    22    23    1
    42   115   117   am
    43    34    33    1
    44    34    35    1
    45   120   119    1
    46   119   122    1
    47    35    36    2
    48    77    76    2
    49    73    72    1
    50    73    74    2
    51    44    43    1
    52    78    76   am
    53    76    75    1
    54    72    75    1
    55    72    71    1
    56    39    40    1
    57    43    40    1
    58    43    45    1
    59    40    41    1
    60   108   107    1
    61   106   105    2
    62    41    42    2
    63   105   104    1
    64    90    92   ar
    65    90    88   ar
    66   107   104    1
    67   107   109    1
    68    87    88   ar
    69    87    85   ar
    70    63    62   ar
    71    92    91   ar
    72    88    86   ar
    73    67    66    1
    74    67    68    2
    75    69    66    1
    76    69    70    1
    77   104   103    1
    78    66    65    1
    79    85    84   ar
    80    55    54   ar
    81    55    53   ar
    82    62    64   ar
    83    62    61    1
    84    54    52   ar
    85    53    51   ar
    86    91    89   ar
    87    86    84   ar
    88    86    89   ar
    89    52    51   ar
    90    84    83    1
    91    51    50    1
    92    61    60    1
    93   102   100   ar
    94   102   101   ar
    95    60    57    1
    96    79    80    1
    97    57    58    1
    98    57    56    1
    99    50    47    1
   100   100    98   ar
   101    58    59    2
   102    83    80    1
   103    80    81    1
   104   101    99   ar
   105    98    99   ar
   106    98    97    1
   107    96    95    2
   108    47    46    1
   109    47    48    1
   110    95    94    1
   111    81    82    2
   112    48    49    2
   113    97    94    1
   114    94    93    1
