@<TRIPOS>MOLECULE
tmp/5fy8A00.pdb
 129 123 0 0 0
SMALL
GASTEIGER

@<TRIPOS>ATOM
      1  N        -14.0940  -20.1190  -24.3220 N.3   129  TYR129     -0.1241
      2  CA       -15.4670  -19.9780  -24.7570 C.3   129  TYR129      0.1605
      3  C        -15.6720  -18.5240  -25.1220 C.2   129  TYR129      0.2264
      4  O        -15.4560  -17.6510  -24.2810 O.2   129  TYR129     -0.2867
      5  CB       -16.4410  -20.3960  -23.6480 C.3   129  TYR129      0.0534
      6  CG       -17.8410  -20.7460  -24.1080 C.ar  129  TYR129     -0.0201
      7  CD1      -18.1080  -21.0180  -25.4340 C.ar  129  TYR129     -0.0009
      8  CD2      -18.8940  -20.8210  -23.2020 C.ar  129  TYR129     -0.0009
      9  CE1      -19.3840  -21.3540  -25.8570 C.ar  129  TYR129      0.0417
     10  CE2      -20.1800  -21.1610  -23.6160 C.ar  129  TYR129      0.0417
     11  CZ       -20.4190  -21.4330  -24.9350 C.ar  129  TYR129      0.1957
     12  OH       -21.6880  -21.7740  -25.3550 O.3   129  TYR129     -0.2866
     13  N        -17.9390  -16.2200  -25.1940 N.3   131  ALA131     -0.1231
     14  CA       -19.2840  -16.1810  -24.6160 C.3   131  ALA131      0.1694
     15  C        -19.7740  -14.7770  -24.3390 C.2   131  ALA131      0.2592
     16  O        -18.9710  -13.8490  -24.1610 O.2   131  ALA131     -0.2718
     17  CB       -19.3140  -16.9880  -23.3370 C.3   131  ALA131      0.0304
     18  N        -21.0970  -14.6490  -24.2420 N.am  132  ASP132     -0.1974
     19  CA       -21.7480  -13.3890  -23.8780 C.3   132  ASP132      0.1709
     20  C        -21.2900  -12.2550  -24.7870 C.2   132  ASP132      0.2293
     21  O        -20.9830  -11.1600  -24.3160 O.2   132  ASP132     -0.2864
     22  CB       -21.4760  -13.0090  -22.4190 C.3   132  ASP132      0.1436
     23  CG       -21.8420  -14.1160  -21.4380 C.2   132  ASP132      0.3671
     24  OD1      -22.6760  -14.9910  -21.7660 O.co2 132  ASP132     -0.2456
     25  OD2      -21.3230  -14.0850  -20.3050 O.co2 132  ASP132     -0.2456
     26  N        -22.4340  -16.8680  -28.9980 N.3   174  TYR174     -0.1241
     27  CA       -21.5260  -17.7670  -28.2890 C.3   174  TYR174      0.1605
     28  C        -20.6480  -18.5380  -29.2540 C.2   174  TYR174      0.2264
     29  O        -21.1180  -19.4380  -29.9520 O.2   174  TYR174     -0.2867
     30  CB       -22.2970  -18.7640  -27.4030 C.3   174  TYR174      0.0534
     31  CG       -23.0280  -18.1370  -26.2360 C.ar  174  TYR174     -0.0201
     32  CD1      -24.3330  -17.6660  -26.3680 C.ar  174  TYR174     -0.0009
     33  CD2      -22.4160  -18.0220  -25.0010 C.ar  174  TYR174     -0.0009
     34  CE1      -25.0030  -17.0990  -25.2920 C.ar  174  TYR174      0.0417
     35  CE2      -23.0720  -17.4570  -23.9260 C.ar  174  TYR174      0.0417
     36  CZ       -24.3620  -17.0000  -24.0710 C.ar  174  TYR174      0.1957
     37  OH       -24.9920  -16.4290  -22.9870 O.3   174  TYR174     -0.2866
     38  N        -21.7450  -25.4490  -20.8370 N.3   182  PHE182     -0.1241
     39  CA       -22.6390  -24.6190  -20.0340 C.3   182  PHE182      0.1605
     40  C        -23.2220  -25.4590  -18.8960 C.2   182  PHE182      0.2264
     41  O        -23.7510  -26.5490  -19.1110 O.2   182  PHE182     -0.2867
     42  CB       -23.7360  -23.9240  -20.8880 C.3   182  PHE182      0.0534
     43  CG       -24.5050  -24.8340  -21.8210 C.ar  182  PHE182     -0.0203
     44  CD1      -23.9340  -25.3010  -22.9980 C.ar  182  PHE182     -0.0042
     45  CD2      -25.8380  -25.1490  -21.5600 C.ar  182  PHE182     -0.0042
     46  CE1      -24.6570  -26.1220  -23.8790 C.ar  182  PHE182     -0.0003
     47  CE2      -26.5740  -25.9560  -22.4370 C.ar  182  PHE182     -0.0003
     48  CZ       -25.9720  -26.4510  -23.6070 C.ar  182  PHE182     -0.0000
     49  N        -28.5940  -25.0570  -15.1810 N.3   185  HIS185     -0.1241
     50  CA       -29.3090  -23.8670  -14.7640 C.3   185  HIS185      0.1621
     51  C        -30.6670  -23.7430  -15.4250 C.2   185  HIS185      0.2264
     52  O        -30.9120  -24.3410  -16.4950 O.2   185  HIS185     -0.2867
     53  CB       -28.4880  -22.6400  -15.0890 C.3   185  HIS185      0.0745
     54  CG       -28.3780  -22.3750  -16.5550 C.ar  185  HIS185      0.0817
     55  ND1      -27.6270  -23.1650  -17.3970 N.ar  185  HIS185     -0.2268
     56  CD2      -28.8940  -21.3820  -17.3210 C.ar  185  HIS185      0.1154
     57  CE1      -27.7130  -22.6910  -18.6290 C.ar  185  HIS185      0.1986
     58  NE2      -28.4680  -21.6080  -18.6070 N.ar  185  HIS185     -0.2212
     59  N        -33.1890  -20.3970  -16.7600 N.3   187  GLU187     -0.1245
     60  CA       -32.9540  -19.0420  -17.2260 C.3   187  GLU187      0.1567
     61  C        -33.1840  -18.0630  -16.0880 C.2   187  GLU187      0.2260
     62  O        -33.8520  -18.4010  -15.1070 O.2   187  GLU187     -0.2867
     63  CB       -33.8660  -18.7260  -18.4100 C.3   187  GLU187      0.0388
     64  CG       -33.6180  -19.6400  -19.5980 C.3   187  GLU187      0.1160
     65  CD       -32.1580  -19.6500  -20.0090 C.2   187  GLU187      0.3649
     66  OE1      -31.6050  -18.5770  -20.3230 O.co2 187  GLU187     -0.2457
     67  OE2      -31.5550  -20.7370  -19.9730 O.co2 187  GLU187     -0.2457
     68  N        -35.7890  -19.6490  -23.1040 N.3   193  SER193     -0.1217
     69  CA       -34.7850  -19.1690  -24.0370 C.3   193  SER193      0.1889
     70  C        -34.9810  -19.7780  -25.4140 C.2   193  SER193      0.2288
     71  O        -35.6300  -20.8080  -25.5820 O.2   193  SER193     -0.2866
     72  CB       -33.3660  -19.4260  -23.5200 C.3   193  SER193      0.2089
     73  OG       -33.1900  -20.7700  -23.1860 O.3   193  SER193     -0.2183
     74  N        -32.3700  -20.7600  -28.6790 N.3   195  ASN195     -0.1240
     75  CA       -30.9650  -20.8680  -29.0620 C.3   195  ASN195      0.1653
     76  C        -30.8520  -21.3140  -30.5280 C.2   195  ASN195      0.2266
     77  O        -31.3420  -22.3850  -30.8960 O.2   195  ASN195     -0.2867
     78  CB       -30.2320  -21.8390  -28.1100 C.3   195  ASN195      0.1155
     79  CG       -28.7300  -21.9580  -28.3980 C.2   195  ASN195      0.2627
     80  OD1      -28.3280  -22.4640  -29.4530 O.2   195  ASN195     -0.2716
     81  ND2      -27.8940  -21.4800  -27.4610 N.am  195  ASN195     -0.0877
     82  N        -23.9100  -28.8870  -30.7750 N.3   203  LYS203     -0.1245
     83  CA       -23.9860  -28.5850  -29.3530 C.3   203  LYS203      0.1561
     84  C        -24.9020  -29.6360  -28.7640 C.2   203  LYS203      0.2260
     85  O        -26.0260  -29.8140  -29.2370 O.2   203  LYS203     -0.2867
     86  CB       -24.5230  -27.1580  -29.1020 C.3   203  LYS203      0.0271
     87  CG       -24.6450  -26.7870  -27.6310 C.3   203  LYS203      0.0035
     88  CD       -25.4930  -25.5270  -27.3780 C.3   203  LYS203      0.0206
     89  CE       -24.9480  -24.2510  -28.0230 C.3   203  LYS203      0.1093
     90  NZ       -23.6940  -23.7920  -27.3900 N.3   203  LYS203     -0.1314
     91  N        -27.0390  -31.2370  -25.5140 N.3   205  TRP205     -0.1241
     92  CA       -27.8150  -30.7340  -24.4030 C.3   205  TRP205      0.1605
     93  C        -28.2240  -31.8500  -23.4890 C.2   205  TRP205      0.2264
     94  O        -28.4550  -32.9620  -23.9480 O.2   205  TRP205     -0.2867
     95  CB       -29.0810  -30.0320  -24.8990 C.3   205  TRP205      0.0550
     96  CG       -28.8630  -28.8370  -25.7310 C.ar  205  TRP205      0.0003
     97  CD1      -28.3380  -28.7860  -26.9930 C.ar  205  TRP205      0.0946
     98  CD2      -29.1850  -27.4930  -25.3760 C.ar  205  TRP205      0.0152
     99  NE1      -28.3100  -27.4830  -27.4410 N.ar  205  TRP205     -0.2442
    100  CE2      -28.8260  -26.6730  -26.4650 C.ar  205  TRP205      0.0810
    101  CE3      -29.7500  -26.9010  -24.2410 C.ar  205  TRP205      0.0012
    102  CZ2      -29.0050  -25.2910  -26.4470 C.ar  205  TRP205      0.0191
    103  CZ3      -29.9320  -25.5320  -24.2290 C.ar  205  TRP205      0.0001
    104  CH2      -29.5630  -24.7430  -25.3260 C.ar  205  TRP205      0.0015
    105  N        -24.1590  -20.6250  -12.6500 N.3   238  LYS238     -0.1245
    106  CA       -23.7420  -21.3880  -13.8340 C.3   238  LYS238      0.1561
    107  C        -22.3190  -21.9690  -13.6990 C.2   238  LYS238      0.2260
    108  O        -21.5600  -21.9590  -14.6560 O.2   238  LYS238     -0.2867
    109  CB       -23.8270  -20.5210  -15.0970 C.3   238  LYS238      0.0271
    110  CG       -25.2550  -20.2980  -15.5930 C.3   238  LYS238      0.0035
    111  CD       -25.3260  -20.2950  -17.1190 C.3   238  LYS238      0.0206
    112  CE       -25.4570  -18.8880  -17.6580 C.3   238  LYS238      0.1093
    113  NZ       -25.6290  -18.8950  -19.1390 N.3   238  LYS238     -0.1314
    114  N        -31.0810  -27.1780  -17.6530 N.3   273  HIS273     -0.1241
    115  CA       -30.3520  -27.6960  -18.7890 C.3   273  HIS273      0.1621
    116  C        -28.8700  -27.4060  -18.6710 C.2   273  HIS273      0.2264
    117  O        -28.4570  -26.5190  -17.9320 O.2   273  HIS273     -0.2867
    118  CB       -30.8900  -27.1170  -20.1000 C.3   273  HIS273      0.0745
    119  CG       -31.0120  -25.6320  -20.1040 C.ar  273  HIS273      0.0817
    120  ND1      -32.0630  -24.9740  -19.4980 N.ar  273  HIS273     -0.2268
    121  CD2      -30.2390  -24.6700  -20.6600 C.ar  273  HIS273      0.1154
    122  CE1      -31.9300  -23.6720  -19.6780 C.ar  273  HIS273      0.1986
    123  NE2      -30.8260  -23.4600  -20.3730 N.ar  273  HIS273     -0.2212
    124  N        -28.4110  -16.5150  -28.8270 N.3   285  SER285     -0.1217
    125  CA       -29.5030  -16.7620  -27.8780 C.3   285  SER285      0.1889
    126  C        -30.0110  -15.5140  -27.1530 C.2   285  SER285      0.2288
    127  O        -29.3020  -14.4980  -27.0240 O.2   285  SER285     -0.2866
    128  CB       -29.0820  -17.8090  -26.8450 C.3   285  SER285      0.2089
    129  OG       -28.2750  -17.2280  -25.8370 O.3   285  SER285     -0.2183
@<TRIPOS>BOND
     1    77    76    2
     2    82    83    1
     3    76    75    1
     4    29    28    2
     5    80    79    2
     6    83    86    1
     7    83    84    1
     8    28    27    1
     9    85    84    2
    10    86    87    1
    11    75    74    1
    12    75    78    1
    13    26    27    1
    14   124   125    1
    15    79    78    1
    16    79    81   am
    17    27    30    1
    18    89    90    1
    19    89    88    1
    20   125   126    1
    21   125   128    1
    22    87    88    1
    23    99    97   ar
    24    99   100   ar
    25    30    31    1
    26   126   127    2
    27    97    96   ar
    28   128   129    1
    29   100   102   ar
    30   100    98   ar
    31   102   104   ar
    32    32    31   ar
    33    32    34   ar
    34    31    33   ar
    35     9     7   ar
    36     9    11   ar
    37    96    98   ar
    38    96    95    1
    39    71    70    2
    40    91    92    1
    41     7     6   ar
    42    70    69    1
    43    98   101   ar
    44    12    11    1
    45   104   103   ar
    46    34    36   ar
    47    13    14    1
    48     3     2    1
    49     3     4    2
    50    33    35   ar
    51    11    10   ar
    52    95    92    1
    53    20    21    2
    54    20    19    1
    55     2     1    1
    56     2     5    1
    57    14    15    1
    58    14    17    1
    59    92    93    1
    60    15    18   am
    61    15    16    2
    62    18    19    1
    63   101   103   ar
    64     6     5    1
    65     6     8   ar
    66    36    35   ar
    67    36    37    1
    68    69    72    1
    69    69    68    1
    70    94    93    2
    71    46    48   ar
    72    46    44   ar
    73    19    22    1
    74    10     8   ar
    75    48    47   ar
    76    72    73    1
    77    44    43   ar
    78    47    45   ar
    79    22    23    1
    80    43    45   ar
    81    43    42    1
    82    24    23   ar
    83    23    25   ar
    84    42    39    1
    85    38    39    1
    86   121   123   ar
    87   121   119   ar
    88   123   122   ar
    89    66    65   ar
    90   119   118    1
    91   119   120   ar
    92   118   115    1
    93    39    40    1
    94    65    67   ar
    95    65    64    1
    96   122   120   ar
    97    64    63    1
    98   113   112    1
    99    41    40    2
   100   115   116    1
   101   115   114    1
   102   116   117    2
   103    57    58   ar
   104    57    55   ar
   105    58    56   ar
   106    63    60    1
   107   112   111    1
   108    55    54   ar
   109    56    54   ar
   110    60    59    1
   111    60    61    1
   112   111   110    1
   113    54    53    1
   114    52    51    2
   115    61    62    2
   116   110   109    1
   117    51    50    1
   118    49    50    1
   119   109   106    1
   120    53    50    1
   121   108   107    2
   122   106   107    1
   123   106   105    1
