@<TRIPOS>MOLECULE
tmp/5fybA01.pdb
 171 163 0 0 0
SMALL
GASTEIGER

@<TRIPOS>ATOM
      1  N         82.8710   57.0450    5.2310 N.3    75  ARG75      -0.1231
      2  CA        82.4690   57.6250    6.5080 C.3    75  ARG75       0.1694
      3  C         82.2680   56.5200    7.5260 C.2    75  ARG75       0.2591
      4  O         81.7500   55.4500    7.2210 O.2    75  ARG75      -0.2718
      5  CB        81.1870   58.4510    6.3780 C.3    75  ARG75       0.0321
      6  CG        81.3920   59.8440    5.8070 C.3    75  ARG75       0.0489
      7  CD        80.1120   60.6540    5.9030 C.3    75  ARG75       0.2205
      8  NE        80.0410   61.4500    7.1280 N.pl3  75  ARG75      -0.0865
      9  CZ        78.9050   61.9250    7.6370 C.cat  75  ARG75       0.5346
     10  NH1       77.7490   61.6570    7.0340 N.pl3  75  ARG75       0.1354
     11  NH2       78.9210   62.6500    8.7550 N.pl3  75  ARG75       0.1354
     12  N         82.6870   56.8050    8.7420 N.am   76  VAL76      -0.1980
     13  CA        82.7830   55.7980    9.7720 C.3    76  VAL76       0.1595
     14  C         81.3980   55.3430   10.2620 C.2    76  VAL76       0.2287
     15  O         80.4260   56.1050   10.2260 O.2    76  VAL76      -0.2864
     16  CB        83.6420   56.3490   10.9420 C.3    76  VAL76       0.0276
     17  CG1       82.8100   57.1790   11.8910 C.3    76  VAL76       0.0022
     18  CG2       84.3070   55.2470   11.6580 C.3    76  VAL76       0.0022
     19  N         93.5010   55.2980   14.3830 N.3   129  TYR129     -0.1241
     20  CA        92.7810   56.2100   15.2660 C.3   129  TYR129      0.1605
     21  C         91.5900   55.5200   15.8950 C.2   129  TYR129      0.2264
     22  O         91.2130   54.4090   15.5060 O.2   129  TYR129     -0.2867
     23  CB        92.3260   57.4560   14.4980 C.3   129  TYR129      0.0534
     24  CG        91.3310   57.1400   13.4160 C.ar  129  TYR129     -0.0201
     25  CD1       91.7460   56.6590   12.1720 C.ar  129  TYR129     -0.0009
     26  CD2       89.9720   57.3030   13.6350 C.ar  129  TYR129     -0.0009
     27  CE1       90.8220   56.3560   11.1780 C.ar  129  TYR129      0.0417
     28  CE2       89.0440   56.9930   12.6570 C.ar  129  TYR129      0.0417
     29  CZ        89.4770   56.5240   11.4280 C.ar  129  TYR129      0.1957
     30  OH        88.5520   56.2240   10.4580 O.3   129  TYR129     -0.2866
     31  N         87.4760   55.9980   16.8740 N.3   131  ALA131     -0.1245
     32  CA        86.2520   56.7640   16.6470 C.3   131  ALA131      0.1562
     33  C         85.0530   55.9200   17.0200 C.2   131  ALA131      0.2260
     34  O         84.8280   54.8610   16.4320 O.2   131  ALA131     -0.2867
     35  CB        86.1470   57.2300   15.1880 C.3   131  ALA131      0.0290
     36  N         86.9550   60.6470   19.8530 N.3   190  TYR190     -0.1227
     37  CA        88.0060   60.4780   18.8540 C.3   190  TYR190      0.1736
     38  C         89.3770   60.4480   19.5080 C.2   190  TYR190      0.2595
     39  O         89.7430   61.3770   20.2300 O.2   190  TYR190     -0.2718
     40  CB        87.9580   61.6020   17.8330 C.3   190  TYR190      0.0548
     41  CG        86.6550   61.7010   17.0650 C.ar  190  TYR190     -0.0200
     42  CD1       86.2950   60.7250   16.1360 C.ar  190  TYR190     -0.0009
     43  CD2       85.8030   62.7810   17.2480 C.ar  190  TYR190     -0.0009
     44  CE1       85.1000   60.8190   15.4130 C.ar  190  TYR190      0.0417
     45  CE2       84.6110   62.8850   16.5290 C.ar  190  TYR190      0.0417
     46  CZ        84.2700   61.9040   15.6130 C.ar  190  TYR190      0.1957
     47  OH        83.0840   62.0160   14.9070 O.3   190  TYR190     -0.2866
     48  N         90.1220   59.3800   19.2560 N.am  191  VAL191     -0.1966
     49  CA        91.4960   59.2860   19.7180 C.3   191  VAL191      0.1727
     50  C         92.4260   59.4400   18.5170 C.2   191  VAL191      0.2616
     51  O         92.4530   58.5750   17.6330 O.2   191  VAL191     -0.2715
     52  CB        91.7660   57.9540   20.4300 C.3   191  VAL191      0.0290
     53  CG1       93.2080   57.8980   20.8990 C.3   191  VAL191      0.0023
     54  CG2       90.8240   57.7880   21.6120 C.3   191  VAL191      0.0023
     55  N         93.1720   60.5410   18.4760 N.am  192  GLY192     -0.1955
     56  CA        93.9820   60.8490   17.3010 C.3   192  GLY192      0.1869
     57  C         95.4720   60.5680   17.4620 C.2   192  GLY192      0.2309
     58  O         95.9630   60.3670   18.5770 O.2   192  GLY192     -0.2863
     59  N         96.5760   61.5140   11.6390 N.3   196  SER196     -0.1202
     60  CA        95.2600   60.8730   11.5050 C.3   196  SER196      0.2020
     61  C         94.2570   61.9790   11.1640 C.2   196  SER196      0.2619
     62  O         94.3570   63.1050   11.6410 O.2   196  SER196     -0.2717
     63  CB        94.8720   60.0700   12.7670 C.3   196  SER196      0.2103
     64  OG        94.4420   60.8980   13.8420 O.3   196  SER196     -0.2182
     65  N         93.3020   61.6780   10.2980 N.am  197  SER197     -0.1937
     66  CA        92.6620   62.7560    9.5810 C.3   197  SER197      0.2055
     67  C         91.1590   62.5370    9.3950 C.2   197  SER197      0.2643
     68  O         90.7040   61.4010    9.2590 O.2   197  SER197     -0.2714
     69  CB        93.3680   62.9110    8.2110 C.3   197  SER197      0.2130
     70  OG        92.9050   64.0670    7.5390 O.3   197  SER197     -0.2179
     71  N         90.3910   63.6180    9.3840 N.am  198  PHE198     -0.1959
     72  CA        88.9940   63.4940    8.9880 C.3   198  PHE198      0.1771
     73  C         88.7790   64.1950    7.6550 C.2   198  PHE198      0.2619
     74  O         89.1690   65.3390    7.4710 O.2   198  PHE198     -0.2715
     75  CB        88.0210   64.0100   10.0780 C.3   198  PHE198      0.0574
     76  CG        88.3270   65.3840   10.6390 C.ar  198  PHE198     -0.0200
     77  CD1       89.2970   65.5570   11.6170 C.ar  198  PHE198     -0.0042
     78  CD2       87.5600   66.4830   10.2640 C.ar  198  PHE198     -0.0042
     79  CE1       89.5460   66.8220   12.1700 C.ar  198  PHE198     -0.0003
     80  CE2       87.7980   67.7430   10.8010 C.ar  198  PHE198     -0.0003
     81  CZ        88.7960   67.9110   11.7670 C.ar  198  PHE198     -0.0000
     82  N         88.1710   63.4700    6.7180 N.am  199  CYS199     -0.1968
     83  CA        87.9620   63.9730    5.3690 C.3   199  CYS199      0.1712
     84  C         86.9150   65.0590    5.3170 C.2   199  CYS199      0.2296
     85  O         86.1120   65.2090    6.2410 O.2   199  CYS199     -0.2864
     86  CB        87.5600   62.8290    4.4310 C.3   199  CYS199      0.0983
     87  SG        88.7840   61.5170    4.3320 S.3   199  CYS199     -0.0798
     88  N         83.7070   66.9990    4.8630 N.3   201  HIS201     -0.1241
     89  CA        82.3020   66.6200    4.9830 C.3   201  HIS201      0.1621
     90  C         81.5110   67.7540    5.6140 C.2   201  HIS201      0.2264
     91  O         82.0890   68.6910    6.1900 O.2   201  HIS201     -0.2867
     92  CB        82.1640   65.3550    5.8290 C.3   201  HIS201      0.0745
     93  CG        82.4460   65.5890    7.2800 C.ar  201  HIS201      0.0817
     94  ND1       83.7290   65.6690    7.7770 N.ar  201  HIS201     -0.2268
     95  CD2       81.6180   65.7800    8.3380 C.ar  201  HIS201      0.1154
     96  CE1       83.6820   65.9010    9.0800 C.ar  201  HIS201      0.1986
     97  NE2       82.4130   65.9770    9.4450 N.ar  201  HIS201     -0.2212
     98  N         77.7640   68.0740    8.1910 N.3   203  GLU203     -0.1245
     99  CA        77.0550   67.2160    9.1320 C.3   203  GLU203      0.1567
    100  C         75.7400   66.7470    8.5300 C.2   203  GLU203      0.2260
    101  O         75.1570   67.4370    7.6900 O.2   203  GLU203     -0.2867
    102  CB        76.7680   67.9470   10.4400 C.3   203  GLU203      0.0388
    103  CG        78.0100   68.4080   11.1600 C.3   203  GLU203      0.1160
    104  CD        79.0440   67.3090   11.3050 C.2   203  GLU203      0.3649
    105  OE1       78.7540   66.2530   11.9040 O.co2 203  GLU203     -0.2457
    106  OE2       80.1670   67.5070   10.8060 O.co2 203  GLU203     -0.2457
    107  N         78.0290   71.2750   14.5060 N.3   209  SER209     -0.1217
    108  CA        78.7130   70.3790   15.4280 C.3   209  SER209      0.1889
    109  C         79.5360   71.2400   16.3940 C.2   209  SER209      0.2288
    110  O         79.9710   72.3450   16.0620 O.2   209  SER209     -0.2866
    111  CB        79.5980   69.3440   14.7130 C.3   209  SER209      0.2089
    112  OG        80.7170   69.9490   14.0880 O.3   209  SER209     -0.2183
    113  N         82.7780   70.7580   19.1080 N.3   211  ASN211     -0.1240
    114  CA        83.9020   69.8520   19.1870 C.3   211  ASN211      0.1653
    115  C         84.8660   70.3130   20.2700 C.2   211  ASN211      0.2266
    116  O         85.3080   71.4470   20.2600 O.2   211  ASN211     -0.2867
    117  CB        84.6040   69.7900   17.8200 C.3   211  ASN211      0.1155
    118  CG        83.6160   69.5350   16.6670 C.2   211  ASN211      0.2627
    119  OD1       83.4190   68.3900   16.2490 O.2   211  ASN211     -0.2716
    120  ND2       82.9890   70.6070   16.1580 N.am  211  ASN211     -0.0877
    121  N         94.6330   69.8310   17.2870 N.3   219  LYS219     -0.1245
    122  CA        93.9000   69.3460   16.1220 C.3   219  LYS219      0.1561
    123  C         93.8460   70.4870   15.1300 C.2   219  LYS219      0.2260
    124  O         93.3960   71.5880   15.4600 O.2   219  LYS219     -0.2867
    125  CB        92.4820   68.8700   16.5170 C.3   219  LYS219      0.0271
    126  CG        91.6810   68.2190   15.3920 C.3   219  LYS219      0.0035
    127  CD        90.2340   67.8940   15.8520 C.3   219  LYS219      0.0206
    128  CE        90.1890   66.9230   17.0320 C.3   219  LYS219      0.1093
    129  NZ        90.7360   65.5650   16.7240 N.3   219  LYS219     -0.1314
    130  N         92.3810   72.2680   11.8420 N.3   221  TRP221     -0.1241
    131  CA        91.1020   72.3140   11.1180 C.3   221  TRP221      0.1605
    132  C         91.1480   73.1580    9.8690 C.2   221  TRP221      0.2264
    133  O         91.8390   74.1860    9.8400 O.2   221  TRP221     -0.2867
    134  CB        90.0030   72.9140   11.9960 C.3   221  TRP221      0.0550
    135  CG        89.5670   72.1180   13.1730 C.ar  221  TRP221      0.0003
    136  CD1       90.2530   71.9150   14.3400 C.ar  221  TRP221      0.0946
    137  CD2       88.2970   71.4720   13.3330 C.ar  221  TRP221      0.0152
    138  NE1       89.4890   71.1630   15.2120 N.ar  221  TRP221     -0.2442
    139  CE2       88.2820   70.8890   14.6210 C.ar  221  TRP221      0.0810
    140  CE3       87.1710   71.3310   12.5100 C.ar  221  TRP221      0.0012
    141  CZ2       87.1900   70.1400   15.0990 C.ar  221  TRP221      0.0191
    142  CZ3       86.0740   70.6030   12.9950 C.ar  221  TRP221      0.0001
    143  CH2       86.0940   70.0260   14.2780 C.ar  221  TRP221      0.0015
    144  N         84.1330   70.9010    6.5010 N.3   289  HIS289     -0.1241
    145  CA        85.3360   70.9390    7.3280 C.3   289  HIS289      0.1621
    146  C         86.1350   69.6640    7.1480 C.2   289  HIS289      0.2264
    147  O         85.5960   68.6260    6.7640 O.2   289  HIS289     -0.2867
    148  CB        84.9970   71.1620    8.8200 C.3   289  HIS289      0.0745
    149  CG        83.9250   70.2550    9.3510 C.ar  289  HIS289      0.0817
    150  ND1       82.5890   70.4550    9.0780 N.ar  289  HIS289     -0.2268
    151  CD2       83.9860   69.1650   10.1570 C.ar  289  HIS289      0.1154
    152  CE1       81.8740   69.5220    9.6810 C.ar  289  HIS289      0.1986
    153  NE2       82.6950   68.7280   10.3440 N.ar  289  HIS289     -0.2212
    154  N         95.2960   65.5190   13.0600 N.3   293  ASN293     -0.1240
    155  CA        95.8580   65.7020   14.3780 C.3   293  ASN293      0.1653
    156  C         97.3640   65.8940   14.3290 C.2   293  ASN293      0.2266
    157  O         98.0460   65.2770   13.5140 O.2   293  ASN293     -0.2867
    158  CB        95.4860   64.5060   15.2350 C.3   293  ASN293      0.1155
    159  CG        93.9930   64.4300   15.4420 C.2   293  ASN293      0.2627
    160  OD1       93.4130   65.3450   16.0280 O.2   293  ASN293     -0.2716
    161  ND2       93.3570   63.3830   14.9210 N.am  293  ASN293     -0.0877
    162  N         89.4410   63.7900   21.6640 N.3   299  ALA299     -0.1245
    163  CA        88.4440   64.7990   21.3830 C.3   299  ALA299      0.1562
    164  C         87.0480   64.2090   21.5370 C.2   299  ALA299      0.2260
    165  O         86.8700   63.0000   21.5230 O.2   299  ALA299     -0.2867
    166  CB        88.6220   65.3670   19.9710 C.3   299  ALA299      0.0290
    167  N         82.9000   65.1790   20.3050 N.3   301  ALA301     -0.1245
    168  CA        82.1140   66.0110   19.4140 C.3   301  ALA301      0.1562
    169  C         80.6490   65.5780   19.3860 C.2   301  ALA301      0.2260
    170  O         80.3510   64.3970   19.5280 O.2   301  ALA301     -0.2867
    171  CB        82.6890   65.9560   18.0090 C.3   301  ALA301      0.0290
@<TRIPOS>BOND
     1    87    86    1
     2    86    83    1
     3    88    89    1
     4    89    90    1
     5    89    92    1
     6     1     2    1
     7    84    83    1
     8    84    85    2
     9    83    82    1
    10    90    91    2
    11     6     7    1
    12     6     5    1
    13    92    93    1
    14     7     8    1
    15     5     2    1
    16   144   145    1
    17     2     3    1
    18    82    73   am
    19   147   146    2
    20    10     9    1
    21     8     9    2
    22   146   145    1
    23     4     3    2
    24    93    94   ar
    25    93    95   ar
    26   145   148    1
    27    74    73    2
    28     3    12   am
    29    70    69    1
    30     9    11    1
    31    73    72    1
    32   101   100    2
    33    94    96   ar
    34    98    99    1
    35    69    66    1
    36    95    97   ar
    37   100    99    1
    38    12    13    1
    39   148   149    1
    40    72    71    1
    41    72    75    1
    42   150   149   ar
    43   150   152   ar
    44    96    97   ar
    45    99   102    1
    46    68    67    2
    47   149   151   ar
    48    71    67   am
    49    67    66    1
    50    66    65    1
    51   152   153   ar
    52    13    14    1
    53    13    16    1
    54   133   132    2
    55   132   131    1
    56    75    76    1
    57   151   153   ar
    58    15    14    2
    59    78    76   ar
    60    78    80   ar
    61    65    61   am
    62   102   103    1
    63    30    29    1
    64    76    77   ar
    65    80    81   ar
    66   106   104   ar
    67    16    18    1
    68    16    17    1
    69   131   130    1
    70   131   134    1
    71   103   104    1
    72    61    60    1
    73    61    62    2
    74    27    29   ar
    75    27    25   ar
    76   104   105   ar
    77    29    28   ar
    78    60    59    1
    79    60    63    1
    80    77    79   ar
    81    81    79   ar
    82   134   135    1
    83    25    24   ar
    84   140   142   ar
    85   140   137   ar
    86    28    26   ar
    87    63    64    1
    88   142   143   ar
    89   154   155    1
    90   135   137   ar
    91   135   136   ar
    92   137   139   ar
    93    24    26   ar
    94    24    23    1
    95   157   156    2
    96   112   111    1
    97   143   141   ar
    98   156   155    1
    99   136   138   ar
   100   155   158    1
   101    19    20    1
   102    23    20    1
   103   107   108    1
   104   139   141   ar
   105   139   138   ar
   106   111   108    1
   107    47    46    1
   108   161   159   am
   109   123   124    2
   110   123   122    1
   111    35    32    1
   112   158   159    1
   113    20    21    1
   114   126   127    1
   115   126   125    1
   116    44    46   ar
   117    44    42   ar
   118   108   109    1
   119   159   160    2
   120    22    21    2
   121    46    45   ar
   122   127   128    1
   123   110   109    2
   124   122   125    1
   125   122   121    1
   126    42    41   ar
   127   120   118   am
   128   119   118    2
   129    34    33    2
   130    45    43   ar
   131    32    31    1
   132    32    33    1
   133   118   117    1
   134   129   128    1
   135    41    43   ar
   136    41    40    1
   137    56    57    1
   138    56    55    1
   139    57    58    2
   140    51    50    2
   141   117   114    1
   142    40    37    1
   143   171   168    1
   144    55    50   am
   145    50    49    1
   146    37    38    1
   147    37    36    1
   148   113   114    1
   149   114   115    1
   150    48    38   am
   151    48    49    1
   152   169   168    1
   153   169   170    2
   154   168   167    1
   155    38    39    2
   156    49    52    1
   157   166   163    1
   158   116   115    2
   159    52    53    1
   160    52    54    1
   161   163   164    1
   162   163   162    1
   163   165   164    2
