@<TRIPOS>MOLECULE
tmp/5fycA00.pdb
 112 107 0 0 0
SMALL
GASTEIGER

@<TRIPOS>ATOM
      1  N        -14.1390  -20.2450  -24.4230 N.3   125  TYR125     -0.1241
      2  CA       -15.4990  -20.1040  -24.9330 C.3   125  TYR125      0.1605
      3  C        -15.7360  -18.6410  -25.2510 C.2   125  TYR125      0.2264
      4  O        -15.4820  -17.7660  -24.4100 O.2   125  TYR125     -0.2867
      5  CB       -16.5100  -20.6280  -23.8970 C.3   125  TYR125      0.0534
      6  CG       -17.9060  -20.9820  -24.3880 C.ar  125  TYR125     -0.0201
      7  CD1      -18.1600  -21.2040  -25.7290 C.ar  125  TYR125     -0.0009
      8  CD2      -18.9260  -21.2820  -23.4800 C.ar  125  TYR125     -0.0009
      9  CE1      -19.4110  -21.5920  -26.1780 C.ar  125  TYR125      0.0417
     10  CE2      -20.1930  -21.6870  -23.9280 C.ar  125  TYR125      0.0417
     11  CZ       -20.4230  -21.8380  -25.2820 C.ar  125  TYR125      0.1957
     12  OH       -21.6370  -22.2510  -25.8090 O.3   125  TYR125     -0.2866
     13  N        -22.5130  -16.9970  -29.1890 N.3   170  TYR170     -0.1241
     14  CA       -21.6470  -17.9280  -28.4790 C.3   170  TYR170      0.1605
     15  C        -20.7400  -18.6570  -29.4670 C.2   170  TYR170      0.2264
     16  O        -21.2100  -19.4940  -30.2450 O.2   170  TYR170     -0.2867
     17  CB       -22.4730  -18.9630  -27.7000 C.3   170  TYR170      0.0534
     18  CG       -23.4480  -18.3970  -26.6930 C.ar  170  TYR170     -0.0201
     19  CD1      -24.6680  -17.8660  -27.1090 C.ar  170  TYR170     -0.0009
     20  CD2      -23.1910  -18.4600  -25.3320 C.ar  170  TYR170     -0.0009
     21  CE1      -25.5650  -17.3650  -26.2110 C.ar  170  TYR170      0.0417
     22  CE2      -24.0960  -17.9680  -24.4180 C.ar  170  TYR170      0.0417
     23  CZ       -25.2820  -17.4250  -24.8660 C.ar  170  TYR170      0.1957
     24  OH       -26.1830  -16.9220  -23.9830 O.3   170  TYR170     -0.2866
     25  N        -21.8990  -25.5410  -21.0120 N.3   178  PHE178     -0.1241
     26  CA       -22.7940  -24.6780  -20.2360 C.3   178  PHE178      0.1605
     27  C        -23.3910  -25.4920  -19.0850 C.2   178  PHE178      0.2264
     28  O        -23.9250  -26.5850  -19.2830 O.2   178  PHE178     -0.2867
     29  CB       -23.8690  -23.9860  -21.1060 C.3   178  PHE178      0.0534
     30  CG       -24.6480  -24.8990  -22.0470 C.ar  178  PHE178     -0.0203
     31  CD1      -24.1010  -25.3090  -23.2480 C.ar  178  PHE178     -0.0042
     32  CD2      -25.9660  -25.2620  -21.7650 C.ar  178  PHE178     -0.0042
     33  CE1      -24.8280  -26.1240  -24.1470 C.ar  178  PHE178     -0.0003
     34  CE2      -26.6990  -26.0750  -22.6510 C.ar  178  PHE178     -0.0003
     35  CZ       -26.1180  -26.5060  -23.8560 C.ar  178  PHE178     -0.0000
     36  N        -28.7260  -25.0050  -15.3250 N.3   181  HIS181     -0.1241
     37  CA       -29.4170  -23.7870  -14.9410 C.3   181  HIS181      0.1621
     38  C        -30.8010  -23.7200  -15.5690 C.2   181  HIS181      0.2264
     39  O        -31.0830  -24.3830  -16.5850 O.2   181  HIS181     -0.2867
     40  CB       -28.6060  -22.5540  -15.3640 C.3   181  HIS181      0.0745
     41  CG       -28.5770  -22.3390  -16.8430 C.ar  181  HIS181      0.0817
     42  ND1      -27.8740  -23.1600  -17.7040 N.ar  181  HIS181     -0.2268
     43  CD2      -29.1520  -21.3840  -17.6160 C.ar  181  HIS181      0.1154
     44  CE1      -28.0380  -22.7310  -18.9440 C.ar  181  HIS181      0.1986
     45  NE2      -28.8020  -21.6520  -18.9180 N.ar  181  HIS181     -0.2212
     46  N        -33.4470  -20.3420  -16.8240 N.3   183  GLU183     -0.1245
     47  CA       -33.2290  -18.9710  -17.2650 C.3   183  GLU183      0.1567
     48  C        -33.4760  -17.9760  -16.1300 C.2   183  GLU183      0.2260
     49  O        -34.1360  -18.3160  -15.1370 O.2   183  GLU183     -0.2867
     50  CB       -34.1280  -18.6580  -18.4650 C.3   183  GLU183      0.0388
     51  CG       -33.8780  -19.5930  -19.6490 C.3   183  GLU183      0.1160
     52  CD       -32.4280  -19.5580  -20.1130 C.2   183  GLU183      0.3649
     53  OE1      -31.9110  -18.4610  -20.4550 O.co2 183  GLU183     -0.2457
     54  OE2      -31.8030  -20.6320  -20.1300 O.co2 183  GLU183     -0.2457
     55  N        -36.2230  -19.6410  -23.2420 N.3   189  SER189     -0.1217
     56  CA       -35.1670  -19.1890  -24.1220 C.3   189  SER189      0.1889
     57  C        -35.2840  -19.8450  -25.4910 C.2   189  SER189      0.2288
     58  O        -35.9820  -20.8400  -25.6700 O.2   189  SER189     -0.2866
     59  CB       -33.7970  -19.4550  -23.5010 C.3   189  SER189      0.2089
     60  OG       -33.5800  -20.8430  -23.3040 O.3   189  SER189     -0.2183
     61  N        -32.5330  -20.8820  -28.7550 N.3   191  ASN191     -0.1240
     62  CA       -31.1230  -20.9780  -29.1150 C.3   191  ASN191      0.1653
     63  C        -30.9830  -21.4450  -30.5680 C.2   191  ASN191      0.2266
     64  O        -31.4530  -22.5180  -30.9270 O.2   191  ASN191     -0.2867
     65  CB       -30.3810  -21.9240  -28.1400 C.3   191  ASN191      0.1155
     66  CG       -28.8860  -22.0660  -28.4620 C.2   191  ASN191      0.2627
     67  OD1      -28.5110  -22.4810  -29.5650 O.2   191  ASN191     -0.2716
     68  ND2      -28.0300  -21.6940  -27.5030 N.am  191  ASN191     -0.0877
     69  N        -24.1130  -29.0810  -30.8990 N.3   199  LYS199     -0.1245
     70  CA       -24.1570  -28.7050  -29.4940 C.3   199  LYS199      0.1561
     71  C        -25.0850  -29.7160  -28.8420 C.2   199  LYS199      0.2260
     72  O        -26.2220  -29.8590  -29.2690 O.2   199  LYS199     -0.2867
     73  CB       -24.6720  -27.2710  -29.3150 C.3   199  LYS199      0.0271
     74  CG       -24.7140  -26.7710  -27.8800 C.3   199  LYS199      0.0035
     75  CD       -25.5780  -25.5100  -27.7430 C.3   199  LYS199      0.0206
     76  CE       -25.0850  -24.3270  -28.5850 C.3   199  LYS199      0.1093
     77  NZ       -23.8160  -23.7350  -28.1080 N.3   199  LYS199     -0.1314
     78  N        -27.2340  -31.3410  -25.5640 N.3   201  TRP201     -0.1241
     79  CA       -28.0140  -30.8140  -24.4570 C.3   201  TRP201      0.1605
     80  C        -28.4590  -31.9150  -23.5250 C.2   201  TRP201      0.2264
     81  O        -28.7440  -33.0250  -23.9730 O.2   201  TRP201     -0.2867
     82  CB       -29.2680  -30.0740  -24.9680 C.3   201  TRP201      0.0550
     83  CG       -29.0160  -28.8580  -25.7920 C.ar  201  TRP201      0.0003
     84  CD1      -28.4510  -28.8040  -27.0370 C.ar  201  TRP201      0.0946
     85  CD2      -29.3790  -27.5130  -25.4600 C.ar  201  TRP201      0.0152
     86  NE1      -28.4160  -27.5000  -27.4890 N.ar  201  TRP201     -0.2442
     87  CE2      -28.9820  -26.6920  -26.5360 C.ar  201  TRP201      0.0810
     88  CE3      -29.9930  -26.9200  -24.3480 C.ar  201  TRP201      0.0012
     89  CZ2      -29.1680  -25.3030  -26.5260 C.ar  201  TRP201      0.0191
     90  CZ3      -30.1830  -25.5550  -24.3390 C.ar  201  TRP201      0.0001
     91  CH2      -29.7780  -24.7550  -25.4280 C.ar  201  TRP201      0.0015
     92  N        -31.3000  -27.1040  -17.8490 N.3   269  HIS269     -0.1241
     93  CA       -30.5570  -27.6210  -18.9730 C.3   269  HIS269      0.1621
     94  C        -29.0850  -27.3410  -18.7970 C.2   269  HIS269      0.2264
     95  O        -28.6870  -26.4560  -18.0110 O.2   269  HIS269     -0.2867
     96  CB       -31.0580  -27.0320  -20.3030 C.3   269  HIS269      0.0745
     97  CG       -31.1820  -25.5420  -20.3030 C.ar  269  HIS269      0.0817
     98  ND1      -32.1870  -24.8840  -19.6260 N.ar  269  HIS269     -0.2268
     99  CD2      -30.4440  -24.5810  -20.9080 C.ar  269  HIS269      0.1154
    100  CE1      -32.0580  -23.5800  -19.8110 C.ar  269  HIS269      0.1986
    101  NE2      -31.0060  -23.3700  -20.5790 N.ar  269  HIS269     -0.2212
    102  N        -23.4770  -19.9310  -31.9660 N.3   279  ALA279     -0.1245
    103  CA       -24.8760  -19.9750  -31.5550 C.3   279  ALA279      0.1562
    104  C        -25.3660  -18.6100  -31.1290 C.2   279  ALA279      0.2260
    105  O        -24.5850  -17.7690  -30.6600 O.2   279  ALA279     -0.2867
    106  CB       -25.0770  -20.9940  -30.4150 C.3   279  ALA279      0.0290
    107  N        -28.6330  -16.6130  -28.9440 N.3   281  SER281     -0.1217
    108  CA       -29.7790  -16.8310  -28.0610 C.3   281  SER281      0.1889
    109  C        -30.2880  -15.5690  -27.3630 C.2   281  SER281      0.2288
    110  O        -29.5880  -14.5510  -27.2710 O.2   281  SER281     -0.2866
    111  CB       -29.4360  -17.8610  -26.9850 C.3   281  SER281      0.2089
    112  OG       -28.6760  -17.2570  -25.9590 O.3   281  SER281     -0.2183
@<TRIPOS>BOND
     1   102   103    1
     2   103   104    1
     3   103   106    1
     4   104   105    2
     5    64    63    2
     6    69    70    1
     7    63    62    1
     8    16    15    2
     9    67    66    2
    10    70    73    1
    11    70    71    1
    12    15    14    1
    13    73    74    1
    14    72    71    2
    15    13    14    1
    16    62    61    1
    17    62    65    1
    18   107   108    1
    19    76    77    1
    20    76    75    1
    21    14    17    1
    22    66    65    1
    23    66    68   am
    24   108   109    1
    25   108   111    1
    26    74    75    1
    27    17    18    1
    28    86    84   ar
    29    86    87   ar
    30   109   110    2
    31    19    18   ar
    32    19    21   ar
    33    84    83   ar
    34   111   112    1
    35    18    20   ar
    36    87    89   ar
    37    87    85   ar
    38    89    91   ar
    39    21    23   ar
    40     9     7   ar
    41     9    11   ar
    42    12    11    1
    43    83    85   ar
    44    83    82    1
    45     7     6   ar
    46    58    57    2
    47    78    79    1
    48    57    56    1
    49    85    88   ar
    50    91    90   ar
    51    20    22   ar
    52    11    10   ar
    53     3     2    1
    54     3     4    2
    55    82    79    1
    56     2     1    1
    57     2     5    1
    58    23    22   ar
    59    23    24    1
    60    79    80    1
    61     6     5    1
    62     6     8   ar
    63    88    90   ar
    64    33    35   ar
    65    33    31   ar
    66    56    59    1
    67    56    55    1
    68    81    80    2
    69    10     8   ar
    70    35    34   ar
    71    59    60    1
    72    31    30   ar
    73    34    32   ar
    74    30    32   ar
    75    30    29    1
    76    29    26    1
    77    25    26    1
    78    99   101   ar
    79    99    97   ar
    80   101   100   ar
    81    53    52   ar
    82    96    97    1
    83    96    93    1
    84    97    98   ar
    85    26    27    1
    86    54    52   ar
    87    52    51    1
    88   100    98   ar
    89    51    50    1
    90    28    27    2
    91    93    94    1
    92    93    92    1
    93    44    45   ar
    94    44    42   ar
    95    45    43   ar
    96    94    95    2
    97    50    47    1
    98    42    41   ar
    99    43    41   ar
   100    47    46    1
   101    47    48    1
   102    41    40    1
   103    39    38    2
   104    48    49    2
   105    38    37    1
   106    40    37    1
   107    36    37    1
