@<TRIPOS>MOLECULE
tmp/5fygA01.pdb
 158 146 0 0 0
SMALL
GASTEIGER

@<TRIPOS>ATOM
      1  N         14.6540   18.9340   51.1970 N.3    81  GLN81      -0.1231
      2  CA        14.0960   19.2070   52.5250 C.3    81  GLN81       0.1698
      3  C         12.7140   18.6360   52.5820 C.2    81  GLN81       0.2592
      4  O         12.0570   18.5210   51.5580 O.2    81  GLN81      -0.2718
      5  CB        13.9790   20.7320   52.7900 C.3    81  GLN81       0.0381
      6  CG        15.2760   21.5230   52.7890 C.3    81  GLN81       0.0905
      7  CD        16.2130   21.2250   53.9420 C.2    81  GLN81       0.2608
      8  OE1       17.4310   21.4030   53.8300 O.2    81  GLN81      -0.2717
      9  NE2       15.6740   20.8220   55.0510 N.am   81  GLN81      -0.0878
     10  N         12.2330   18.3700   53.7940 N.am   82  ILE82      -0.1966
     11  CA        10.8670   17.8310   53.9840 C.3    82  ILE82       0.1727
     12  C          9.9240   18.7150   54.7660 C.2    82  ILE82       0.2616
     13  O          8.7400   18.3880   54.8910 O.2    82  ILE82      -0.2715
     14  CB        10.8810   16.3910   54.5280 C.3    82  ILE82       0.0290
     15  CG1       11.7480   16.2550   55.7670 C.3    82  ILE82       0.0022
     16  CG2       11.4800   15.4760   53.4570 C.3    82  ILE82       0.0023
     17  CD1       11.3090   17.0640   56.9490 C.3    82  ILE82       0.0001
     18  N         10.4370   19.8340   55.2740 N.am   83  ILE83      -0.1977
     19  CA         9.5630   20.9130   55.7090 C.3    83  ILE83       0.1596
     20  C          9.0880   21.7460   54.4970 C.2    83  ILE83       0.2287
     21  O          9.6840   21.6940   53.4070 O.2    83  ILE83      -0.2864
     22  CB        10.2070   21.7770   56.8310 C.3    83  ILE83       0.0276
     23  CG1       11.6900   22.1390   56.5440 C.3    83  ILE83       0.0022
     24  CG2       10.1470   20.9960   58.1390 C.3    83  ILE83       0.0022
     25  CD1       11.8770   23.1160   55.4090 C.3    83  ILE83       0.0001
     26  N         15.3750   25.9390   55.0810 N.3    87  PRO87      -0.2103
     27  CA        16.1800   26.3080   56.2240 C.3    87  PRO87       0.1489
     28  C         16.9660   27.5380   55.8170 C.2    87  PRO87       0.2417
     29  O         17.0490   27.8450   54.6360 O.2    87  PRO87      -0.2734
     30  CB        17.1010   25.1050   56.4240 C.3    87  PRO87       0.0282
     31  CG        17.2490   24.5190   55.0740 C.3    87  PRO87       0.0208
     32  CD        15.9980   24.8570   54.2950 C.3    87  PRO87       0.0893
     33  N         17.5100   28.2550   56.7810 N.am   88  PRO88      -0.2729
     34  CA        18.2410   29.4840   56.4440 C.3    88  PRO88       0.1401
     35  C         19.5310   29.1740   55.6910 C.2    88  PRO88       0.2269
     36  O         20.1290   28.0990   55.9430 O.2    88  PRO88      -0.2865
     37  CB        18.5290   30.1040   57.7890 C.3    88  PRO88       0.0296
     38  CG        18.0210   29.1640   58.8450 C.3    88  PRO88       0.0237
     39  CD        17.5570   27.9060   58.2130 C.3    88  PRO88       0.0939
     40  N         22.9870   26.6640   56.6670 N.3    91  LEU91      -0.1231
     41  CA        22.9350   25.6660   57.7280 C.3    91  LEU91       0.1693
     42  C         21.9300   24.5460   57.4740 C.2    91  LEU91       0.2593
     43  O         21.3720   23.9440   58.3980 O.2    91  LEU91      -0.2718
     44  CB        22.8200   26.3290   59.1050 C.3    91  LEU91       0.0284
     45  CG        22.8470   25.4330   60.3340 C.3    91  LEU91       0.0019
     46  CD1       24.2420   24.8650   60.5660 C.3    91  LEU91       0.0001
     47  CD2       22.3800   26.2010   61.5680 C.3    91  LEU91       0.0001
     48  N         21.7250   24.2700   56.1900 N.am   92  SER92      -0.1938
     49  CA        21.2130   22.9810   55.7430 C.3    92  SER92       0.2055
     50  C         22.1230   21.8480   56.2930 C.2    92  SER92       0.2642
     51  O         23.3200   21.8410   56.0280 O.2    92  SER92      -0.2714
     52  CB        21.1880   22.9320   54.2160 C.3    92  SER92       0.2130
     53  OG        20.3850   21.8420   53.8080 O.3    92  SER92      -0.2179
     54  N         21.5280   20.9190   57.0560 N.am   93  VAL93      -0.1977
     55  CA        22.1670   19.6580   57.4910 C.3    93  VAL93       0.1596
     56  C         21.4830   18.5650   56.6680 C.2    93  VAL93       0.2287
     57  O         20.2620   18.5720   56.5230 O.2    93  VAL93      -0.2864
     58  CB        22.0030   19.4120   59.0220 C.3    93  VAL93       0.0276
     59  CG1       20.6090   19.7570   59.5100 C.3    93  VAL93       0.0022
     60  CG2       22.3170   17.9880   59.4590 C.3    93  VAL93       0.0022
     61  N         19.9540   15.0870   56.1230 N.3    95  MET95      -0.1245
     62  CA        19.3860   14.0240   56.9580 C.3    95  MET95       0.1570
     63  C         18.7250   13.0390   56.0520 C.2    95  MET95       0.2261
     64  O         18.1040   13.4460   55.0560 O.2    95  MET95      -0.2867
     65  CB        18.3050   14.5970   57.8530 C.3    95  MET95       0.0387
     66  CG        18.8290   15.5520   58.8920 C.3    95  MET95       0.0595
     67  SD        17.4470   16.1300   59.9310 S.3    95  MET95      -0.1393
     68  CE        18.3410   17.3840   60.8120 C.3    95  MET95       0.0692
     69  N         15.9350   11.5280   56.2640 N.3    97  ILE97      -0.1245
     70  CA        14.5240   11.8130   56.1060 C.3    97  ILE97       0.1561
     71  C         14.2920   12.6240   54.8300 C.2    97  ILE97       0.2260
     72  O         13.2560   12.4910   54.2190 O.2    97  ILE97      -0.2867
     73  CB        13.9060   12.4920   57.3410 C.3    97  ILE97       0.0252
     74  CG1       12.3630   12.4770   57.2540 C.3    97  ILE97       0.0019
     75  CG2       14.3720   13.9410   57.5240 C.3    97  ILE97       0.0019
     76  CD1       11.6500   12.7440   58.5750 C.3    97  ILE97       0.0001
     77  N         16.1210   23.8200   65.5240 N.3   180  MET180     -0.1230
     78  CA        16.1990   23.2930   64.1380 C.3   180  MET180      0.1702
     79  C         14.8630   23.0590   63.4370 C.2   180  MET180      0.2592
     80  O         14.7230   23.3840   62.2660 O.2   180  MET180     -0.2718
     81  CB        16.9400   21.9710   64.1140 C.3   180  MET180      0.0401
     82  CG        18.4060   22.0710   64.3930 C.3   180  MET180      0.0596
     83  SD        19.1000   20.4180   64.2320 S.3   180  MET180     -0.1393
     84  CE        19.1500   20.4300   62.4450 C.3   180  MET180      0.0692
     85  N         13.9070   22.4650   64.1510 N.am  181  ALA181     -0.1980
     86  CA        12.5850   22.0830   63.6020 C.3   181  ALA181      0.1597
     87  C         11.5580   23.2130   63.5770 C.2   181  ALA181      0.2287
     88  O         10.4230   23.0030   63.0810 O.2   181  ALA181     -0.2864
     89  CB        11.9940   20.9450   64.4130 C.3   181  ALA181      0.0319
     90  N         12.2760   26.7160   62.6840 N.3   183  ALA183     -0.1245
     91  CA        12.7480   27.8910   62.0050 C.3   183  ALA183      0.1562
     92  C         11.5830   28.5570   61.2820 C.2   183  ALA183      0.2260
     93  O         10.9190   27.9030   60.5030 O.2   183  ALA183     -0.2867
     94  CB        13.8490   27.5300   61.0070 C.3   183  ALA183      0.0290
     95  N         11.3460   27.7950   57.6400 N.3   186  ALA186     -0.1245
     96  CA        10.9710   26.3920   57.3530 C.3   186  ALA186      0.1562
     97  C          9.4960   26.0300   57.5970 C.2   186  ALA186      0.2260
     98  O          8.8580   25.3870   56.7650 O.2   186  ALA186     -0.2867
     99  CB        11.8810   25.4480   58.1370 C.3   186  ALA186      0.0290
    100  N         19.3060   13.8450   63.2990 N.3   255  LEU255     -0.1245
    101  CA        18.0140   13.3060   62.9100 C.3   255  LEU255      0.1561
    102  C         17.4110   12.4340   64.0010 C.2   255  LEU255      0.2260
    103  O         16.2250   12.4800   64.2420 O.2   255  LEU255     -0.2867
    104  CB        18.1370   12.4970   61.6300 C.3   255  LEU255      0.0270
    105  CG        16.8820   11.7960   61.1930 C.3   255  LEU255      0.0019
    106  CD1       15.7330   12.7850   61.1140 C.3   255  LEU255      0.0001
    107  CD2       17.1540   11.1590   59.8460 C.3   255  LEU255      0.0001
    108  N         16.1660   14.8170   66.8330 N.3   258  VAL258     -0.1231
    109  CA        15.0050   15.5970   66.4000 C.3   258  VAL258      0.1692
    110  C         13.7890   14.6860   66.2080 C.2   258  VAL258      0.2592
    111  O         12.6590   15.0770   66.4830 O.2   258  VAL258     -0.2718
    112  CB        15.2990   16.3840   65.0990 C.3   258  VAL258      0.0266
    113  CG1       14.0250   17.0640   64.5630 C.3   258  VAL258      0.0020
    114  CG2       16.3570   17.4320   65.3430 C.3   258  VAL258      0.0020
    115  N         14.0420   13.4620   65.7770 N.am  259  GLY259     -0.1957
    116  CA        12.9990   12.5580   65.4220 C.3   259  GLY259      0.1869
    117  C         11.9770   12.2950   66.5090 C.2   259  GLY259      0.2309
    118  O         10.7600   12.3540   66.2490 O.2   259  GLY259     -0.2863
    119  N          7.5800   15.0860   68.6560 N.3   263  THR263     -0.1218
    120  CA         6.5920   14.0890   68.2990 C.3   263  THR263      0.1862
    121  C          6.0980   13.2970   69.4980 C.2   263  THR263      0.2287
    122  O          4.8990   13.1660   69.7470 O.2   263  THR263     -0.2866
    123  CB         7.1480   13.0660   67.3020 C.3   263  THR263      0.1770
    124  OG1        8.4110   12.5610   67.7740 O.3   263  THR263     -0.2211
    125  CG2        7.3330   13.6960   65.9520 C.3   263  THR263      0.0375
    126  N          3.0500   15.4010   63.6380 N.3   306  LEU306     -0.1245
    127  CA         3.5740   16.1550   62.5160 C.3   306  LEU306      0.1561
    128  C          2.4540   16.2550   61.4820 C.2   306  LEU306      0.2260
    129  O          1.8920   15.2490   61.0470 O.2   306  LEU306     -0.2867
    130  CB         4.8400   15.5190   61.9090 C.3   306  LEU306      0.0270
    131  CG         6.0130   15.4170   62.8750 C.3   306  LEU306      0.0019
    132  CD1        7.1950   14.7200   62.2510 C.3   306  LEU306      0.0001
    133  CD2        6.4590   16.7840   63.4240 C.3   306  LEU306      0.0001
    134  N          4.5830   15.9080   55.6060 N.3   309  MET309     -0.1245
    135  CA         5.9170   15.8640   55.0360 C.3   309  MET309      0.1570
    136  C          5.8610   16.3900   53.6040 C.2   309  MET309      0.2261
    137  O          4.8630   16.2190   52.8930 O.2   309  MET309     -0.2867
    138  CB         6.4570   14.4360   55.0650 C.3   309  MET309      0.0387
    139  CG         6.9150   13.9760   56.4300 C.3   309  MET309      0.0595
    140  SD         8.5310   14.6210   56.9130 S.3   309  MET309     -0.1393
    141  CE         8.2600   14.7020   58.6810 C.3   309  MET309      0.0692
    142  N          8.1500    6.2550   59.6490 N.3   370  CYS370     -0.1235
    143  CA         8.9520    6.6220   60.8630 C.3   370  CYS370      0.1677
    144  C          9.7600    5.4130   61.4150 C.2   370  CYS370      0.2270
    145  O          9.1930    4.4000   61.8470 O.2   370  CYS370     -0.2867
    146  CB         8.0620    7.1480   61.9830 C.3   370  CYS370      0.0956
    147  SG         8.9490    7.5520   63.5030 S.3   370  CYS370     -0.0801
    148  N          3.8840   22.6570   60.9130 N.3   407  PHE407     -0.1241
    149  CA         4.5070   21.3200   60.8660 C.3   407  PHE407      0.1605
    150  C          4.2680   20.5830   62.2040 C.2   407  PHE407      0.2264
    151  O          3.6960   19.5080   62.2350 O.2   407  PHE407     -0.2867
    152  CB         6.0100   21.5310   60.6170 C.3   407  PHE407      0.0534
    153  CG         6.8470   20.2690   60.4830 C.ar  407  PHE407     -0.0203
    154  CD1        6.5150   19.2830   59.5780 C.ar  407  PHE407     -0.0042
    155  CD2        7.9940   20.1140   61.2420 C.ar  407  PHE407     -0.0042
    156  CE1        7.3120   18.1550   59.4350 C.ar  407  PHE407     -0.0003
    157  CE2        8.7980   18.9770   61.1210 C.ar  407  PHE407     -0.0003
    158  CZ         8.4740   18.0070   60.1970 C.ar  407  PHE407     -0.0000
@<TRIPOS>BOND
     1     1     2    1
     2     4     3    2
     3     2     3    1
     4     2     5    1
     5     3    10   am
     6     6     5    1
     7     6     7    1
     8   137   136    2
     9    21    20    2
    10    16    14    1
    11   136   135    1
    12    10    11    1
    13    53    52    1
    14     8     7    2
    15     7     9   am
    16    11    14    1
    17    11    12    1
    18    52    49    1
    19    72    71    2
    20    32    31    1
    21    32    26    1
    22    20    19    1
    23    14    15    1
    24    29    28    2
    25    12    13    2
    26    12    18   am
    27    71    70    1
    28   135   138    1
    29   135   134    1
    30    64    63    2
    31   138   139    1
    32    31    30    1
    33    26    27    1
    34    18    19    1
    35    25    23    1
    36    35    36    2
    37    35    34    1
    38    19    22    1
    39    49    48    1
    40    49    50    1
    41    15    17    1
    42    28    27    1
    43    28    33   am
    44    51    50    2
    45    63    62    1
    46    70    69    1
    47    70    73    1
    48    61    62    1
    49    48    42   am
    50    27    30    1
    51    50    54   am
    52   139   140    1
    53    34    33    1
    54    34    37    1
    55    57    56    2
    56    23    22    1
    57    40    41    1
    58    56    55    1
    59    98    97    2
    60    33    39    1
    61    22    24    1
    62   140   141    1
    63    62    65    1
    64    54    55    1
    65    74    73    1
    66    74    76    1
    67    73    75    1
    68    96    97    1
    69    96    95    1
    70    96    99    1
    71    42    41    1
    72    42    43    2
    73    55    58    1
    74    41    44    1
    75    37    38    1
    76    65    66    1
    77    39    38    1
    78    66    67    1
    79    58    60    1
    80    58    59    1
    81    44    45    1
    82   156   154   ar
    83   156   158   ar
    84   154   153   ar
    85   142   143    1
    86   107   105    1
    87    67    68    1
    88   158   157   ar
    89    45    46    1
    90    45    47    1
    91   153   152    1
    92   153   155   ar
    93    93    92    2
    94   152   149    1
    95   143   144    1
    96   143   146    1
    97   149   148    1
    98   149   150    1
    99    94    91    1
   100   129   128    2
   101   106   105    1
   102   157   155   ar
   103   105   104    1
   104    92    91    1
   105   144   145    2
   106   128   127    1
   107   104   101    1
   108   130   127    1
   109   130   131    1
   110   146   147    1
   111    91    90    1
   112   150   151    2
   113   132   131    1
   114    80    79    2
   115    84    83    1
   116   127   126    1
   117   131   133    1
   118   101   100    1
   119   101   102    1
   120    88    87    2
   121    79    78    1
   122    79    85   am
   123    87    86    1
   124    86    85    1
   125    86    89    1
   126   102   103    2
   127    81    78    1
   128    81    82    1
   129    78    77    1
   130    83    82    1
   131   113   112    1
   132   112   114    1
   133   112   109    1
   134   116   115    1
   135   116   117    1
   136   115   110   am
   137   125   123    1
   138   110   109    1
   139   110   111    2
   140   118   117    2
   141   109   108    1
   142   123   124    1
   143   123   120    1
   144   120   119    1
   145   120   121    1
   146   121   122    2
