@<TRIPOS>MOLECULE
tmp/5fyiB00.pdb
 84 84 0 0 0
SMALL
GASTEIGER

@<TRIPOS>ATOM
      1  N        -22.9230  -40.8000    0.4060 N.3     1  PRO1       -0.2102
      2  CA       -22.1430  -39.8070    1.1660 C.3     1  PRO1        0.1504
      3  C        -23.0750  -38.7540    1.7560 C.2     1  PRO1        0.2576
      4  O        -22.8750  -38.2410    2.8620 O.2     1  PRO1       -0.2718
      5  CB       -21.2060  -39.2000    0.1110 C.3     1  PRO1        0.0282
      6  CG       -21.2460  -40.1670   -1.0590 C.3     1  PRO1        0.0208
      7  CD       -22.6170  -40.7640   -1.0330 C.3     1  PRO1        0.0893
      8  N        -24.0980  -38.4330    0.9760 N.am    2  SER2       -0.1938
      9  CA       -25.2530  -37.6960    1.4510 C.3     2  SER2        0.2055
     10  C        -26.2370  -38.7900    1.8680 C.2     2  SER2        0.2643
     11  O        -27.3500  -38.5130    2.3250 O.2     2  SER2       -0.2714
     12  CB       -25.7950  -36.7420    0.3780 C.3     2  SER2        0.2130
     13  OG       -25.7920  -37.3410   -0.9140 O.3     2  SER2       -0.2179
     14  N        -25.7800  -40.0410    1.6910 N.am    3  ALA3       -0.1963
     15  CA       -26.5270  -41.2740    1.9750 C.3     3  ALA3        0.1728
     16  C        -27.9030  -41.2980    1.3250 C.2     3  ALA3        0.2616
     17  O        -28.8870  -41.6990    1.9510 O.2     3  ALA3       -0.2715
     18  CB       -26.6620  -41.4770    3.4750 C.3     3  ALA3        0.0334
     19  N        -27.9650  -40.8530    0.0740 N.am    4  ARG4       -0.1977
     20  CA       -29.2200  -40.8010   -0.6640 C.3     4  ARG4        0.1597
     21  C        -29.4200  -42.1340   -1.3640 C.2     4  ARG4        0.2287
     22  O        -28.4520  -42.8270   -1.6910 O.2     4  ARG4       -0.2864
     23  CB       -29.2430  -39.6700   -1.7030 C.3     4  ARG4        0.0334
     24  CG       -29.0090  -38.2230   -1.2130 C.3     4  ARG4        0.0492
     25  CD       -30.1620  -37.5980   -0.4080 C.3     4  ARG4        0.2205
     26  NE       -31.5060  -37.7410   -0.9800 N.pl3   4  ARG4       -0.0865
     27  CZ       -32.0370  -37.0020   -1.9620 C.cat   4  ARG4        0.5346
     28  NH1      -31.3470  -36.0250   -2.5530 N.pl3   4  ARG4        0.1354
     29  NH2      -33.2830  -37.2460   -2.3610 N.pl3   4  ARG4        0.1354
     30  N        -25.4530  -47.2210    2.3100 N.3    32  ARG32      -0.1245
     31  CA       -25.5440  -46.1680    3.3090 C.3    32  ARG32       0.1563
     32  C        -26.9410  -45.5940    3.4600 C.2    32  ARG32       0.2260
     33  O        -27.3250  -45.2070    4.5560 O.2    32  ARG32      -0.2867
     34  CB       -24.5620  -45.0490    2.9750 C.3    32  ARG32       0.0307
     35  CG       -23.1230  -45.5230    2.9640 C.3    32  ARG32       0.0489
     36  CD       -22.1600  -44.3620    2.9240 C.3    32  ARG32       0.2205
     37  NE       -22.3400  -43.4710    4.0620 N.pl3  32  ARG32      -0.0865
     38  CZ       -21.6050  -42.3820    4.2540 C.cat  32  ARG32       0.5346
     39  NH1      -20.6560  -42.0830    3.3790 N.pl3  32  ARG32       0.1354
     40  NH2      -21.8190  -41.5970    5.3040 N.pl3  32  ARG32       0.1354
     41  N        -31.2220  -44.1160    6.8320 N.3   203  PRO203     -0.2116
     42  CA       -29.8760  -44.7040    6.8040 C.3   203  PRO203      0.1372
     43  C        -29.6340  -45.5340    8.0400 C.2   203  PRO203      0.2244
     44  O        -30.0470  -45.1330    9.1280 O.2   203  PRO203     -0.2868
     45  CB       -28.9400  -43.4760    6.7890 C.3   203  PRO203      0.0268
     46  CG       -29.7910  -42.3920    6.1230 C.3   203  PRO203      0.0207
     47  CD       -31.2050  -42.6580    6.6150 C.3   203  PRO203      0.0892
     48  N        -27.0770  -45.7410    9.6870 N.3   205  GLU205     -0.1231
     49  CA       -26.3350  -44.9630   10.6820 C.3   205  GLU205      0.1699
     50  C        -27.2310  -44.0290   11.4940 C.2   205  GLU205      0.2592
     51  O        -26.7800  -43.4540   12.4740 O.2   205  GLU205     -0.2718
     52  CB       -25.2100  -44.1550   10.0220 C.3   205  GLU205      0.0402
     53  CG       -25.6450  -43.2060    8.9050 C.3   205  GLU205      0.1161
     54  CD       -24.4810  -42.8130    7.9960 C.2   205  GLU205      0.3649
     55  OE1      -24.1270  -43.5920    7.0760 O.co2 205  GLU205     -0.2457
     56  OE2      -23.9090  -41.7260    8.2170 O.co2 205  GLU205     -0.2457
     57  N        -28.4850  -43.8530   11.0800 N.am  206  HIS206     -0.1976
     58  CA       -29.4320  -43.0990   11.9010 C.3   206  HIS206      0.1656
     59  C        -30.5830  -43.9630   12.4130 C.2   206  HIS206      0.2291
     60  O        -31.5380  -43.4490   12.9980 O.2   206  HIS206     -0.2864
     61  CB       -29.9530  -41.9120   11.1130 C.3   206  HIS206      0.0771
     62  CG       -28.8650  -40.9630   10.7160 C.ar  206  HIS206      0.0820
     63  ND1      -28.0820  -40.3100   11.6430 N.ar  206  HIS206     -0.2267
     64  CD2      -28.3870  -40.6090    9.5030 C.ar  206  HIS206      0.1154
     65  CE1      -27.1900  -39.5690   11.0160 C.ar  206  HIS206      0.1986
     66  NE2      -27.3500  -39.7310    9.7130 N.ar  206  HIS206     -0.2212
     67  N        -33.0490  -38.1690    9.4910 N.3   247  PRO247     -0.2102
     68  CA       -32.7390  -38.1830    8.0570 C.3   247  PRO247      0.1504
     69  C        -33.4600  -39.3260    7.3470 C.2   247  PRO247      0.2575
     70  O        -33.5300  -40.4290    7.8860 O.2   247  PRO247     -0.2718
     71  CB       -31.2170  -38.4080    8.0180 C.3   247  PRO247      0.0282
     72  CG       -30.7460  -38.1310    9.4240 C.3   247  PRO247      0.0208
     73  CD       -31.8790  -38.4880   10.3210 C.3   247  PRO247      0.0893
     74  N        -33.9820  -39.0770    6.1590 N.am  248  PHE248     -0.1977
     75  CA       -34.6210  -40.1390    5.4050 C.3   248  PHE248      0.1639
     76  C        -34.6080  -39.7690    3.9520 C.2   248  PHE248      0.2290
     77  O        -34.3040  -38.6370    3.5890 O.2   248  PHE248     -0.2864
     78  CB       -36.0650  -40.3890    5.8790 C.3   248  PHE248      0.0560
     79  CG       -37.0170  -39.2700    5.5370 C.ar  248  PHE248     -0.0200
     80  CD1      -37.0740  -38.1350    6.3300 C.ar  248  PHE248     -0.0042
     81  CD2      -37.8500  -39.3550    4.4340 C.ar  248  PHE248     -0.0042
     82  CE1      -37.9450  -37.0800    6.0170 C.ar  248  PHE248     -0.0003
     83  CE2      -38.7450  -38.3120    4.1180 C.ar  248  PHE248     -0.0003
     84  CZ       -38.7820  -37.1760    4.9150 C.ar  248  PHE248     -0.0000
@<TRIPOS>BOND
     1    28    27    1
     2    29    27    1
     3    27    26    2
     4    23    24    1
     5    23    20    1
     6    22    21    2
     7    21    20    1
     8    24    25    1
     9     6     7    1
    10     6     5    1
    11     7     1    1
    12    26    25    1
    13    13    12    1
    14    20    19    1
    15    19    16   am
    16     5     2    1
    17    12     9    1
    18     1     2    1
    19     8     9    1
    20     8     3   am
    21     2     3    1
    22    16    17    2
    23    16    15    1
    24     9    10    1
    25    14    10   am
    26    14    15    1
    27     3     4    2
    28    10    11    2
    29    15    18    1
    30    30    31    1
    31    36    35    1
    32    36    37    1
    33    35    34    1
    34    34    31    1
    35    31    32    1
    36    39    38    1
    37    32    33    2
    38    77    76    2
    39    76    75    1
    40    37    38    2
    41    83    81   ar
    42    83    84   ar
    43    38    40    1
    44    81    79   ar
    45    84    82   ar
    46    75    78    1
    47    75    74    1
    48    79    78    1
    49    79    80   ar
    50    82    80   ar
    51    46    47    1
    52    46    45    1
    53    74    69   am
    54    47    41    1
    55    45    42    1
    56    42    41    1
    57    42    43    1
    58    55    54   ar
    59    69    70    2
    60    69    68    1
    61    54    56   ar
    62    54    53    1
    63    71    68    1
    64    71    72    1
    65    43    44    2
    66    68    67    1
    67    53    52    1
    68    72    73    1
    69    67    73    1
    70    64    66   ar
    71    64    62   ar
    72    48    49    1
    73    66    65   ar
    74    52    49    1
    75    49    50    1
    76    62    61    1
    77    62    63   ar
    78    65    63   ar
    79    57    50   am
    80    57    58    1
    81    61    58    1
    82    50    51    2
    83    58    59    1
    84    59    60    2
