@<TRIPOS>MOLECULE
tmp/5fyjB01.pdb
 169 172 0 0 0
SMALL
GASTEIGER

@<TRIPOS>ATOM
      1  N        182.7490  297.5680  -25.0130 N.3    30  ASN30      -0.1225
      2  CA       184.0620  297.4500  -25.6500 C.3    30  ASN30       0.1785
      3  C        184.1110  296.3770  -26.7130 C.2    30  ASN30       0.2597
      4  O        185.1140  296.2310  -27.4090 O.2    30  ASN30      -0.2718
      5  CB       185.1560  297.1570  -24.6250 C.3    30  ASN30       0.1169
      6  CG       184.8410  297.6780  -23.2450 C.2    30  ASN30       0.2627
      7  OD1      184.1900  298.7100  -23.0920 O.2    30  ASN30      -0.2716
      8  ND2      185.3060  296.9640  -22.2310 N.am   30  ASN30      -0.0877
      9  N        183.0370  295.6120  -26.8420 N.am   31  PHE31      -0.1962
     10  CA       183.0150  294.5480  -27.8250 C.3    31  PHE31       0.1771
     11  C        182.8060  295.0750  -29.2480 C.2    31  PHE31       0.2620
     12  O        183.1020  294.3760  -30.2120 O.2    31  PHE31      -0.2715
     13  CB       181.9310  293.5250  -27.4750 C.3    31  PHE31       0.0574
     14  CG       182.3470  292.5380  -26.4220 C.ar   31  PHE31      -0.0200
     15  CD1      183.5500  292.6860  -25.7500 C.ar   31  PHE31      -0.0042
     16  CD2      181.5470  291.4480  -26.1210 C.ar   31  PHE31      -0.0042
     17  CE1      183.9410  291.7760  -24.7860 C.ar   31  PHE31      -0.0003
     18  CE2      181.9330  290.5330  -25.1560 C.ar   31  PHE31      -0.0003
     19  CZ       183.1280  290.6960  -24.4910 C.ar   31  PHE31      -0.0000
     20  N        182.3150  296.3050  -29.3790 N.am   32  TYR32      -0.1960
     21  CA       181.9560  296.8360  -30.6910 C.3    32  TYR32       0.1771
     22  C        182.3780  298.2840  -30.9060 C.2    32  TYR32       0.2619
     23  O        182.3370  299.0950  -29.9830 O.2    32  TYR32      -0.2715
     24  CB       180.4440  296.7160  -30.9040 C.3    32  TYR32       0.0574
     25  CG       179.9510  295.2920  -30.8890 C.ar   32  TYR32      -0.0198
     26  CD1      179.9720  294.5210  -32.0400 C.ar   32  TYR32      -0.0009
     27  CD2      179.4840  294.7120  -29.7180 C.ar   32  TYR32      -0.0009
     28  CE1      179.5350  293.2130  -32.0300 C.ar   32  TYR32       0.0417
     29  CE2      179.0460  293.4040  -29.6960 C.ar   32  TYR32       0.0417
     30  CZ       179.0730  292.6590  -30.8550 C.ar   32  TYR32       0.1957
     31  OH       178.6390  291.3540  -30.8420 O.3    32  TYR32      -0.2866
     32  N        182.7840  298.5920  -32.1360 N.am   33  HIS33      -0.1973
     33  CA       183.1260  299.9570  -32.5330 C.3    33  HIS33       0.1656
     34  C        181.9170  300.8550  -32.4200 C.2    33  HIS33       0.2291
     35  O        180.7930  300.3780  -32.5310 O.2    33  HIS33      -0.2864
     36  CB       183.6410  300.0050  -33.9760 C.3    33  HIS33       0.0771
     37  CG       184.9430  299.3090  -34.1840 C.ar   33  HIS33       0.0820
     38  ND1      185.0290  297.9910  -34.5800 N.ar   33  HIS33      -0.2267
     39  CD2      186.2150  299.7510  -34.0700 C.ar   33  HIS33       0.1154
     40  CE1      186.2980  297.6500  -34.6970 C.ar   33  HIS33       0.1986
     41  NE2      187.0380  298.7010  -34.3920 N.ar   33  HIS33      -0.2212
     42  N        185.1170  305.9890  -36.9690 N.3    50  TRP50      -0.1241
     43  CA       184.7840  305.0570  -35.8920 C.3    50  TRP50       0.1605
     44  C        185.9290  304.9250  -34.8990 C.2    50  TRP50       0.2264
     45  O        187.0500  305.3770  -35.1450 O.2    50  TRP50      -0.2867
     46  CB       184.3830  303.6650  -36.4210 C.3    50  TRP50       0.0550
     47  CG       185.3310  302.9600  -37.3680 C.ar   50  TRP50       0.0003
     48  CD1      185.1070  302.6960  -38.6870 C.ar   50  TRP50       0.0946
     49  CD2      186.6100  302.3790  -37.0580 C.ar   50  TRP50       0.0152
     50  NE1      186.1690  302.0120  -39.2240 N.ar   50  TRP50      -0.2442
     51  CE2      187.1040  301.8030  -38.2460 C.ar   50  TRP50       0.0810
     52  CE3      187.3900  302.3010  -35.8990 C.ar   50  TRP50       0.0012
     53  CZ2      188.3400  301.1590  -38.3090 C.ar   50  TRP50       0.0191
     54  CZ3      188.6190  301.6630  -35.9640 C.ar   50  TRP50       0.0001
     55  CH2      189.0800  301.1000  -37.1620 C.ar   50  TRP50       0.0015
     56  N        187.3350  302.2920  -31.3560 N.3    52  SER52      -0.1203
     57  CA       187.1970  301.0870  -30.5550 C.3    52  SER52       0.2005
     58  C        187.2130  301.4480  -29.0780 C.2    52  SER52       0.2461
     59  O        188.1680  302.0630  -28.6140 O.2    52  SER52      -0.2732
     60  CB       188.3190  300.0920  -30.8690 C.3    52  SER52       0.2103
     61  OG       188.4580  299.1220  -29.8420 O.3    52  SER52      -0.2182
     62  N        186.1580  301.0820  -28.3380 N.am   53  PRO53      -0.2717
     63  CA       186.1210  301.3250  -26.8950 C.3    53  PRO53       0.1535
     64  C        187.1610  300.4740  -26.1910 C.2    53  PRO53       0.2599
     65  O        187.6610  300.8100  -25.1180 O.2    53  PRO53      -0.2715
     66  CB       184.7050  300.8980  -26.4830 C.3    53  PRO53       0.0310
     67  CG       183.9360  300.7810  -27.7580 C.3    53  PRO53       0.0237
     68  CD       184.9290  300.4160  -28.8120 C.3    53  PRO53       0.0939
     69  N        187.4820  299.3550  -26.8280 N.am   54  TYR54      -0.1960
     70  CA       188.4150  298.3940  -26.2760 C.3    54  TYR54       0.1771
     71  C        189.8640  298.8340  -26.4570 C.2    54  TYR54       0.2620
     72  O        190.6020  298.9490  -25.4840 O.2    54  TYR54      -0.2715
     73  CB       188.1880  297.0280  -26.9220 C.3    54  TYR54       0.0574
     74  CG       189.1520  295.9540  -26.4810 C.ar   54  TYR54      -0.0198
     75  CD1      188.9860  295.2980  -25.2690 C.ar   54  TYR54      -0.0009
     76  CD2      190.2200  295.5820  -27.2880 C.ar   54  TYR54      -0.0009
     77  CE1      189.8630  294.3070  -24.8690 C.ar   54  TYR54       0.0417
     78  CE2      191.1010  294.5930  -26.8980 C.ar   54  TYR54       0.0417
     79  CZ       190.9180  293.9590  -25.6890 C.ar   54  TYR54       0.1957
     80  OH       191.7980  292.9760  -25.3030 O.3    54  TYR54      -0.2866
     81  N        190.2630  299.0900  -27.7000 N.am   55  SER55      -0.1950
     82  CA       191.6660  299.3550  -28.0100 C.3    55  SER55       0.1924
     83  C        191.9950  300.8340  -28.1320 C.2    55  SER55       0.2314
     84  O        193.1540  301.2240  -28.0310 O.2    55  SER55      -0.2863
     85  CB       192.0630  298.6490  -29.3080 C.3    55  SER55       0.2116
     86  OG       191.3180  299.1420  -30.4050 O.3    55  SER55      -0.2180
     87  N        191.7200  302.3670  -30.8000 N.3    57  ASP57      -0.1225
     88  CA       192.0570  302.5120  -32.2080 C.3    57  ASP57       0.1805
     89  C        190.9960  303.3420  -32.9200 C.2    57  ASP57       0.2598
     90  O        189.8170  303.0050  -32.8950 O.2    57  ASP57      -0.2718
     91  CB       192.1920  301.1350  -32.8650 C.3    57  ASP57       0.1424
     92  CG       192.8810  301.1840  -34.2160 C.2    57  ASP57       0.3668
     93  OD1      192.9440  302.2770  -34.8230 O.co2  57  ASP57      -0.2456
     94  OD2      193.3560  300.1230  -34.6740 O.co2  57  ASP57      -0.2456
     95  N        191.4230  304.4390  -33.5410 N.am   58  LYS58      -0.1966
     96  CA       190.5070  305.3060  -34.2690 C.3    58  LYS58       0.1728
     97  C        190.6480  305.1260  -35.7710 C.2    58  LYS58       0.2616
     98  O        191.6520  304.6100  -36.2570 O.2    58  LYS58      -0.2715
     99  CB       190.7470  306.7790  -33.9200 C.3    58  LYS58       0.0311
    100  CG       190.7020  307.1120  -32.4450 C.3    58  LYS58       0.0038
    101  CD       190.5280  308.6100  -32.2470 C.3    58  LYS58       0.0206
    102  CE       191.1790  309.0870  -30.9600 C.3    58  LYS58       0.1093
    103  NZ       190.6960  308.3530  -29.7590 N.3    58  LYS58      -0.1314
    104  N        189.6250  305.5550  -36.4980 N.am   59  ASN59      -0.1958
    105  CA       189.7130  305.6960  -37.9420 C.3    59  ASN59       0.1819
    106  C        188.8500  306.8570  -38.3800 C.2    59  ASN59       0.2621
    107  O        187.6270  306.7460  -38.4400 O.2    59  ASN59      -0.2715
    108  CB       189.2860  304.4230  -38.6660 C.3    59  ASN59       0.1195
    109  CG       189.4160  304.5500  -40.1740 C.2    59  ASN59       0.2630
    110  OD1      190.1870  305.3690  -40.6780 O.2    59  ASN59      -0.2716
    111  ND2      188.6580  303.7390  -40.9040 N.am   59  ASN59      -0.0877
    112  N        189.5000  307.9720  -38.6760 N.am   60  LEU60      -0.1977
    113  CA       188.8030  309.1840  -39.0560 C.3    60  LEU60       0.1596
    114  C        188.9530  309.4220  -40.5480 C.2    60  LEU60       0.2287
    115  O        190.0490  309.2890  -41.0960 O.2    60  LEU60      -0.2864
    116  CB       189.3430  310.3670  -38.2520 C.3    60  LEU60       0.0297
    117  CG       188.4830  311.6240  -38.1310 C.3    60  LEU60       0.0022
    118  CD1      187.0250  311.2560  -37.9410 C.3    60  LEU60       0.0001
    119  CD2      188.9750  312.4610  -36.9610 C.3    60  LEU60       0.0001
    120  N        182.4840  291.0990  -34.2950 N.3   110  ARG110     -0.1231
    121  CA       183.6280  291.2150  -33.4010 C.3   110  ARG110      0.1694
    122  C        184.9150  290.7640  -34.0870 C.2   110  ARG110      0.2592
    123  O        186.0130  291.1690  -33.6970 O.2   110  ARG110     -0.2718
    124  CB       183.3920  290.3990  -32.1310 C.3   110  ARG110      0.0321
    125  CG       182.2580  290.9140  -31.2660 C.3   110  ARG110      0.0489
    126  CD       182.1380  290.0960  -29.9950 C.3   110  ARG110      0.2205
    127  NE       183.3600  290.1570  -29.1980 N.pl3 110  ARG110     -0.0865
    128  CZ       183.5760  289.4300  -28.1070 C.cat 110  ARG110      0.5346
    129  NH1      182.6520  288.5780  -27.6800 N.pl3 110  ARG110      0.1354
    130  NH2      184.7190  289.5520  -27.4430 N.pl3 110  ARG110      0.1354
    131  N        184.7730  289.9240  -35.1080 N.am  111  ASP111     -0.1960
    132  CA       185.9130  289.4810  -35.8990 C.3   111  ASP111      0.1840
    133  C        185.4740  289.1930  -37.3310 C.2   111  ASP111      0.2623
    134  O        184.5770  288.3880  -37.5650 O.2   111  ASP111     -0.2715
    135  CB       186.5620  288.2480  -35.2690 C.3   111  ASP111      0.1450
    136  CG       187.8430  287.8340  -35.9710 C.2   111  ASP111      0.3671
    137  OD1      188.5000  288.7010  -36.5870 O.co2 111  ASP111     -0.2456
    138  OD2      188.1960  286.6380  -35.9020 O.co2 111  ASP111     -0.2456
    139  N        186.0990  289.8650  -38.2910 N.am  112  GLY112     -0.1940
    140  CA       185.7450  289.6830  -39.6850 C.3   112  GLY112      0.2014
    141  C        185.9430  290.9210  -40.5380 C.2   112  GLY112      0.2639
    142  O        186.4140  291.9570  -40.0670 O.2   112  GLY112     -0.2714
    143  N        185.5630  290.8120  -41.8050 N.am  113  SER113     -0.1949
    144  CA       185.7650  291.8880  -42.7610 C.3   113  SER113      0.1924
    145  C        184.7170  292.9860  -42.6180 C.2   113  SER113      0.2314
    146  O        184.6210  293.8640  -43.4770 O.2   113  SER113     -0.2863
    147  CB       185.7340  291.3400  -44.1860 C.3   113  SER113      0.2116
    148  OG       186.4930  290.1530  -44.2870 O.3   113  SER113     -0.2180
    149  N        183.5870  294.1270  -39.0720 N.3   115  THR115     -0.1203
    150  CA       183.4500  294.3190  -37.6300 C.3   115  THR115      0.1994
    151  C        182.8560  295.6680  -37.2390 C.2   115  THR115      0.2617
    152  O        181.8790  295.7420  -36.4920 O.2   115  THR115     -0.2717
    153  CB       184.8100  294.1860  -36.9360 C.3   115  THR115      0.1784
    154  OG1      185.7770  294.9760  -37.6380 O.3   115  THR115     -0.2211
    155  CG2      185.2620  292.7560  -36.9460 C.3   115  THR115      0.0376
    156  N        183.4700  296.7280  -37.7460 N.am  116  TRP116     -0.1975
    157  CA       183.1110  298.0950  -37.3910 C.3   116  TRP116      0.1640
    158  C        181.7780  298.5330  -37.9900 C.2   116  TRP116      0.2290
    159  O        181.2070  299.5310  -37.5580 O.2   116  TRP116     -0.2864
    160  CB       184.2140  299.0480  -37.8590 C.3   116  TRP116      0.0576
    161  CG       184.4980  298.8390  -39.2980 C.ar  116  TRP116      0.0006
    162  CD1      185.4340  298.0050  -39.8380 C.ar  116  TRP116      0.0946
    163  CD2      183.7940  299.4190  -40.3970 C.ar  116  TRP116      0.0152
    164  NE1      185.3710  298.0490  -41.2060 N.ar  116  TRP116     -0.2442
    165  CE2      184.3700  298.9110  -41.5740 C.ar  116  TRP116      0.0810
    166  CE3      182.7410  300.3330  -40.5010 C.ar  116  TRP116      0.0012
    167  CZ2      183.9180  299.2720  -42.8370 C.ar  116  TRP116      0.0191
    168  CZ3      182.3010  300.6950  -41.7550 C.ar  116  TRP116      0.0001
    169  CH2      182.8930  300.1720  -42.9070 C.ar  116  TRP116      0.0015
@<TRIPOS>BOND
     1   148   147    1
     2   147   144    1
     3   146   145    2
     4   169   167   ar
     5   169   168   ar
     6   167   165   ar
     7   144   145    1
     8   144   143    1
     9   143   141   am
    10   168   166   ar
    11   165   164   ar
    12   165   163   ar
    13   164   162   ar
    14   115   114    2
    15   111   109   am
    16   110   109    2
    17   114   113    1
    18   141   142    2
    19   141   140    1
    20   166   163   ar
    21   163   161   ar
    22   109   108    1
    23   162   161   ar
    24   140   139    1
    25   161   160    1
    26    50    48   ar
    27    50    51   ar
    28   149   150    1
    29   113   112    1
    30   113   116    1
    31    48    47   ar
    32   112   106   am
    33   108   105    1
    34   107   106    2
    35   106   105    1
    36    53    51   ar
    37    53    55   ar
    38   139   133   am
    39   116   117    1
    40    51    49   ar
    41   117   118    1
    42   117   119    1
    43   158   159    2
    44   158   157    1
    45   105   104    1
    46   160   157    1
    47   156   157    1
    48   156   151   am
    49   154   153    1
    50   150   151    1
    51   150   153    1
    52   134   133    2
    53    47    49   ar
    54    47    46    1
    55   133   132    1
    56   151   152    2
    57    55    54   ar
    58    49    52   ar
    59    42    43    1
    60   155   153    1
    61   137   136   ar
    62   104    97   am
    63    46    43    1
    64    98    97    2
    65   136   138   ar
    66   136   135    1
    67    54    52   ar
    68   132   135    1
    69   132   131    1
    70    43    44    1
    71    97    96    1
    72    45    44    2
    73   131   122   am
    74    93    92   ar
    75    40    38   ar
    76    40    41   ar
    77    94    92   ar
    78    38    37   ar
    79    41    39   ar
    80   120   121    1
    81    96    99    1
    82    96    95    1
    83    92    91    1
    84    37    39   ar
    85    37    36    1
    86   122   123    2
    87   122   121    1
    88    36    33    1
    89    99   100    1
    90    95    89   am
    91   121   124    1
    92    89    90    2
    93    89    88    1
    94    91    88    1
    95    33    34    1
    96    33    32    1
    97    35    34    2
    98   100   101    1
    99   101   102    1
   100    88    87    1
   101    32    22   am
   102   124   125    1
   103    26    28   ar
   104    26    25   ar
   105    28    30   ar
   106    56    57    1
   107   125   126    1
   108   102   103    1
   109    22    21    1
   110    22    23    2
   111    24    25    1
   112    24    21    1
   113    25    27   ar
   114    60    57    1
   115    60    61    1
   116    30    31    1
   117    30    29   ar
   118    21    20    1
   119    57    58    1
   120    86    85    1
   121    12    11    2
   122   126   127    1
   123    27    29   ar
   124    20    11   am
   125    85    82    1
   126    11    10    1
   127   127   128    2
   128    58    59    2
   129    58    62   am
   130    68    62    1
   131    68    67    1
   132    62    63    1
   133    83    84    2
   134    83    82    1
   135   128   129    1
   136   128   130    1
   137    82    81    1
   138    10    13    1
   139    10     9    1
   140    67    66    1
   141    81    71   am
   142    13    14    1
   143     4     3    2
   144    76    78   ar
   145    76    74   ar
   146    73    74    1
   147    73    70    1
   148    78    79   ar
   149    63    66    1
   150    63    64    1
   151     9     3   am
   152    69    70    1
   153    69    64   am
   154     3     2    1
   155    74    75   ar
   156    71    70    1
   157    71    72    2
   158    14    16   ar
   159    14    15   ar
   160    64    65    2
   161    16    18   ar
   162    15    17   ar
   163    79    80    1
   164    79    77   ar
   165     2     1    1
   166     2     5    1
   167    75    77   ar
   168    18    19   ar
   169    17    19   ar
   170     5     6    1
   171     6     7    2
   172     6     8   am
