@<TRIPOS>MOLECULE
tmp/5fyjD00.pdb
 79 73 0 0 0
SMALL
GASTEIGER

@<TRIPOS>ATOM
      1  N        190.6030  302.7620    1.7300 N.3   245  ILE245     -0.1245
      2  CA       189.9840  301.9280    2.7540 C.3   245  ILE245      0.1561
      3  C        188.5410  301.6200    2.3500 C.2   245  ILE245      0.2260
      4  O        187.8550  302.4590    1.7650 O.2   245  ILE245     -0.2867
      5  CB       190.0410  302.5880    4.1640 C.3   245  ILE245      0.0252
      6  CG1      188.8740  303.5510    4.3950 C.3   245  ILE245      0.0019
      7  CG2      191.3930  303.2710    4.3850 C.3   245  ILE245      0.0019
      8  CD1      187.8260  303.0260    5.3740 C.3   245  ILE245      0.0001
      9  N        191.5160  298.4710    5.7380 N.3   263  LEU263     -0.1245
     10  CA       192.3760  299.6460    5.6860 C.3   263  LEU263      0.1561
     11  C        193.2090  299.6620    4.4100 C.2   263  LEU263      0.2260
     12  O        193.3870  298.6300    3.7590 O.2   263  LEU263     -0.2867
     13  CB       193.2960  299.6970    6.9080 C.3   263  LEU263      0.0270
     14  CG       192.6640  299.8610    8.2900 C.3   263  LEU263      0.0019
     15  CD1      193.7450  300.0160    9.3510 C.3   263  LEU263      0.0001
     16  CD2      191.7180  301.0490    8.3120 C.3   263  LEU263      0.0001
     17  N        196.3150  301.6540    4.5230 N.3   265  THR265     -0.1203
     18  CA       197.6200  301.6520    5.1670 C.3   265  THR265      0.1994
     19  C        197.4950  301.0450    6.5590 C.2   265  THR265      0.2618
     20  O        196.6310  301.4390    7.3440 O.2   265  THR265     -0.2717
     21  CB       198.2150  303.0690    5.2580 C.3   265  THR265      0.1784
     22  OG1      197.4350  303.8630    6.1590 O.3   265  THR265     -0.2211
     23  CG2      198.2310  303.7280    3.8870 C.3   265  THR265      0.0376
     24  N        198.3580  300.0820    6.8550 N.am  266  ALA266     -0.1965
     25  CA       198.2640  299.3250    8.0940 C.3   266  ALA266      0.1728
     26  C        198.6800  300.1460    9.3050 C.2   266  ALA266      0.2616
     27  O        199.4270  301.1160    9.1880 O.2   266  ALA266     -0.2715
     28  CB       199.1060  298.0650    8.0050 C.3   266  ALA266      0.0334
     29  N        198.1890  299.7360   10.4670 N.am  267  VAL267     -0.1977
     30  CA       198.5200  300.3860   11.7220 C.3   267  VAL267      0.1596
     31  C        199.1970  299.3950   12.6580 C.2   267  VAL267      0.2287
     32  O        198.5710  298.4430   13.1300 O.2   267  VAL267     -0.2864
     33  CB       197.2660  300.9720   12.3880 C.3   267  VAL267      0.0276
     34  CG1      197.5570  301.3700   13.8160 C.3   267  VAL267      0.0022
     35  CG2      196.7590  302.1560   11.5900 C.3   267  VAL267      0.0022
     36  N        198.6110  307.7360   14.7600 N.3   311  GLU311     -0.1245
     37  CA       198.3960  306.8320   13.6400 C.3   311  GLU311      0.1567
     38  C        197.0760  306.0560   13.7650 C.2   311  GLU311      0.2260
     39  O        196.4810  305.6770   12.7530 O.2   311  GLU311     -0.2867
     40  CB       199.6020  305.8890   13.5070 C.3   311  GLU311      0.0388
     41  CG       199.2860  304.4090   13.3970 C.3   311  GLU311      0.1160
     42  CD       200.5240  303.5660   13.1190 C.2   311  GLU311      0.3649
     43  OE1      200.9470  303.4940   11.9450 O.co2 311  GLU311     -0.2457
     44  OE2      201.0720  302.9690   14.0720 O.co2 311  GLU311     -0.2457
     45  N        194.0640  308.7090   13.2310 N.3   314  ASP314     -0.1225
     46  CA       193.9960  309.0100   11.8070 C.3   314  ASP314      0.1805
     47  C        193.0660  308.0580   11.0730 C.2   314  ASP314      0.2597
     48  O        192.1380  308.4940   10.3960 O.2   314  ASP314     -0.2718
     49  CB       195.3850  308.9570   11.1790 C.3   314  ASP314      0.1424
     50  CG       196.1420  310.2570   11.3170 C.2   314  ASP314      0.3668
     51  OD1      195.7230  311.1010   12.1390 O.co2 314  ASP314     -0.2456
     52  OD2      197.1550  310.4380   10.6120 O.co2 314  ASP314     -0.2456
     53  N        193.3170  306.7600   11.1920 N.am  315  MET315     -0.1979
     54  CA       192.4800  305.7940   10.4940 C.3   315  MET315      0.1605
     55  C        191.0760  305.8050   11.0740 C.2   315  MET315      0.2287
     56  O        190.1150  305.5020   10.3770 O.2   315  MET315     -0.2864
     57  CB       193.0730  304.3870   10.5530 C.3   315  MET315      0.0413
     58  CG       193.1870  303.7970   11.9380 C.3   315  MET315      0.0598
     59  SD       192.3770  302.1950   12.0410 S.3   315  MET315     -0.1393
     60  CE       190.6910  302.6880   12.4040 C.3   315  MET315      0.0692
     61  N        189.6180  308.4510   11.8430 N.3   317  ARG317     -0.1231
     62  CA       189.0770  309.5330   11.0380 C.3   317  ARG317      0.1694
     63  C        188.8070  309.0830    9.6150 C.2   317  ARG317      0.2592
     64  O        187.7240  309.3060    9.0790 O.2   317  ARG317     -0.2718
     65  CB       190.0440  310.7110   11.0300 C.3   317  ARG317      0.0321
     66  CG       189.8450  311.6860    9.8910 C.3   317  ARG317      0.0489
     67  CD       190.9650  312.7110    9.8850 C.3   317  ARG317      0.2205
     68  NE       190.8000  313.7110    8.8350 N.pl3 317  ARG317     -0.0865
     69  CZ       191.2860  313.5930    7.6020 C.cat 317  ARG317      0.5346
     70  NH1      191.9700  312.5120    7.2530 N.pl3 317  ARG317      0.1354
     71  NH2      191.0840  314.5580    6.7150 N.pl3 317  ARG317      0.1354
     72  N        189.8090  308.4630    9.0050 N.am  318  ASN318     -0.1974
     73  CA       189.6910  307.9970    7.6340 C.3   318  ASN318      0.1688
     74  C        188.5420  307.0110    7.4630 C.2   318  ASN318      0.2292
     75  O        187.7970  307.0800    6.4870 O.2   318  ASN318     -0.2864
     76  CB       191.0050  307.3720    7.1730 C.3   318  ASN318      0.1181
     77  CG       192.0550  308.4110    6.8640 C.2   318  ASN318      0.2629
     78  OD1      191.7280  309.5650    6.5920 O.2   318  ASN318     -0.2716
     79  ND2      193.3230  308.0130    6.9050 N.am  318  ASN318     -0.0877
@<TRIPOS>BOND
     1     1     2    1
     2     4     3    2
     3     3     2    1
     4     2     5    1
     5    12    11    2
     6    23    21    1
     7     5     7    1
     8     5     6    1
     9     6     8    1
    10    11    10    1
    11    17    18    1
    12    18    21    1
    13    18    19    1
    14    21    22    1
    15    10     9    1
    16    10    13    1
    17    75    74    2
    18    19    24   am
    19    19    20    2
    20    78    77    2
    21    71    69    1
    22    24    25    1
    23    77    79   am
    24    77    76    1
    25    13    14    1
    26    76    73    1
    27    70    69    1
    28    74    73    1
    29    69    68    2
    30    73    72    1
    31    28    25    1
    32    25    26    1
    33    14    16    1
    34    14    15    1
    35    68    67    1
    36    72    63   am
    37    64    63    2
    38    27    26    2
    39    26    29   am
    40    63    62    1
    41    67    66    1
    42    66    65    1
    43    56    55    2
    44    48    47    2
    45    29    30    1
    46    54    57    1
    47    54    55    1
    48    54    53    1
    49    57    58    1
    50    52    50   ar
    51    65    62    1
    52    62    61    1
    53    47    53   am
    54    47    46    1
    55    49    50    1
    56    49    46    1
    57    50    51   ar
    58    35    33    1
    59    30    33    1
    60    30    31    1
    61    46    45    1
    62    58    59    1
    63    43    42   ar
    64    59    60    1
    65    33    34    1
    66    31    32    2
    67    39    38    2
    68    42    41    1
    69    42    44   ar
    70    41    40    1
    71    40    37    1
    72    37    38    1
    73    37    36    1
