@<TRIPOS>MOLECULE
tmp/5fyjD06.pdb
 99 98 0 0 0
SMALL
GASTEIGER

@<TRIPOS>ATOM
      1  N        186.5850  277.8240    6.9640 N.3    75  HIS75      -0.1226
      2  CA       186.2380  277.8490    8.3780 C.3    75  HIS75       0.1752
      3  C        186.2420  276.4490    8.9770 C.2    75  HIS75       0.2595
      4  O        186.7830  276.2330   10.0670 O.2    75  HIS75      -0.2718
      5  CB       184.8720  278.5020    8.5750 C.3    75  HIS75       0.0759
      6  CG       184.4150  278.5020    9.9960 C.ar   75  HIS75       0.0818
      7  ND1      184.9680  279.3260   10.9520 N.ar   75  HIS75      -0.2268
      8  CD2      183.4750  277.7640   10.6310 C.ar   75  HIS75       0.1154
      9  CE1      184.3810  279.1020   12.1130 C.ar   75  HIS75       0.1986
     10  NE2      183.4700  278.1600   11.9450 N.ar   75  HIS75      -0.2212
     11  N        185.6260  275.4880    8.2890 N.am   76  GLU76      -0.1979
     12  CA       185.5740  274.1390    8.8330 C.3    76  GLU76       0.1602
     13  C        186.9420  273.4640    8.7890 C.2    76  GLU76       0.2287
     14  O        187.2490  272.6470    9.6650 O.2    76  GLU76      -0.2864
     15  CB       184.5260  273.3080    8.0890 C.3    76  GLU76       0.0415
     16  CG       184.2030  271.9830    8.7650 C.3    76  GLU76       0.1163
     17  CD       183.7820  272.1480   10.2170 C.2    76  GLU76       0.3649
     18  OE1      183.0090  273.0880   10.5070 O.co2  76  GLU76      -0.2457
     19  OE2      184.2260  271.3430   11.0660 O.co2  76  GLU76      -0.2457
     20  N        188.8710  274.7300   12.0830 N.3    79  ILE79      -0.1245
     21  CA       188.4650  274.1450   13.3570 C.3    79  ILE79       0.1561
     22  C        188.7160  272.6440   13.3930 C.2    79  ILE79       0.2260
     23  O        188.7100  272.0400   14.4580 O.2    79  ILE79      -0.2867
     24  CB       186.9750  274.4280   13.6720 C.3    79  ILE79       0.0252
     25  CG1      186.0530  273.4350   12.9690 C.3    79  ILE79       0.0019
     26  CG2      186.6210  275.8510   13.2940 C.3    79  ILE79       0.0019
     27  CD1      184.5710  273.6910   13.2270 C.3    79  ILE79       0.0001
     28  N        185.6870  278.0230   19.0530 N.3   394  TRP394     -0.1227
     29  CA       184.6260  277.3780   18.2810 C.3   394  TRP394      0.1737
     30  C        183.4890  276.8890   19.1630 C.2   394  TRP394      0.2595
     31  O        182.7140  276.0250   18.7580 O.2   394  TRP394     -0.2718
     32  CB       185.1780  276.2030   17.4740 C.3   394  TRP394      0.0564
     33  CG       186.6190  276.3290   17.1370 C.ar  394  TRP394      0.0003
     34  CD1      187.6280  275.5040   17.5370 C.ar  394  TRP394      0.0946
     35  CD2      187.2260  277.3540   16.3460 C.ar  394  TRP394      0.0152
     36  NE1      188.8260  275.9440   17.0310 N.ar  394  TRP394     -0.2442
     37  CE2      188.6060  277.0800   16.2970 C.ar  394  TRP394      0.0810
     38  CE3      186.7340  278.4730   15.6680 C.ar  394  TRP394      0.0012
     39  CZ2      189.5010  277.8850   15.5970 C.ar  394  TRP394      0.0191
     40  CZ3      187.6220  279.2710   14.9740 C.ar  394  TRP394      0.0001
     41  CH2      188.9900  278.9740   14.9440 C.ar  394  TRP394      0.0015
     42  N        183.4020  277.4450   20.3680 N.am  395  GLN395     -0.1965
     43  CA       182.4040  277.0370   21.3460 C.3   395  GLN395      0.1733
     44  C        182.4020  275.5310   21.5890 C.2   395  GLN395      0.2616
     45  O        183.3940  274.9640   22.0500 O.2   395  GLN395     -0.2715
     46  CB       181.0100  277.4980   20.9070 C.3   395  GLN395      0.0408
     47  CG       180.7510  278.9860   21.0960 C.3   395  GLN395      0.0908
     48  CD       180.5460  279.3710   22.5540 C.2   395  GLN395      0.2608
     49  OE1      180.8270  278.5920   23.4650 O.2   395  GLN395     -0.2717
     50  NE2      180.0450  280.5790   22.7780 N.am  395  GLN395     -0.0878
     51  N        181.2840  274.8900   21.2650 N.am  396  ARG396     -0.1963
     52  CA       181.0850  273.4830   21.5900 C.3   396  ARG396      0.1729
     53  C        181.9460  272.5350   20.7650 C.2   396  ARG396      0.2616
     54  O        182.4860  271.5690   21.3020 O.2   396  ARG396     -0.2715
     55  CB       179.6110  273.1090   21.4230 C.3   396  ARG396      0.0348
     56  CG       178.7060  273.7220   22.4750 C.3   396  ARG396      0.0492
     57  CD       177.3220  273.0930   22.4470 C.3   396  ARG396      0.2205
     58  NE       177.3700  271.6560   22.7070 N.pl3 396  ARG396     -0.0865
     59  CZ       176.2960  270.8820   22.8270 C.cat 396  ARG396      0.5346
     60  NH1      175.0830  271.4060   22.7130 N.pl3 396  ARG396      0.1354
     61  NH2      176.4340  269.5850   23.0620 N.pl3 396  ARG396      0.1354
     62  N        182.0750  272.7920   19.4660 N.am  397  VAL397     -0.1977
     63  CA       182.8950  271.9170   18.6340 C.3   397  VAL397      0.1596
     64  C        184.3660  272.1180   19.0080 C.2   397  VAL397      0.2287
     65  O        184.8760  273.2410   19.0190 O.2   397  VAL397     -0.2864
     66  CB       182.6620  272.1480   17.1140 C.3   397  VAL397      0.0276
     67  CG1      182.9130  273.5930   16.7120 C.3   397  VAL397      0.0022
     68  CG2      183.5190  271.1960   16.2900 C.3   397  VAL397      0.0022
     69  N        182.0120  287.9090   17.0460 N.3   442  GLY442     -0.1210
     70  CA       181.3440  286.6510   17.3340 C.3   442  GLY442      0.1956
     71  C        181.6440  285.5050   16.3840 C.2   442  GLY442      0.2612
     72  O        181.9570  284.3950   16.8150 O.2   442  GLY442     -0.2717
     73  N        181.5480  285.7690   15.0870 N.am  443  ASP443     -0.1959
     74  CA       181.6960  284.7160   14.0930 C.3   443  ASP443      0.1840
     75  C        183.0130  284.8500   13.3360 C.2   443  ASP443      0.2622
     76  O        183.2700  285.8720   12.7010 O.2   443  ASP443     -0.2715
     77  CB       180.5210  284.7540   13.1190 C.3   443  ASP443      0.1450
     78  CG       180.2570  283.4150   12.4730 C.2   443  ASP443      0.3671
     79  OD1      180.6650  282.3810   13.0440 O.co2 443  ASP443     -0.2456
     80  OD2      179.6320  283.3970   11.3940 O.co2 443  ASP443     -0.2456
     81  N        183.8400  283.8100   13.4010 N.am  444  MET444     -0.1963
     82  CA       185.1530  283.8330   12.7600 C.3   444  MET444      0.1736
     83  C        185.0630  283.8650   11.2430 C.2   444  MET444      0.2616
     84  O        186.0260  284.2200   10.5660 O.2   444  MET444     -0.2715
     85  CB       185.9850  282.6280   13.1970 C.3   444  MET444      0.0427
     86  CG       186.8040  282.8850   14.4490 C.3   444  MET444      0.0599
     87  SD       187.7380  284.4260   14.3380 S.3   444  MET444     -0.1393
     88  CE       187.2850  285.2190   15.8810 C.3   444  MET444      0.0692
     89  N        183.9030  283.4980   10.7140 N.am  445  ARG445     -0.1977
     90  CA       183.6900  283.4800    9.2730 C.3   445  ARG445      0.1597
     91  C        183.9060  284.8530    8.6450 C.2   445  ARG445      0.2287
     92  O        184.2740  284.9550    7.4770 O.2   445  ARG445     -0.2864
     93  CB       182.2880  282.9700    8.9580 C.3   445  ARG445      0.0334
     94  CG       182.0960  281.5110    9.3190 C.3   445  ARG445      0.0492
     95  CD       180.6340  281.1210    9.2950 C.3   445  ARG445      0.2205
     96  NE       180.4540  279.7010    9.5700 N.pl3 445  ARG445     -0.0865
     97  CZ       180.4670  279.1660   10.7860 C.cat 445  ARG445      0.5346
     98  NH1      180.6540  279.9340   11.8510 N.pl3 445  ARG445      0.1354
     99  NH2      180.2950  277.8590   10.9370 N.pl3 445  ARG445      0.1354
@<TRIPOS>BOND
     1     1     2    1
     2    92    91    2
     3    15    16    1
     4    15    12    1
     5    11    12    1
     6    11     3   am
     7     2     5    1
     8     2     3    1
     9     5     6    1
    10    91    90    1
    11    16    17    1
    12    13    12    1
    13    13    14    2
    14    93    90    1
    15    93    94    1
    16     3     4    2
    17    90    89    1
    18    95    94    1
    19    95    96    1
    20    96    97    2
    21     6     8   ar
    22     6     7   ar
    23    17    18   ar
    24    17    19   ar
    25    84    83    2
    26     8    10   ar
    27    89    83   am
    28    97    99    1
    29    97    98    1
    30     7     9   ar
    31    83    82    1
    32    80    78   ar
    33    10     9   ar
    34    20    21    1
    35    78    79   ar
    36    78    77    1
    37    76    75    2
    38    82    85    1
    39    82    81    1
    40    25    27    1
    41    25    24    1
    42    77    74    1
    43    85    86    1
    44    26    24    1
    45    75    81   am
    46    75    74    1
    47    21    22    1
    48    21    24    1
    49    22    23    2
    50    74    73    1
    51    87    86    1
    52    87    88    1
    53    41    40   ar
    54    41    39   ar
    55    40    38   ar
    56    73    71   am
    57    39    37   ar
    58    38    35   ar
    59    68    66    1
    60    37    35   ar
    61    37    36   ar
    62    35    33   ar
    63    71    72    2
    64    71    70    1
    65    67    66    1
    66    36    34   ar
    67    69    70    1
    68    66    63    1
    69    33    32    1
    70    33    34   ar
    71    32    29    1
    72    29    28    1
    73    29    30    1
    74    63    64    1
    75    63    62    1
    76    31    30    2
    77    64    65    2
    78    30    42   am
    79    62    53   am
    80    42    43    1
    81    53    54    2
    82    53    52    1
    83    46    47    1
    84    46    43    1
    85    47    48    1
    86    51    44   am
    87    51    52    1
    88    43    44    1
    89    55    52    1
    90    55    56    1
    91    44    45    2
    92    57    56    1
    93    57    58    1
    94    48    50   am
    95    48    49    2
    96    58    59    2
    97    60    59    1
    98    59    61    1
