@<TRIPOS>MOLECULE
tmp/5fykB01.pdb
 178 180 0 0 0
SMALL
GASTEIGER

@<TRIPOS>ATOM
      1  N       -105.0230 -202.0790   24.1510 N.3    30  ASN30      -0.1225
      2  CA      -104.0800 -203.0870   24.6260 C.3    30  ASN30       0.1785
      3  C       -103.2330 -202.6240   25.8020 C.2    30  ASN30       0.2597
      4  O       -102.7910 -203.4380   26.6150 O.2    30  ASN30      -0.2718
      5  CB      -103.1510 -203.5210   23.4930 C.3    30  ASN30       0.1169
      6  CG      -103.8660 -204.3280   22.4340 C.2    30  ASN30       0.2627
      7  OD1     -104.8950 -204.9500   22.6960 O.2    30  ASN30      -0.2716
      8  ND2     -103.3200 -204.3250   21.2240 N.am   30  ASN30      -0.0877
      9  N       -103.0110 -201.3160   25.8880 N.am   31  PHE31      -0.1962
     10  CA      -102.1140 -200.7560   26.8930 C.3    31  PHE31       0.1771
     11  C       -102.6840 -200.7820   28.3110 C.2    31  PHE31       0.2620
     12  O       -101.9410 -200.6430   29.2820 O.2    31  PHE31      -0.2715
     13  CB      -101.7370 -199.3160   26.5330 C.3    31  PHE31       0.0574
     14  CG      -100.6940 -199.2030   25.4560 C.ar   31  PHE31      -0.0200
     15  CD1     -100.2040 -200.3340   24.8260 C.ar   31  PHE31      -0.0042
     16  CD2     -100.1920 -197.9670   25.0850 C.ar   31  PHE31      -0.0042
     17  CE1      -99.2470 -200.2350   23.8360 C.ar   31  PHE31      -0.0003
     18  CE2      -99.2340 -197.8610   24.0940 C.ar   31  PHE31      -0.0003
     19  CZ       -98.7600 -198.9960   23.4690 C.ar   31  PHE31      -0.0000
     20  N       -103.9950 -200.9560   28.4390 N.am   32  TYR32      -0.1960
     21  CA      -104.6290 -200.8520   29.7470 C.3    32  TYR32       0.1771
     22  C       -105.5660 -202.0060   30.0580 C.2    32  TYR32       0.2619
     23  O       -106.0780 -202.6670   29.1540 O.2    32  TYR32      -0.2715
     24  CB      -105.3990 -199.5360   29.8530 C.3    32  TYR32       0.0574
     25  CG      -104.5190 -198.3110   29.8420 C.ar   32  TYR32      -0.0198
     26  CD1     -103.8820 -197.8850   30.9970 C.ar   32  TYR32      -0.0009
     27  CD2     -104.3280 -197.5780   28.6780 C.ar   32  TYR32      -0.0009
     28  CE1     -103.0780 -196.7660   30.9960 C.ar   32  TYR32       0.0417
     29  CE2     -103.5250 -196.4550   28.6670 C.ar   32  TYR32       0.0417
     30  CZ      -102.9010 -196.0540   29.8310 C.ar   32  TYR32       0.1957
     31  OH      -102.0980 -194.9380   29.8420 O.3    32  TYR32      -0.2866
     32  N       -105.7900 -202.2310   31.3500 N.am   33  HIS33      -0.1973
     33  CA      -106.6980 -203.2720   31.8160 C.3    33  HIS33       0.1656
     34  C       -108.1500 -202.8620   31.6210 C.2    33  HIS33       0.2291
     35  O       -108.4500 -201.7080   31.3150 O.2    33  HIS33      -0.2864
     36  CB      -106.4470 -203.5890   33.2940 C.3    33  HIS33       0.0771
     37  CG      -105.0510 -204.0420   33.5910 C.ar   33  HIS33       0.0820
     38  ND1     -104.0470 -203.1680   33.9480 N.ar   33  HIS33      -0.2267
     39  CD2     -104.4940 -205.2770   33.5860 C.ar   33  HIS33       0.1154
     40  CE1     -102.9310 -203.8460   34.1510 C.ar   33  HIS33       0.1986
     41  NE2     -103.1740 -205.1270   33.9370 N.ar   33  HIS33      -0.2212
     42  N       -110.5440 -208.0440   36.7150 N.3    50  TRP50      -0.1241
     43  CA      -109.8840 -207.4140   35.5730 C.3    50  TRP50       0.1605
     44  C       -109.1290 -208.4170   34.6990 C.2    50  TRP50       0.2264
     45  O       -108.8760 -209.5540   35.1020 O.2    50  TRP50      -0.2867
     46  CB      -108.9330 -206.2910   36.0270 C.3    50  TRP50       0.0550
     47  CG      -107.8490 -206.6600   37.0160 C.ar   50  TRP50       0.0003
     48  CD1     -107.8130 -206.3450   38.3450 C.ar   50  TRP50       0.0946
     49  CD2     -106.6250 -207.3590   36.7400 C.ar   50  TRP50       0.0152
     50  NE1     -106.6600 -206.8250   38.9160 N.ar   50  TRP50      -0.2442
     51  CE2     -105.9130 -207.4500   37.9530 C.ar   50  TRP50       0.0810
     52  CE3     -106.0700 -207.9290   35.5890 C.ar   50  TRP50       0.0012
     53  CZ2     -104.6770 -208.0900   38.0490 C.ar   50  TRP50       0.0191
     54  CZ3     -104.8430 -208.5640   35.6860 C.ar   50  TRP50       0.0001
     55  CH2     -104.1600 -208.6380   36.9070 C.ar   50  TRP50       0.0015
     56  N       -106.0200 -208.5200   31.2610 N.3    52  SER52      -0.1203
     57  CA      -105.0880 -207.8440   30.3640 C.3    52  SER52       0.2005
     58  C       -105.3770 -208.2000   28.9100 C.2    52  SER52       0.2461
     59  O       -105.3580 -209.3740   28.5350 O.2    52  SER52      -0.2732
     60  CB      -103.6430 -208.2040   30.7180 C.3    52  SER52       0.2103
     61  OG      -102.7300 -207.6940   29.7610 O.3    52  SER52      -0.2182
     62  N       -105.6470 -207.1840   28.0820 N.am   53  PRO53      -0.2717
     63  CA      -105.8900 -207.3930   26.6540 C.3    53  PRO53       0.1535
     64  C       -104.5940 -207.6550   25.8890 C.2    53  PRO53       0.2599
     65  O       -104.6340 -207.9410   24.6940 O.2    53  PRO53      -0.2715
     66  CB      -106.5290 -206.0780   26.2160 C.3    53  PRO53       0.0310
     67  CG      -105.9310 -205.0710   27.1320 C.3    53  PRO53       0.0237
     68  CD      -105.7630 -205.7630   28.4570 C.3    53  PRO53       0.0939
     69  N       -103.4590 -207.5560   26.5780 N.am   54  TYR54      -0.1960
     70  CA      -102.1640 -207.8080   25.9630 C.3    54  TYR54       0.1771
     71  C       -101.6190 -209.1820   26.3380 C.2    54  TYR54       0.2620
     72  O       -101.1580 -209.9320   25.4800 O.2    54  TYR54      -0.2715
     73  CB      -101.1570 -206.7250   26.3660 C.3    54  TYR54       0.0574
     74  CG       -99.7310 -207.0880   26.0180 C.ar   54  TYR54      -0.0198
     75  CD1      -99.2530 -206.9360   24.7240 C.ar   54  TYR54      -0.0009
     76  CD2      -98.8670 -207.5940   26.9810 C.ar   54  TYR54      -0.0009
     77  CE1      -97.9580 -207.2760   24.3990 C.ar   54  TYR54       0.0417
     78  CE2      -97.5730 -207.9390   26.6650 C.ar   54  TYR54       0.0417
     79  CZ       -97.1210 -207.7780   25.3720 C.ar   54  TYR54       0.1957
     80  OH       -95.8280 -208.1190   25.0530 O.3    54  TYR54      -0.2866
     81  N       -101.6600 -209.5020   27.6270 N.am   55  SER55      -0.1950
     82  CA      -101.0230 -210.7150   28.1270 C.3    55  SER55       0.1924
     83  C       -102.0320 -211.8240   28.4270 C.2    55  SER55       0.2314
     84  O       -101.6480 -212.9630   28.6900 O.2    55  SER55      -0.2863
     85  CB      -100.1900 -210.3970   29.3760 C.3    55  SER55       0.2116
     86  OG      -100.7350 -209.3140   30.1140 O.3    55  SER55      -0.2180
     87  N       -103.7370 -212.3580   30.9350 N.3    57  ASP57      -0.1225
     88  CA      -103.7700 -212.7580   32.3390 C.3    57  ASP57       0.1805
     89  C       -104.9960 -212.1750   33.0210 C.2    57  ASP57       0.2598
     90  O       -105.3960 -211.0480   32.7340 O.2    57  ASP57      -0.2718
     91  CB      -102.4970 -212.3190   33.0730 C.3    57  ASP57       0.1424
     92  CG      -101.3990 -213.3640   33.0160 C.2    57  ASP57       0.3668
     93  OD1     -101.2540 -214.0200   31.9630 O.co2  57  ASP57      -0.2456
     94  OD2     -100.6870 -213.5360   34.0300 O.co2  57  ASP57      -0.2456
     95  N       -105.5910 -212.9460   33.9260 N.am   58  LYS58      -0.1966
     96  CA      -106.7900 -212.5110   34.6280 C.3    58  LYS58       0.1728
     97  C       -106.6260 -212.6010   36.1370 C.2    58  LYS58       0.2616
     98  O       -105.6220 -213.1110   36.6360 O.2    58  LYS58      -0.2715
     99  CB      -107.9920 -213.3550   34.1980 C.3    58  LYS58       0.0311
    100  CG      -108.2280 -213.3860   32.6990 C.3    58  LYS58       0.0038
    101  CD      -109.3040 -214.3980   32.3260 C.3    58  LYS58       0.0206
    102  CE      -108.8780 -215.2310   31.1250 C.3    58  LYS58       0.1093
    103  NZ      -109.9300 -216.1980   30.6990 N.3    58  LYS58      -0.1314
    104  N       -107.6240 -212.0970   36.8550 N.am   59  ASN59      -0.1958
    105  CA      -107.7030 -212.2560   38.3000 C.3    59  ASN59       0.1819
    106  C       -109.1410 -212.0760   38.7680 C.2    59  ASN59       0.2621
    107  O       -109.5110 -211.0300   39.3050 O.2    59  ASN59      -0.2715
    108  CB      -106.7810 -211.2720   39.0170 C.3    59  ASN59       0.1195
    109  CG      -106.2570 -211.8180   40.3330 C.2    59  ASN59       0.2630
    110  OD1     -105.1240 -211.5390   40.7240 O.2    59  ASN59      -0.2716
    111  ND2     -107.0760 -212.6130   41.0130 N.am   59  ASN59      -0.0877
    112  N       -109.9460 -213.1110   38.5530 N.am   60  LEU60      -0.1977
    113  CA      -111.3660 -213.0710   38.8690 C.3    60  LEU60       0.1596
    114  C       -111.5940 -213.1320   40.3700 C.2    60  LEU60       0.2287
    115  O       -110.7250 -213.5680   41.1260 O.2    60  LEU60      -0.2864
    116  CB      -112.1060 -214.2300   38.1880 C.3    60  LEU60       0.0297
    117  CG      -112.4560 -214.1550   36.6970 C.3    60  LEU60       0.0022
    118  CD1     -111.2180 -214.0790   35.8080 C.3    60  LEU60       0.0001
    119  CD2     -113.3210 -215.3460   36.3070 C.3    60  LEU60       0.0001
    120  N       -115.5270 -216.9980   40.2110 N.3    65  GLN65      -0.1245
    121  CA      -114.4200 -217.5870   39.4580 C.3    65  GLN65       0.1566
    122  C       -114.8880 -218.6970   38.5220 C.2    65  GLN65       0.2260
    123  O       -114.5470 -218.7100   37.3400 O.2    65  GLN65      -0.2867
    124  CB      -113.3520 -218.1340   40.4100 C.3    65  GLN65       0.0367
    125  CG      -112.0950 -217.2810   40.5040 C.3    65  GLN65       0.0905
    126  CD      -111.0430 -217.8930   41.4090 C.2    65  GLN65       0.2608
    127  OE1     -111.3370 -218.7830   42.2080 O.2    65  GLN65      -0.2717
    128  NE2     -109.8080 -217.4210   41.2860 N.am   65  GLN65      -0.0878
    129  N        -99.8860 -198.1060   32.8990 N.3   110  ARG110     -0.1231
    130  CA       -99.3860 -199.2540   32.1530 C.3   110  ARG110      0.1694
    131  C        -98.4300 -200.0530   33.0280 C.2   110  ARG110      0.2592
    132  O        -98.1210 -201.2110   32.7450 O.2   110  ARG110     -0.2718
    133  CB       -98.6780 -198.8090   30.8720 C.3   110  ARG110      0.0321
    134  CG       -99.5550 -198.0350   29.8960 C.3   110  ARG110      0.0489
    135  CD       -98.7510 -197.5770   28.6840 C.3   110  ARG110      0.2205
    136  NE       -98.3030 -198.6970   27.8610 N.pl3 110  ARG110     -0.0865
    137  CZ       -97.3530 -198.6130   26.9340 C.cat 110  ARG110      0.5346
    138  NH1      -96.7360 -197.4590   26.7110 N.pl3 110  ARG110      0.1354
    139  NH2      -97.0160 -199.6850   26.2310 N.pl3 110  ARG110      0.1354
    140  N        -97.9680 -199.4150   34.0970 N.am  111  ASP111     -0.1960
    141  CA       -96.9920 -200.0050   34.9980 C.3   111  ASP111      0.1840
    142  C        -97.0440 -199.2820   36.3350 C.2   111  ASP111      0.2623
    143  O        -97.3790 -198.0980   36.3920 O.2   111  ASP111     -0.2715
    144  CB       -95.5880 -199.9280   34.3910 C.3   111  ASP111      0.1450
    145  CG       -94.5080 -200.3980   35.3430 C.2   111  ASP111      0.3671
    146  OD1      -94.7940 -201.2980   36.1650 O.co2 111  ASP111     -0.2456
    147  OD2      -93.3740 -199.8750   35.2620 O.co2 111  ASP111     -0.2456
    148  N        -96.7300 -199.9990   37.4100 N.am  112  GLY112     -0.1940
    149  CA       -96.6760 -199.4030   38.7330 C.3   112  GLY112      0.2014
    150  C        -97.5040 -200.1140   39.7840 C.2   112  GLY112      0.2639
    151  O        -97.9190 -201.2580   39.6000 O.2   112  GLY112     -0.2714
    152  N        -97.7400 -199.4310   40.8970 N.am  113  SER113     -0.1949
    153  CA       -98.5250 -199.9930   41.9870 C.3   113  SER113      0.1924
    154  C        -99.9880 -200.0950   41.5920 C.2   113  SER113      0.2314
    155  O       -100.5970 -201.1600   41.6950 O.2   113  SER113     -0.2863
    156  CB       -98.3860 -199.1390   43.2460 C.3   113  SER113      0.2116
    157  OG       -99.0490 -197.8930   43.0890 O.3   113  SER113     -0.2180
    158  N       -101.5870 -200.2570   38.7930 N.3   115  THR115     -0.1203
    159  CA      -101.6830 -200.6140   37.3830 C.3   115  THR115      0.1994
    160  C       -103.1310 -200.8050   36.9450 C.2   115  THR115      0.2617
    161  O       -103.6330 -200.0830   36.0840 O.2   115  THR115     -0.2717
    162  CB      -100.9040 -201.9140   37.0780 C.3   115  THR115      0.1784
    163  OG1     -100.1590 -202.3210   38.2340 O.3   115  THR115     -0.2211
    164  CG2      -99.9640 -201.7150   35.9150 C.3   115  THR115      0.0376
    165  N       -103.8010 -201.7710   37.5580 N.am  116  TRP116     -0.1975
    166  CA      -105.1260 -202.1810   37.1150 C.3   116  TRP116      0.1640
    167  C       -106.2560 -201.2760   37.5950 C.2   116  TRP116      0.2290
    168  O       -107.2950 -201.1880   36.9420 O.2   116  TRP116     -0.2864
    169  CB      -105.4000 -203.6120   37.5710 C.3   116  TRP116      0.0576
    170  CG      -105.2990 -203.8110   39.0510 C.ar  116  TRP116      0.0006
    171  CD1     -104.1950 -204.1980   39.7560 C.ar  116  TRP116      0.0946
    172  CD2     -106.3490 -203.6490   40.0090 C.ar  116  TRP116      0.0152
    173  NE1     -104.4950 -204.2860   41.0940 N.ar  116  TRP116     -0.2442
    174  CE2     -105.8120 -203.9550   41.2740 C.ar  116  TRP116      0.0810
    175  CE3     -107.6940 -203.2770   39.9190 C.ar  116  TRP116      0.0012
    176  CZ2     -106.5710 -203.8990   42.4380 C.ar  116  TRP116      0.0191
    177  CZ3     -108.4440 -203.2210   41.0750 C.ar  116  TRP116      0.0001
    178  CH2     -107.8820 -203.5320   42.3180 C.ar  116  TRP116      0.0015
@<TRIPOS>BOND
     1     8     6   am
     2     6     7    2
     3     6     5    1
     4    19    17   ar
     5    19    18   ar
     6     5     2    1
     7    17    15   ar
     8    18    16   ar
     9     1     2    1
    10    77    75   ar
    11    77    79   ar
    12     2     3    1
    13    65    64    2
    14    75    74   ar
    15    15    14   ar
    16    80    79    1
    17    16    14   ar
    18    79    78   ar
    19    14    13    1
    20    72    71    2
    21     3     9   am
    22     3     4    2
    23     9    10    1
    24    64    69   am
    25    64    63    1
    26    70    71    1
    27    70    73    1
    28    70    69    1
    29    74    73    1
    30    74    76   ar
    31    66    63    1
    32    66    67    1
    33   139   137    1
    34    71    81   am
    35    13    10    1
    36    63    62    1
    37    78    76   ar
    38   138   137    1
    39    10    11    1
    40   137   136    2
    41    67    68    1
    42    81    82    1
    43   136   135    1
    44    62    68    1
    45    62    58   am
    46    82    83    1
    47    82    85    1
    48    11    20   am
    49    11    12    2
    50    83    84    2
    51    20    21    1
    52    59    58    2
    53    29    27   ar
    54    29    30   ar
    55    27    25   ar
    56   135   134    1
    57    58    57    1
    58    23    22    2
    59    85    86    1
    60    21    24    1
    61    21    22    1
    62    61    60    1
    63    30    31    1
    64    30    28   ar
    65    25    24    1
    66    25    26   ar
    67   134   133    1
    68    22    32   am
    69    57    60    1
    70    57    56    1
    71   103   102    1
    72   133   130    1
    73    87    88    1
    74    28    26   ar
    75   102   101    1
    76    35    34    2
    77    32    33    1
    78    34    33    1
    79    33    36    1
    80    93    92   ar
    81   130   129    1
    82   130   131    1
    83   101   100    1
    84    88    89    1
    85    88    91    1
    86   100    99    1
    87    90    89    2
    88   132   131    2
    89    92    91    1
    90    92    94   ar
    91    89    95   am
    92   131   140   am
    93    36    37    1
    94    39    37   ar
    95    39    41   ar
    96    37    38   ar
    97    95    96    1
    98    41    40   ar
    99    38    40   ar
   100   140   141    1
   101    99    96    1
   102   144   141    1
   103   144   145    1
   104    96    97    1
   105    44    45    2
   106    44    43    1
   107   141   142    1
   108   147   145   ar
   109   145   146   ar
   110    43    46    1
   111    43    42    1
   112    52    54   ar
   113    52    49   ar
   114    54    55   ar
   115   118   117    1
   116   164   162    1
   117    46    47    1
   118   161   160    2
   119    97    98    2
   120    97   104   am
   121   119   117    1
   122   142   143    2
   123   142   148   am
   124   117   116    1
   125    49    47   ar
   126    49    51   ar
   127   104   105    1
   128    55    53   ar
   129   168   167    2
   130   160   159    1
   131   160   165   am
   132    47    48   ar
   133   162   159    1
   134   162   163    1
   135   166   165    1
   136   166   169    1
   137   166   167    1
   138   123   122    2
   139   159   158    1
   140   148   149    1
   141   169   170    1
   142    51    53   ar
   143    51    50   ar
   144   116   113    1
   145   105   106    1
   146   105   108    1
   147    48    50   ar
   148   122   121    1
   149   112   106   am
   150   112   113    1
   151   149   150    1
   152   106   107    2
   153   113   114    1
   154   108   109    1
   155   170   171   ar
   156   170   172   ar
   157   121   120    1
   158   121   124    1
   159   151   150    2
   160   171   173   ar
   161   150   152   am
   162   175   172   ar
   163   175   177   ar
   164   172   174   ar
   165   109   110    2
   166   109   111   am
   167   114   115    2
   168   124   125    1
   169   125   126    1
   170   152   153    1
   171   177   178   ar
   172   173   174   ar
   173   174   176   ar
   174   128   126   am
   175   126   127    2
   176   154   155    2
   177   154   153    1
   178   153   156    1
   179   178   176   ar
   180   157   156    1
