@<TRIPOS>MOLECULE
tmp/5fykB00.pdb
 106 103 0 0 0
SMALL
GASTEIGER

@<TRIPOS>ATOM
      1  N       -108.6980 -188.5860   27.7880 N.3     1  GLN1       -0.1245
      2  CA      -108.6460 -188.1830   26.3870 C.3     1  GLN1        0.1566
      3  C       -109.4920 -189.0890   25.4880 C.2     1  GLN1        0.2260
      4  O       -109.5940 -188.8580   24.2830 O.2     1  GLN1       -0.2867
      5  CB      -107.2000 -188.1700   25.8930 C.3     1  GLN1        0.0367
      6  CG      -106.3530 -187.0590   26.4820 C.3     1  GLN1        0.0905
      7  CD      -105.0560 -186.8800   25.7270 C.2     1  GLN1        0.2608
      8  OE1     -104.0250 -187.4320   26.1050 O.2     1  GLN1       -0.2717
      9  NE2     -105.1040 -186.1150   24.6420 N.am    1  GLN1       -0.0878
     10  N       -107.8820 -194.2130   22.9490 N.3    27  TYR27      -0.1227
     11  CA      -106.7310 -194.7300   23.6830 C.3    27  TYR27       0.1736
     12  C       -106.3420 -196.1370   23.2370 C.2    27  TYR27       0.2595
     13  O       -107.1440 -196.8590   22.6400 O.2    27  TYR27      -0.2718
     14  CB      -107.0070 -194.7120   25.1890 C.3    27  TYR27       0.0548
     15  CG      -107.5750 -195.9910   25.7720 C.ar   27  TYR27      -0.0200
     16  CD1     -108.9440 -196.2230   25.8010 C.ar   27  TYR27      -0.0009
     17  CD2     -106.7380 -196.9500   26.3280 C.ar   27  TYR27      -0.0009
     18  CE1     -109.4590 -197.3840   26.3540 C.ar   27  TYR27       0.0417
     19  CE2     -107.2420 -198.1070   26.8770 C.ar   27  TYR27       0.0417
     20  CZ      -108.5990 -198.3210   26.8890 C.ar   27  TYR27       0.1957
     21  OH      -109.0820 -199.4820   27.4450 O.3    27  TYR27      -0.2866
     22  N       -105.1020 -196.5180   23.5320 N.am   28  ARG28      -0.1980
     23  CA      -104.6120 -197.8440   23.1740 C.3    28  ARG28       0.1597
     24  C       -105.2090 -198.9070   24.0770 C.2    28  ARG28       0.2287
     25  O       -104.7440 -199.1150   25.1960 O.2    28  ARG28      -0.2864
     26  CB      -103.0880 -197.9080   23.2440 C.3    28  ARG28       0.0334
     27  CG      -102.3960 -197.2450   22.0760 C.3    28  ARG28       0.0492
     28  CD      -102.6230 -198.0110   20.7880 C.3    28  ARG28       0.2205
     29  NE      -102.0080 -199.3370   20.8040 N.pl3  28  ARG28      -0.0865
     30  CZ      -100.7320 -199.5750   20.5080 C.cat  28  ARG28       0.5346
     31  NH1      -99.9230 -198.5740   20.1860 N.pl3  28  ARG28       0.1354
     32  NH2     -100.2610 -200.8150   20.5390 N.pl3  28  ARG28       0.1354
     33  N       -103.0110 -201.3160   25.8880 N.3    31  PHE31      -0.1227
     34  CA      -102.1140 -200.7560   26.8930 C.3    31  PHE31       0.1736
     35  C       -102.6840 -200.7820   28.3110 C.2    31  PHE31       0.2595
     36  O       -101.9410 -200.6430   29.2820 O.2    31  PHE31      -0.2718
     37  CB      -101.7370 -199.3160   26.5330 C.3    31  PHE31       0.0547
     38  CG      -100.6940 -199.2030   25.4560 C.ar   31  PHE31      -0.0202
     39  CD1     -100.2040 -200.3340   24.8260 C.ar   31  PHE31      -0.0042
     40  CD2     -100.1920 -197.9670   25.0850 C.ar   31  PHE31      -0.0042
     41  CE1      -99.2470 -200.2350   23.8360 C.ar   31  PHE31      -0.0003
     42  CE2      -99.2340 -197.8610   24.0940 C.ar   31  PHE31      -0.0003
     43  CZ       -98.7600 -198.9960   23.4690 C.ar   31  PHE31      -0.0000
     44  N       -103.9950 -200.9560   28.4390 N.am   32  TYR32      -0.1976
     45  CA      -104.6290 -200.8520   29.7470 C.3    32  TYR32       0.1639
     46  C       -105.5660 -202.0060   30.0580 C.2    32  TYR32       0.2290
     47  O       -106.0780 -202.6670   29.1540 O.2    32  TYR32      -0.2864
     48  CB      -105.3990 -199.5360   29.8530 C.3    32  TYR32       0.0560
     49  CG      -104.5190 -198.3110   29.8420 C.ar   32  TYR32      -0.0198
     50  CD1     -103.8820 -197.8850   30.9970 C.ar   32  TYR32      -0.0009
     51  CD2     -104.3280 -197.5780   28.6780 C.ar   32  TYR32      -0.0009
     52  CE1     -103.0780 -196.7660   30.9960 C.ar   32  TYR32       0.0417
     53  CE2     -103.5250 -196.4550   28.6670 C.ar   32  TYR32       0.0417
     54  CZ      -102.9010 -196.0540   29.8310 C.ar   32  TYR32       0.1957
     55  OH      -102.0980 -194.9380   29.8420 O.3    32  TYR32      -0.2866
     56  N       -101.0590 -193.6370   17.8130 N.3    81  PHE81      -0.1241
     57  CA      -101.1240 -193.5320   19.2710 C.3    81  PHE81       0.1605
     58  C       -102.4690 -193.9650   19.8720 C.2    81  PHE81       0.2264
     59  O       -102.5610 -194.2010   21.0760 O.2    81  PHE81      -0.2867
     60  CB      -100.8160 -192.0950   19.7070 C.3    81  PHE81       0.0534
     61  CG       -99.3460 -191.7670   19.7330 C.ar   81  PHE81      -0.0203
     62  CD1      -98.5510 -192.1760   20.7930 C.ar   81  PHE81      -0.0042
     63  CD2      -98.7590 -191.0500   18.7020 C.ar   81  PHE81      -0.0042
     64  CE1      -97.1990 -191.8800   20.8220 C.ar   81  PHE81      -0.0003
     65  CE2      -97.4060 -190.7480   18.7280 C.ar   81  PHE81      -0.0003
     66  CZ       -96.6270 -191.1650   19.7900 C.ar   81  PHE81      -0.0000
     67  N       -111.5700 -198.7400   32.3940 N.3   106  LYS106     -0.1245
     68  CA      -110.1830 -198.8270   31.9620 C.3   106  LYS106      0.1561
     69  C       -109.2290 -198.5030   33.1150 C.2   106  LYS106      0.2260
     70  O       -109.5330 -197.6660   33.9660 O.2   106  LYS106     -0.2867
     71  CB      -109.9570 -197.8850   30.7710 C.3   106  LYS106      0.0271
     72  CG      -108.5220 -197.4340   30.5400 C.3   106  LYS106      0.0035
     73  CD      -108.4150 -195.9190   30.5840 C.3   106  LYS106      0.0206
     74  CE      -107.0150 -195.4620   30.2360 C.3   106  LYS106      0.1093
     75  NZ      -106.9390 -193.9800   30.1980 N.3   106  LYS106     -0.1314
     76  N       -105.5530 -197.3980   35.1550 N.3   108  LEU108     -0.1245
     77  CA      -104.9600 -196.0910   35.4100 C.3   108  LEU108      0.1561
     78  C       -103.5790 -195.9520   34.7720 C.2   108  LEU108      0.2260
     79  O       -103.2760 -194.9320   34.1530 O.2   108  LEU108     -0.2867
     80  CB      -104.8700 -195.8500   36.9190 C.3   108  LEU108      0.0270
     81  CG      -104.2210 -194.5740   37.4530 C.3   108  LEU108      0.0019
     82  CD1     -105.0330 -193.3520   37.0750 C.3   108  LEU108      0.0001
     83  CD2     -104.0700 -194.6670   38.9600 C.3   108  LEU108      0.0001
     84  N        -99.8860 -198.1060   32.8990 N.3   110  ARG110     -0.1245
     85  CA       -99.3860 -199.2540   32.1530 C.3   110  ARG110      0.1563
     86  C        -98.4300 -200.0530   33.0280 C.2   110  ARG110      0.2260
     87  O        -98.1210 -201.2110   32.7450 O.2   110  ARG110     -0.2867
     88  CB       -98.6780 -198.8090   30.8720 C.3   110  ARG110      0.0307
     89  CG       -99.5550 -198.0350   29.8960 C.3   110  ARG110      0.0489
     90  CD       -98.7510 -197.5770   28.6840 C.3   110  ARG110      0.2205
     91  NE       -98.3030 -198.6970   27.8610 N.pl3 110  ARG110     -0.0865
     92  CZ       -97.3530 -198.6130   26.9340 C.cat 110  ARG110      0.5346
     93  NH1      -96.7360 -197.4590   26.7110 N.pl3 110  ARG110      0.1354
     94  NH2      -97.0160 -199.6850   26.2310 N.pl3 110  ARG110      0.1354
     95  N       -109.3780 -195.7490   36.1040 N.3   119  TYR119     -0.1241
     96  CA      -109.4030 -194.2930   36.0440 C.3   119  TYR119      0.1605
     97  C       -110.6310 -193.8120   35.2820 C.2   119  TYR119      0.2264
     98  O       -111.4150 -193.0130   35.7930 O.2   119  TYR119     -0.2867
     99  CB      -108.1270 -193.7540   35.3880 C.3   119  TYR119      0.0534
    100  CG      -108.0880 -192.2440   35.2250 C.ar  119  TYR119     -0.0201
    101  CD1     -108.5100 -191.3990   36.2480 C.ar  119  TYR119     -0.0009
    102  CD2     -107.6040 -191.6620   34.0570 C.ar  119  TYR119     -0.0009
    103  CE1     -108.4730 -190.0150   36.1030 C.ar  119  TYR119      0.0417
    104  CE2     -107.5610 -190.2790   33.9040 C.ar  119  TYR119      0.0417
    105  CZ      -107.9960 -189.4600   34.9300 C.ar  119  TYR119      0.1957
    106  OH      -107.9560 -188.0870   34.7860 O.3   119  TYR119     -0.2866
@<TRIPOS>BOND
     1    56    57    1
     2    63    65   ar
     3    63    61   ar
     4    65    66   ar
     5    57    60    1
     6    57    58    1
     7    60    61    1
     8    61    62   ar
     9    66    64   ar
    10    58    59    2
    11    31    30    1
    12    30    32    1
    13    30    29    2
    14    28    29    1
    15    28    27    1
    16    62    64   ar
    17    27    26    1
    18    13    12    2
    19    10    11    1
    20    23    26    1
    21    23    22    1
    22    23    24    1
    23    12    22   am
    24    12    11    1
    25    43    41   ar
    26    43    42   ar
    27    11    14    1
    28    41    39   ar
    29    24    25    2
    30    42    40   ar
    31     4     3    2
    32     9     7   am
    33    39    38   ar
    34    40    38   ar
    35    14    15    1
    36    38    37    1
    37     3     2    1
    38     7     8    2
    39     7     6    1
    40    15    16   ar
    41    15    17   ar
    42    16    18   ar
    43    33    34    1
    44     5     2    1
    45     5     6    1
    46    94    92    1
    47    17    19   ar
    48    18    20   ar
    49     2     1    1
    50    37    34    1
    51    93    92    1
    52    19    20   ar
    53    20    21    1
    54    34    35    1
    55    92    91    2
    56    91    90    1
    57    35    44   am
    58    35    36    2
    59    44    45    1
    60    53    51   ar
    61    53    54   ar
    62    51    49   ar
    63    90    89    1
    64    47    46    2
    65    45    48    1
    66    45    46    1
    67    54    55    1
    68    54    52   ar
    69    49    48    1
    70    49    50   ar
    71    89    88    1
    72    75    74    1
    73    74    73    1
    74    72    73    1
    75    72    71    1
    76    71    68    1
    77    88    85    1
    78    52    50   ar
    79    68    67    1
    80    68    69    1
    81    85    84    1
    82    85    86    1
    83    87    86    2
    84    69    70    2
    85   104   102   ar
    86   104   105   ar
    87   102   100   ar
    88    79    78    2
    89    78    77    1
    90   106   105    1
    91   105   103   ar
    92    76    77    1
    93   100    99    1
    94   100   101   ar
    95    97    98    2
    96    97    96    1
    97    99    96    1
    98    77    80    1
    99    96    95    1
   100   103   101   ar
   101    80    81    1
   102    82    81    1
   103    81    83    1
