@<TRIPOS>MOLECULE
tmp/5fykD01.pdb
 92 87 0 0 0
SMALL
GASTEIGER

@<TRIPOS>ATOM
      1  N       -114.1900 -205.9670   -6.2710 N.3   306  ARG306     -0.1245
      2  CA      -115.5540 -205.6360   -5.8610 C.3   306  ARG306      0.1563
      3  C       -115.6380 -205.1340   -4.4280 C.2   306  ARG306      0.2260
      4  O       -116.7040 -204.6830   -3.9880 O.2   306  ARG306     -0.2867
      5  CB      -116.4630 -206.8560   -5.9970 C.3   306  ARG306      0.0307
      6  CG      -116.9990 -207.1030   -7.3760 C.3   306  ARG306      0.0489
      7  CD      -118.1370 -208.0980   -7.2920 C.3   306  ARG306      0.2205
      8  NE      -118.6000 -208.5840   -8.5880 N.pl3 306  ARG306     -0.0865
      9  CZ      -119.6140 -209.4300   -8.7280 C.cat 306  ARG306      0.5346
     10  NH1     -120.2550 -209.8650   -7.6530 N.pl3 306  ARG306      0.1354
     11  NH2     -119.9910 -209.8400   -9.9320 N.pl3 306  ARG306      0.1354
     12  N       -118.2780 -201.1560   -5.9020 N.3   310  GLU310     -0.1231
     13  CA      -119.5730 -201.6770   -5.5380 C.3   310  GLU310      0.1699
     14  C       -119.6550 -203.0420   -6.1640 C.2   310  GLU310      0.2592
     15  O       -118.8610 -203.3650   -7.0520 O.2   310  GLU310     -0.2718
     16  CB      -120.6900 -200.7620   -6.0250 C.3   310  GLU310      0.0402
     17  CG      -120.4500 -199.3050   -5.6880 C.3   310  GLU310      0.1161
     18  CD      -121.6680 -198.6170   -5.1100 C.2   310  GLU310      0.3649
     19  OE1     -122.6870 -198.5200   -5.8170 O.co2 310  GLU310     -0.2457
     20  OE2     -121.6100 -198.1800   -3.9430 O.co2 310  GLU310     -0.2457
     21  N       -120.6030 -203.8490   -5.7070 N.am  311  ASN311     -0.1960
     22  CA      -120.7360 -205.2050   -6.2120 C.3   311  ASN311      0.1819
     23  C       -121.0900 -205.2260   -7.6970 C.2   311  ASN311      0.2621
     24  O       -121.2990 -206.2900   -8.2790 O.2   311  ASN311     -0.2715
     25  CB      -121.7720 -205.9750   -5.3930 C.3   311  ASN311      0.1195
     26  CG      -121.1360 -206.8830   -4.3530 C.2   311  ASN311      0.2630
     27  OD1     -120.2010 -206.4930   -3.6560 O.2   311  ASN311     -0.2716
     28  ND2     -121.6430 -208.1090   -4.2510 N.am  311  ASN311     -0.0877
     29  N       -121.1510 -204.0430   -8.3000 N.am  312  LYS312     -0.1963
     30  CA      -121.3760 -203.8910   -9.7300 C.3   312  LYS312      0.1728
     31  C       -120.3710 -204.7060  -10.5460 C.2   312  LYS312      0.2616
     32  O       -119.1910 -204.7650  -10.2070 O.2   312  LYS312     -0.2715
     33  CB      -121.2980 -202.4100  -10.1090 C.3   312  LYS312      0.0311
     34  CG      -120.1070 -201.6860   -9.5000 C.3   312  LYS312      0.0038
     35  CD      -120.2260 -200.1760   -9.6540 C.3   312  LYS312      0.0206
     36  CE      -119.0530 -199.4370   -9.0120 C.3   312  LYS312      0.1093
     37  NZ      -119.2640 -197.9580   -9.0180 N.3   312  LYS312     -0.1314
     38  N       -120.8550 -205.3330  -11.6170 N.am  313  THR313     -0.1951
     39  CA      -120.0510 -206.2240  -12.4560 C.3   313  THR313      0.1897
     40  C       -118.8680 -205.4980  -13.0920 C.2   313  THR313      0.2313
     41  O       -118.9330 -204.2960  -13.3530 O.2   313  THR313     -0.2863
     42  CB      -120.9160 -206.8740  -13.5630 C.3   313  THR313      0.1794
     43  OG1     -120.1370 -207.8190  -14.3070 O.3   313  THR313     -0.2208
     44  CG2     -121.4730 -205.8210  -14.5110 C.3   313  THR313      0.0378
     45  N       -119.1170 -211.4070  -13.7740 N.3   351  ASN351     -0.1225
     46  CA      -120.4040 -211.1560  -13.1440 C.3   351  ASN351      0.1785
     47  C       -120.6940 -212.1430  -12.0300 C.2   351  ASN351      0.2597
     48  O       -119.8060 -212.8760  -11.5960 O.2   351  ASN351     -0.2718
     49  CB      -121.5050 -211.2560  -14.1990 C.3   351  ASN351      0.1169
     50  CG      -121.5900 -212.6350  -14.8140 C.2   351  ASN351      0.2627
     51  OD1     -122.1710 -213.5510  -14.2350 O.2   351  ASN351     -0.2716
     52  ND2     -120.9730 -212.7980  -15.9780 N.am  351  ASN351     -0.0877
     53  N       -121.9420 -212.1450  -11.5740 N.am  352  ASN352     -0.1960
     54  CA      -122.4100 -213.1270  -10.6040 C.3   352  ASN352      0.1819
     55  C       -123.5450 -213.9690  -11.1890 C.2   352  ASN352      0.2621
     56  O       -123.4490 -215.1950  -11.2640 O.2   352  ASN352     -0.2715
     57  CB      -122.8650 -212.4430   -9.3010 C.3   352  ASN352      0.1195
     58  CG      -123.6770 -211.1810   -9.5400 C.2   352  ASN352      0.2630
     59  OD1     -124.0660 -210.8770  -10.6700 O.2   352  ASN352     -0.2716
     60  ND2     -123.9400 -210.4380   -8.4660 N.am  352  ASN352     -0.0877
     61  N       -124.6150 -213.3080  -11.6280 N.am  353  ASN353     -0.1972
     62  CA      -125.7770 -214.0140  -12.1600 C.3   353  ASN353      0.1688
     63  C       -125.8970 -213.9100  -13.6780 C.2   353  ASN353      0.2292
     64  O       -124.9340 -213.5850  -14.3720 O.2   353  ASN353     -0.2864
     65  CB      -127.0560 -213.4900  -11.5060 C.3   353  ASN353      0.1181
     66  CG      -127.3240 -214.1110  -10.1480 C.2   353  ASN353      0.2629
     67  OD1     -127.2990 -213.4320   -9.1210 O.2   353  ASN353     -0.2716
     68  ND2     -127.5910 -215.4120  -10.1390 N.am  353  ASN353     -0.0877
     69  N       -123.8000 -196.3460  -17.9970 N.3   405  GLU405     -0.1231
     70  CA      -124.9660 -197.1240  -17.5980 C.3   405  GLU405      0.1699
     71  C       -124.6710 -198.6060  -17.7470 C.2   405  GLU405      0.2592
     72  O       -124.6810 -199.3490  -16.7680 O.2   405  GLU405     -0.2718
     73  CB      -126.1970 -196.7500  -18.4220 C.3   405  GLU405      0.0402
     74  CG      -127.4750 -197.3790  -17.8870 C.3   405  GLU405      0.1161
     75  CD      -128.4420 -197.7980  -18.9800 C.2   405  GLU405      0.3649
     76  OE1     -128.3290 -197.2840  -20.1140 O.co2 405  GLU405     -0.2457
     77  OE2     -129.3200 -198.6410  -18.6980 O.co2 405  GLU405     -0.2457
     78  N       -124.4100 -199.0320  -18.9770 N.am  406  ASN406     -0.1974
     79  CA      -123.9420 -200.3840  -19.2180 C.3   406  ASN406      0.1688
     80  C       -122.5920 -200.5350  -18.5280 C.2   406  ASN406      0.2292
     81  O       -122.4780 -201.2230  -17.5110 O.2   406  ASN406     -0.2864
     82  CB      -123.8390 -200.6700  -20.7190 C.3   406  ASN406      0.1181
     83  CG      -123.5980 -202.1450  -21.0310 C.2   406  ASN406      0.2629
     84  OD1     -123.4350 -202.9610  -20.1290 O.2   406  ASN406     -0.2716
     85  ND2     -123.5850 -202.4920  -22.3190 N.am  406  ASN406     -0.0877
     86  N       -119.4020 -201.6030  -17.0870 N.3   408  THR408     -0.1218
     87  CA      -119.7200 -200.7900  -15.9100 C.3   408  THR408      0.1862
     88  C       -118.4860 -200.0280  -15.4220 C.2   408  THR408      0.2287
     89  O       -118.5160 -198.8030  -15.2970 O.2   408  THR408     -0.2866
     90  CB      -120.2970 -201.6590  -14.7660 C.3   408  THR408      0.1770
     91  OG1     -121.6860 -201.9120  -15.0120 O.3   408  THR408     -0.2211
     92  CG2     -120.1550 -200.9590  -13.4240 C.3   408  THR408      0.0375
@<TRIPOS>BOND
     1    85    83   am
     2    83    82    1
     3    83    84    2
     4    82    79    1
     5    76    75   ar
     6    79    78    1
     7    79    80    1
     8    75    77   ar
     9    75    74    1
    10    78    71   am
    11    80    81    2
    12    73    74    1
    13    73    70    1
    14    69    70    1
    15    71    70    1
    16    71    72    2
    17    86    87    1
    18    52    50   am
    19    87    88    1
    20    87    90    1
    21    88    89    2
    22    91    90    1
    23    50    51    2
    24    50    49    1
    25    90    92    1
    26    44    42    1
    27    64    63    2
    28    43    42    1
    29    49    46    1
    30    45    46    1
    31    63    62    1
    32    42    39    1
    33    41    40    2
    34    46    47    1
    35    40    39    1
    36    39    38    1
    37    62    61    1
    38    62    65    1
    39    47    48    2
    40    47    53   am
    41    61    55   am
    42    38    31   am
    43    53    54    1
    44    65    66    1
    45    56    55    2
    46    55    54    1
    47    59    58    2
    48    54    57    1
    49    31    32    2
    50    31    30    1
    51    66    68   am
    52    66    67    2
    53    33    30    1
    54    33    34    1
    55    11     9    1
    56    30    29    1
    57    35    34    1
    58    35    36    1
    59    58    57    1
    60    58    60   am
    61    37    36    1
    62     9     8    2
    63     9    10    1
    64     8     7    1
    65    29    23   am
    66    24    23    2
    67    23    22    1
    68     6     7    1
    69     6     5    1
    70    15    14    2
    71     1     2    1
    72    22    21    1
    73    22    25    1
    74    14    21   am
    75    14    13    1
    76    16    17    1
    77    16    13    1
    78     5     2    1
    79    12    13    1
    80     2     3    1
    81    19    18   ar
    82    17    18    1
    83    25    26    1
    84    18    20   ar
    85     3     4    2
    86    26    28   am
    87    26    27    2
