@<TRIPOS>MOLECULE
tmp/5fylD07.pdb
 172 163 0 0 0
SMALL
GASTEIGER

@<TRIPOS>ATOM
      1  N        285.9840  157.1540   -5.6160 N.3    29  LYS29      -0.1245
      2  CA       286.7090  157.2890   -6.8750 C.3    29  LYS29       0.1561
      3  C        285.9200  156.6720   -8.0290 C.2    29  LYS29       0.2260
      4  O        286.1530  156.9940   -9.1960 O.2    29  LYS29      -0.2867
      5  CB       288.0920  156.6450   -6.7730 C.3    29  LYS29       0.0271
      6  CG       289.0160  156.9950   -7.9320 C.3    29  LYS29       0.0035
      7  CD       290.4790  156.9480   -7.5250 C.3    29  LYS29       0.0206
      8  CE       291.3560  157.6680   -8.5400 C.3    29  LYS29       0.1093
      9  NZ       292.7330  157.8980   -8.0220 N.3    29  LYS29      -0.1314
     10  N        284.7670  158.7450  -11.4360 N.3    33  THR33      -0.1218
     11  CA       284.9440  158.2360  -12.7870 C.3    33  THR33       0.1862
     12  C        284.0370  158.9910  -13.7560 C.2    33  THR33       0.2287
     13  O        284.3500  159.0930  -14.9410 O.2    33  THR33      -0.2866
     14  CB       284.6430  156.7210  -12.8620 C.3    33  THR33       0.1770
     15  OG1      285.2010  156.0610  -11.7180 O.3    33  THR33      -0.2211
     16  CG2      285.2100  156.1050  -14.1370 C.3    33  THR33       0.0375
     17  N        281.5850  160.5970  -16.3530 N.3    35  LYS35      -0.1245
     18  CA       281.3950  160.2360  -17.7520 C.3    35  LYS35       0.1561
     19  C        280.1580  159.3560  -17.9920 C.2    35  LYS35       0.2260
     20  O        280.0250  158.7660  -19.0590 O.2    35  LYS35      -0.2867
     21  CB       282.6610  159.5390  -18.2840 C.3    35  LYS35       0.0271
     22  CG       282.9240  159.7620  -19.7650 C.3    35  LYS35       0.0035
     23  CD       283.9130  158.7490  -20.3220 C.3    35  LYS35       0.0206
     24  CE       283.2230  157.4460  -20.7110 C.3    35  LYS35       0.1093
     25  NZ       284.0370  156.6500  -21.6800 N.3    35  LYS35      -0.1314
     26  N        279.4100  156.4560  -17.0920 N.3    37  ASN37      -0.1240
     27  CA       279.9020  155.2110  -17.6870 C.3    37  ASN37       0.1653
     28  C        279.7600  153.9470  -16.8560 C.2    37  ASN37       0.2266
     29  O        279.2790  152.9360  -17.3570 O.2    37  ASN37      -0.2867
     30  CB       281.3850  155.3550  -18.0910 C.3    37  ASN37       0.1155
     31  CG       282.2920  155.8590  -16.9520 C.2    37  ASN37       0.2627
     32  OD1      281.9000  155.9340  -15.7880 O.2    37  ASN37      -0.2716
     33  ND2      283.5260  156.2070  -17.3100 N.am   37  ASN37      -0.0877
     34  N        278.4420  154.1170  -26.0060 N.3   167  PRO167     -0.2116
     35  CA       279.8790  154.3730  -25.8390 C.3   167  PRO167      0.1372
     36  C        280.1160  155.2350  -24.6080 C.2   167  PRO167      0.2244
     37  O        281.2200  155.3240  -24.0620 O.2   167  PRO167     -0.2868
     38  CB       280.2630  155.1220  -27.1180 C.3   167  PRO167      0.0268
     39  CG       279.1090  154.9150  -28.0620 C.3   167  PRO167      0.0207
     40  CD       277.9010  154.7630  -27.2110 C.3   167  PRO167      0.0892
     41  N        280.9350  152.2050  -19.5940 N.3   170  SER170     -0.1217
     42  CA       282.2250  151.5300  -19.4560 C.3   170  SER170      0.1889
     43  C        282.1170  150.0850  -18.9750 C.2   170  SER170      0.2288
     44  O        281.2800  149.7430  -18.1360 O.2   170  SER170     -0.2866
     45  CB       283.1360  152.2970  -18.5020 C.3   170  SER170      0.2089
     46  OG       284.3970  151.6610  -18.3870 O.3   170  SER170     -0.2183
     47  N        284.7450  148.4890  -17.5740 N.3   172  GLU172     -0.1231
     48  CA       285.7860  148.2360  -16.5850 C.3   172  GLU172      0.1684
     49  C        285.2030  147.6400  -15.3080 C.2   172  GLU172      0.2434
     50  O        284.2360  148.1620  -14.7480 O.2   172  GLU172     -0.2733
     51  CB       286.5680  149.5130  -16.2670 C.3   172  GLU172      0.0402
     52  CG       285.7550  150.6470  -15.6660 C.3   172  GLU172      0.1161
     53  CD       286.6310  151.7920  -15.1970 C.2   172  GLU172      0.3649
     54  OE1      287.8040  151.5310  -14.8560 O.co2 172  GLU172     -0.2457
     55  OE2      286.1500  152.9470  -15.1690 O.co2 172  GLU172     -0.2457
     56  N        285.7760  146.5130  -14.8590 N.am  173  PRO173     -0.2729
     57  CA       285.3320  145.8750  -13.6180 C.3   173  PRO173      0.1401
     58  C        285.8150  146.6510  -12.4030 C.2   173  PRO173      0.2269
     59  O        287.0150  146.6820  -12.1250 O.2   173  PRO173     -0.2865
     60  CB       285.9800  144.4900  -13.6850 C.3   173  PRO173      0.0296
     61  CG       287.2050  144.6950  -14.5100 C.3   173  PRO173      0.0237
     62  CD       286.8670  145.7640  -15.5100 C.3   173  PRO173      0.0939
     63  N        285.1370  140.4960  -12.9760 N.3   215  VAL215     -0.1245
     64  CA       285.8170  140.0920  -14.2020 C.3   215  VAL215      0.1561
     65  C        285.1200  138.8620  -14.7960 C.2   215  VAL215      0.2260
     66  O        285.1720  137.7670  -14.2340 O.2   215  VAL215     -0.2867
     67  CB       287.3230  139.8000  -13.9560 C.3   215  VAL215      0.0252
     68  CG1      288.0890  141.0950  -13.7290 C.3   215  VAL215      0.0019
     69  CG2      287.5240  138.8620  -12.7690 C.3   215  VAL215      0.0019
     70  N        291.2200  136.5220  -14.0410 N.3   222  LEU222     -0.1231
     71  CA       292.2440  137.5540  -13.9530 C.3   222  LEU222      0.1693
     72  C        291.9950  138.5770  -12.8540 C.2   222  LEU222      0.2592
     73  O        290.8870  138.6810  -12.3260 O.2   222  LEU222     -0.2718
     74  CB       292.3560  138.2730  -15.2970 C.3   222  LEU222      0.0284
     75  CG       292.5970  137.3790  -16.5150 C.3   222  LEU222      0.0019
     76  CD1      292.0870  138.0420  -17.7840 C.3   222  LEU222      0.0001
     77  CD2      294.0720  137.0570  -16.6380 C.3   222  LEU222      0.0001
     78  N        293.0540  139.3110  -12.5110 N.am  223  ASN223     -0.1974
     79  CA       292.9970  140.4260  -11.5660 C.3   223  ASN223      0.1688
     80  C        292.3470  140.1290  -10.2160 C.2   223  ASN223      0.2292
     81  O        292.0700  141.0490   -9.4500 O.2   223  ASN223     -0.2864
     82  CB       292.2730  141.6060  -12.2110 C.3   223  ASN223      0.1181
     83  CG       293.1660  142.4010  -13.1450 C.2   223  ASN223      0.2629
     84  OD1      294.2580  141.9590  -13.5140 O.2   223  ASN223     -0.2716
     85  ND2      292.6980  143.5880  -13.5330 N.am  223  ASN223     -0.0877
     86  N        286.5940  154.9970  -36.1940 N.3   265  ARG265     -0.1245
     87  CA       285.1440  154.8860  -36.1230 C.3   265  ARG265      0.1563
     88  C        284.4340  156.0520  -36.8130 C.2   265  ARG265      0.2260
     89  O        284.7440  157.2210  -36.5600 O.2   265  ARG265     -0.2867
     90  CB       284.6990  154.7940  -34.6600 C.3   265  ARG265      0.0307
     91  CG       283.2250  155.0640  -34.4510 C.3   265  ARG265      0.0489
     92  CD       282.9890  155.9470  -33.2370 C.3   265  ARG265      0.2205
     93  NE       282.9910  155.1960  -31.9870 N.pl3 265  ARG265     -0.0865
     94  CZ       282.7300  155.7330  -30.7990 C.cat 265  ARG265      0.5346
     95  NH1      282.4500  157.0290  -30.7080 N.pl3 265  ARG265      0.1354
     96  NH2      282.7500  154.9780  -29.7060 N.pl3 265  ARG265      0.1354
     97  N        287.7780  137.6120  -22.7640 N.3   336  PHE336     -0.1227
     98  CA       287.7840  138.7620  -21.8650 C.3   336  PHE336      0.1736
     99  C        287.4980  140.0730  -22.5970 C.2   336  PHE336      0.2595
    100  O        287.3810  140.1130  -23.8220 O.2   336  PHE336     -0.2718
    101  CB       289.1200  138.8690  -21.1090 C.3   336  PHE336      0.0547
    102  CG       290.3330  138.9130  -22.0000 C.ar  336  PHE336     -0.0202
    103  CD1      290.7550  140.1020  -22.5650 C.ar  336  PHE336     -0.0042
    104  CD2      291.0660  137.7690  -22.2450 C.ar  336  PHE336     -0.0042
    105  CE1      291.8720  140.1460  -23.3720 C.ar  336  PHE336     -0.0003
    106  CE2      292.1810  137.8060  -23.0470 C.ar  336  PHE336     -0.0003
    107  CZ       292.5850  138.9970  -23.6150 C.ar  336  PHE336     -0.0000
    108  N        287.3590  141.1400  -21.8230 N.am  337  ASN337     -0.1960
    109  CA       287.2540  142.4730  -22.3760 C.3   337  ASN337      0.1819
    110  C        288.5960  143.1480  -22.2020 C.2   337  ASN337      0.2621
    111  O        289.3050  142.8690  -21.2410 O.2   337  ASN337     -0.2715
    112  CB       286.1440  143.2670  -21.6840 C.3   337  ASN337      0.1195
    113  CG       285.9000  144.6170  -22.3300 C.2   337  ASN337      0.2630
    114  OD1      286.3660  145.6420  -21.8430 O.2   337  ASN337     -0.2716
    115  ND2      285.1700  144.6200  -23.4370 N.am  337  ASN337     -0.0877
    116  N        288.9530  144.0200  -23.1340 N.am  338  CYS338     -0.1954
    117  CA       290.2230  144.7250  -23.0660 C.3   338  CYS338      0.1843
    118  C        290.1110  146.0490  -23.7920 C.2   338  CYS338      0.2626
    119  O        290.1810  146.0940  -25.0190 O.2   338  CYS338     -0.2714
    120  CB       291.3460  143.8840  -23.6720 C.3   338  CYS338      0.0997
    121  SG       292.9910  144.6170  -23.5120 S.3   338  CYS338     -0.0797
    122  N        289.9220  147.1240  -23.0340 N.am  339  GLY339     -0.1954
    123  CA       289.7730  148.4510  -23.6060 C.3   339  GLY339      0.1869
    124  C        288.3800  148.7470  -24.1340 C.2   339  GLY339      0.2309
    125  O        288.1220  149.8390  -24.6400 O.2   339  GLY339     -0.2863
    126  N        286.1850  150.6790  -30.7280 N.3   387  ILE387     -0.1231
    127  CA       286.9530  151.5490  -29.8500 C.3   387  ILE387      0.1692
    128  C        288.1200  152.1550  -30.6280 C.2   387  ILE387      0.2591
    129  O        289.0840  151.4680  -30.9580 O.2   387  ILE387     -0.2718
    130  CB       287.4570  150.7960  -28.5930 C.3   387  ILE387      0.0266
    131  CG1      287.9970  149.4150  -28.9590 C.3   387  ILE387      0.0019
    132  CG2      286.3270  150.6200  -27.5820 C.3   387  ILE387      0.0020
    133  CD1      288.4950  148.6300  -27.7690 C.3   387  ILE387      0.0001
    134  N        288.0090  153.4460  -30.9310 N.am  388  GLN388     -0.1979
    135  CA       288.9970  154.1570  -31.7410 C.3   388  GLN388      0.1601
    136  C        290.4170  154.0940  -31.1690 C.2   388  GLN388      0.2287
    137  O        290.6230  154.2410  -29.9630 O.2   388  GLN388     -0.2864
    138  CB       288.5800  155.6220  -31.9110 C.3   388  GLN388      0.0394
    139  CG       287.8410  155.9320  -33.2040 C.3   388  GLN388      0.0908
    140  CD       288.6370  156.8410  -34.1260 C.2   388  GLN388      0.2608
    141  OE1      289.8530  156.6940  -34.2630 O.2   388  GLN388     -0.2717
    142  NE2      287.9530  157.7890  -34.7620 N.am  388  GLN388     -0.0878
    143  N        295.6050  148.2740  -25.6140 N.3   392  ARG392     -0.1231
    144  CA       296.4240  147.3280  -24.8600 C.3   392  ARG392      0.1694
    145  C        296.0820  147.3670  -23.3650 C.2   392  ARG392      0.2592
    146  O        295.8730  148.4330  -22.7780 O.2   392  ARG392     -0.2718
    147  CB       297.9230  147.5950  -25.0910 C.3   392  ARG392      0.0321
    148  CG       298.6150  148.4840  -24.0640 C.3   392  ARG392      0.0489
    149  CD       299.4010  147.6630  -23.0520 C.3   392  ARG392      0.2205
    150  NE       299.7750  148.4550  -21.8820 N.pl3 392  ARG392     -0.0865
    151  CZ       301.0170  148.8220  -21.5850 C.cat 392  ARG392      0.5346
    152  NH1      302.0240  148.4620  -22.3690 N.pl3 392  ARG392      0.1354
    153  NH2      301.2550  149.5450  -20.4990 N.pl3 392  ARG392      0.1354
    154  N        296.0030  146.1850  -22.7620 N.am  393  CYS393     -0.1956
    155  CA       295.7440  146.0620  -21.3340 C.3   393  CYS393      0.1843
    156  C        296.7800  145.1520  -20.6920 C.2   393  CYS393      0.2625
    157  O        297.3350  144.2660  -21.3450 O.2   393  CYS393     -0.2714
    158  CB       294.3290  145.5290  -21.0750 C.3   393  CYS393      0.0997
    159  SG       293.9660  143.9450  -21.8640 S.3   393  CYS393     -0.0797
    160  N        297.0510  145.3870  -19.4120 N.am  394  VAL394     -0.1963
    161  CA       297.9680  144.5490  -18.6530 C.3   394  VAL394      0.1727
    162  C        297.2520  144.0110  -17.4200 C.2   394  VAL394      0.2616
    163  O        296.6370  144.7730  -16.6730 O.2   394  VAL394     -0.2715
    164  CB       299.2330  145.3180  -18.2240 C.3   394  VAL394      0.0290
    165  CG1      300.2980  144.3480  -17.7370 C.3   394  VAL394      0.0023
    166  CG2      299.7660  146.1670  -19.3770 C.3   394  VAL394      0.0023
    167  N        297.3310  142.7000  -17.2080 N.am  395  SER395     -0.1950
    168  CA       296.6040  142.0590  -16.1140 C.3   395  SER395      0.1924
    169  C        297.3610  140.8840  -15.5120 C.2   395  SER395      0.2314
    170  O        298.2130  140.2820  -16.1650 O.2   395  SER395     -0.2863
    171  CB       295.2370  141.5770  -16.6020 C.3   395  SER395      0.2116
    172  OG       294.4900  142.6370  -17.1700 O.3   395  SER395     -0.2180
@<TRIPOS>BOND
     1    88    89    2
     2    88    87    1
     3    86    87    1
     4    87    90    1
     5   142   140   am
     6    90    91    1
     7    91    92    1
     8   141   140    2
     9   140   139    1
    10    92    93    1
    11   139   138    1
    12    93    94    2
    13   138   135    1
    14   135   136    1
    15   135   134    1
    16   136   137    2
    17   129   128    2
    18   134   128   am
    19    94    95    1
    20    94    96    1
    21   126   127    1
    22   128   127    1
    23   127   130    1
    24   131   130    1
    25   131   133    1
    26   130   132    1
    27    39    40    1
    28    39    38    1
    29    40    34    1
    30    38    35    1
    31    34    35    1
    32    35    36    1
    33   143   144    1
    34   147   144    1
    35   147   148    1
    36   119   118    2
    37   144   145    1
    38   125   124    2
    39    36    37    2
    40   124   123    1
    41   148   149    1
    42   100    99    2
    43   118   117    1
    44   118   122   am
    45   120   121    1
    46   120   117    1
    47   107   105   ar
    48   107   106   ar
    49   123   122    1
    50   121   159    1
    51   115   113   am
    52   105   103   ar
    53   145   146    2
    54   145   154   am
    55   116   117    1
    56   116   110   am
    57   149   150    1
    58   106   104   ar
    59    97    98    1
    60   154   155    1
    61    99    98    1
    62    99   108   am
    63   103   102   ar
    64   109   110    1
    65   109   108    1
    66   109   112    1
    67   152   151    1
    68   113   114    2
    69   113   112    1
    70   104   102   ar
    71   110   111    2
    72   102   101    1
    73   150   151    2
    74    98   101    1
    75   159   158    1
    76    25    24    1
    77   151   153    1
    78   157   156    2
    79   155   158    1
    80   155   156    1
    81    24    23    1
    82   156   160   am
    83    23    22    1
    84    22    21    1
    85    41    42    1
    86    42    43    1
    87    42    45    1
    88   160   161    1
    89   166   164    1
    90    20    19    2
    91    43    44    2
    92   161   164    1
    93   161   162    1
    94    45    46    1
    95    21    18    1
    96   164   165    1
    97    30    27    1
    98    30    31    1
    99    19    18    1
   100    76    75    1
   101    18    17    1
   102    27    26    1
   103    27    28    1
   104    47    48    1
   105   162   167   am
   106   162   163    2
   107    29    28    2
   108    33    31   am
   109   167   168    1
   110   172   171    1
   111    31    32    2
   112    77    75    1
   113   171   168    1
   114    48    51    1
   115    48    49    1
   116    75    74    1
   117    51    52    1
   118   170   169    2
   119   168   169    1
   120    52    53    1
   121    62    56    1
   122    62    61    1
   123    49    56   am
   124    49    50    2
   125    74    71    1
   126    53    55   ar
   127    53    54   ar
   128    13    12    2
   129    56    57    1
   130    65    66    2
   131    65    64    1
   132    61    60    1
   133    64    67    1
   134    64    63    1
   135    16    14    1
   136    70    71    1
   137    67    68    1
   138    67    69    1
   139    71    72    1
   140    12    11    1
   141    60    57    1
   142    57    58    1
   143    85    83   am
   144    84    83    2
   145    83    82    1
   146    14    11    1
   147    14    15    1
   148    72    78   am
   149    72    73    2
   150    11    10    1
   151    78    79    1
   152    58    59    2
   153    82    79    1
   154    79    80    1
   155    80    81    2
   156     4     3    2
   157     8     9    1
   158     8     7    1
   159     3     2    1
   160     6     7    1
   161     6     5    1
   162     2     5    1
   163     2     1    1
