@<TRIPOS>MOLECULE
tmp/5fylE00.pdb
 130 127 0 0 0
SMALL
GASTEIGER

@<TRIPOS>ATOM
      1  N        322.3520  137.0390  -55.8350 N.3    33  TYR33      -0.1241
      2  CA       321.0370  136.9170  -56.4590 C.3    33  TYR33       0.1605
      3  C        320.9570  137.9120  -57.6100 C.2    33  TYR33       0.2264
      4  O        321.3500  139.0690  -57.4560 O.2    33  TYR33      -0.2867
      5  CB       319.9140  137.1820  -55.4460 C.3    33  TYR33       0.0534
      6  CG       319.9970  136.4020  -54.1480 C.ar   33  TYR33      -0.0201
      7  CD1      320.9680  136.6960  -53.1980 C.ar   33  TYR33      -0.0009
      8  CD2      319.0800  135.4030  -53.8540 C.ar   33  TYR33      -0.0009
      9  CE1      321.0440  136.0000  -52.0080 C.ar   33  TYR33       0.0417
     10  CE2      319.1460  134.6990  -52.6600 C.ar   33  TYR33       0.0417
     11  CZ       320.1300  135.0060  -51.7420 C.ar   33  TYR33       0.1957
     12  OH       320.2030  134.3160  -50.5550 O.3    33  TYR33      -0.2866
     13  N        313.8470  138.0170  -60.9330 N.3    50  TYR50      -0.1241
     14  CA       315.0670  137.6750  -60.2090 C.3    50  TYR50       0.1605
     15  C        315.3830  136.1830  -60.2730 C.2    50  TYR50       0.2264
     16  O        314.5120  135.3610  -60.5570 O.2    50  TYR50      -0.2867
     17  CB       314.9800  138.1380  -58.7520 C.3    50  TYR50       0.0534
     18  CG       313.8860  137.4940  -57.9300 C.ar   50  TYR50      -0.0201
     19  CD1      312.5850  137.9820  -57.9610 C.ar   50  TYR50      -0.0009
     20  CD2      314.1630  136.4190  -57.0970 C.ar   50  TYR50      -0.0009
     21  CE1      311.5880  137.4040  -57.2000 C.ar   50  TYR50       0.0417
     22  CE2      313.1730  135.8350  -56.3310 C.ar   50  TYR50       0.0417
     23  CZ       311.8890  136.3310  -56.3850 C.ar   50  TYR50       0.1957
     24  OH       310.9050  135.7500  -55.6190 O.3    50  TYR50      -0.2866
     25  N        318.8050  127.2330  -56.1010 N.3    54  SER54      -0.1202
     26  CA       317.8330  126.6450  -55.1660 C.3    54  SER54       0.2020
     27  C        316.3820  126.9570  -55.5260 C.2    54  SER54       0.2619
     28  O        315.4740  126.6770  -54.7440 O.2    54  SER54      -0.2717
     29  CB       318.1080  127.0830  -53.7200 C.3    54  SER54       0.2103
     30  OG       317.7860  128.4480  -53.5330 O.3    54  SER54      -0.2182
     31  N        316.1640  127.5240  -56.7080 N.am   55  GLY55      -0.1942
     32  CA       314.8150  127.7160  -57.2120 C.3    55  GLY55       0.2014
     33  C        314.1850  129.0570  -56.8880 C.2    55  GLY55       0.2638
     34  O        313.0740  129.3530  -57.3330 O.2    55  GLY55      -0.2714
     35  N        314.8870  129.8700  -56.1050 N.am   56  ASP56      -0.1971
     36  CA       314.4270  131.2200  -55.8040 C.3    56  ASP56       0.1709
     37  C        314.4930  132.0630  -57.0730 C.2    56  ASP56       0.2293
     38  O        315.4300  132.8370  -57.2730 O.2    56  ASP56      -0.2864
     39  CB       315.2650  131.8430  -54.6870 C.3    56  ASP56       0.1436
     40  CG       314.7600  133.2110  -54.2680 C.2    56  ASP56       0.3671
     41  OD1      313.7170  133.2780  -53.5820 O.co2  56  ASP56      -0.2456
     42  OD2      315.4070  134.2190  -54.6230 O.co2  56  ASP56      -0.2456
     43  N        311.5010  133.8440  -59.0380 N.3    58  ASN58      -0.1240
     44  CA       310.1580  134.3070  -59.3790 C.3    58  ASN58       0.1653
     45  C        310.2120  135.5230  -60.2970 C.2    58  ASN58       0.2266
     46  O        311.1390  136.3230  -60.2110 O.2    58  ASN58      -0.2867
     47  CB       309.3670  134.6300  -58.1130 C.3    58  ASN58       0.1155
     48  CG       307.8780  134.7390  -58.3660 C.2    58  ASN58       0.2627
     49  OD1      307.3380  135.8350  -58.5090 O.2    58  ASN58      -0.2716
     50  ND2      307.2050  133.5950  -58.4220 N.am   58  ASN58      -0.0877
     51  N        318.7410  141.2590  -50.8840 N.3   100  HIS100     -0.1241
     52  CA       317.4940  141.1410  -50.1290 C.3   100  HIS100      0.1621
     53  C        317.5600  141.7420  -48.7260 C.2   100  HIS100      0.2264
     54  O        318.6170  142.1770  -48.2720 O.2   100  HIS100     -0.2867
     55  CB       317.0800  139.6700  -50.0340 C.3   100  HIS100      0.0745
     56  CG       318.1430  138.7780  -49.4720 C.ar  100  HIS100      0.0817
     57  ND1      318.5240  138.8160  -48.1480 N.ar  100  HIS100     -0.2268
     58  CD2      318.9080  137.8270  -50.0590 C.ar  100  HIS100      0.1154
     59  CE1      319.4770  137.9240  -47.9430 C.ar  100  HIS100      0.1986
     60  NE2      319.7290  137.3110  -49.0860 N.ar  100  HIS100     -0.2212
     61  N        314.8300  142.2980  -44.7720 N.3   102  ARG102     -0.1245
     62  CA       313.5800  142.0800  -44.0430 C.3   102  ARG102      0.1563
     63  C        313.0580  143.3530  -43.3860 C.2   102  ARG102      0.2260
     64  O        313.7720  144.0040  -42.6250 O.2   102  ARG102     -0.2867
     65  CB       313.7570  141.0060  -42.9660 C.3   102  ARG102      0.0307
     66  CG       313.4930  139.5810  -43.4300 C.3   102  ARG102      0.0489
     67  CD       314.7160  138.9610  -44.0960 C.3   102  ARG102      0.2205
     68  NE       314.5500  138.8040  -45.5390 N.pl3 102  ARG102     -0.0865
     69  CZ       315.4100  138.1620  -46.3260 C.cat 102  ARG102      0.5346
     70  NH1      316.5020  137.6120  -45.8120 N.pl3 102  ARG102      0.1354
     71  NH2      315.1760  138.0680  -47.6280 N.pl3 102  ARG102      0.1354
     72  N        307.0980  138.5290  -35.7620 N.3   108  VAL108     -0.1245
     73  CA       307.7200  137.7230  -36.8050 C.3   108  VAL108      0.1561
     74  C        307.0390  136.3650  -36.9460 C.2   108  VAL108      0.2260
     75  O        306.8820  135.8550  -38.0570 O.2   108  VAL108     -0.2867
     76  CB       309.2180  137.5060  -36.5260 C.3   108  VAL108      0.0252
     77  CG1      309.8990  136.8790  -37.7350 C.3   108  VAL108      0.0019
     78  CG2      309.8850  138.8240  -36.1550 C.3   108  VAL108      0.0019
     79  N        304.1000  136.1430  -38.8460 N.3   111  LYS111     -0.1245
     80  CA       304.4780  136.4040  -40.2300 C.3   111  LYS111      0.1561
     81  C        304.0330  137.8040  -40.6300 C.2   111  LYS111      0.2260
     82  O        303.4040  138.0010  -41.6680 O.2   111  LYS111     -0.2867
     83  CB       303.8910  135.3500  -41.1730 C.3   111  LYS111      0.0271
     84  CG       304.9420  134.5410  -41.9260 C.3   111  LYS111      0.0035
     85  CD       305.7060  133.5900  -41.0150 C.3   111  LYS111      0.0206
     86  CE       305.0790  132.2060  -41.0210 C.3   111  LYS111      0.1093
     87  NZ       305.9590  131.1890  -40.3810 N.3   111  LYS111     -0.1314
     88  N        305.7190  140.6380  -41.6760 N.3   113  TRP113     -0.1227
     89  CA       306.9000  141.2510  -42.2650 C.3   113  TRP113      0.1737
     90  C        306.9050  140.9480  -43.7550 C.2   113  TRP113      0.2595
     91  O        306.0610  140.1940  -44.2370 O.2   113  TRP113     -0.2718
     92  CB       308.1770  140.7260  -41.6100 C.3   113  TRP113      0.0564
     93  CG       308.2020  139.2330  -41.4660 C.ar  113  TRP113      0.0003
     94  CD1      307.8800  138.5170  -40.3530 C.ar  113  TRP113      0.0946
     95  CD2      308.5560  138.2730  -42.4710 C.ar  113  TRP113      0.0152
     96  NE1      308.0170  137.1720  -40.5960 N.ar  113  TRP113     -0.2442
     97  CE2      308.4290  136.9950  -41.8900 C.ar  113  TRP113      0.0810
     98  CE3      308.9710  138.3690  -43.8030 C.ar  113  TRP113      0.0012
     99  CZ2      308.7010  135.8230  -42.5940 C.ar  113  TRP113      0.0191
    100  CZ3      309.2390  137.2030  -44.5010 C.ar  113  TRP113      0.0001
    101  CH2      309.1030  135.9470  -43.8950 C.ar  113  TRP113      0.0015
    102  N        307.8490  141.5230  -44.4890 N.am  114  PHE114     -0.1962
    103  CA       307.9960  141.1780  -45.8960 C.3   114  PHE114      0.1771
    104  C        309.4530  141.2090  -46.3330 C.2   114  PHE114      0.2620
    105  O        310.2940  141.8510  -45.7040 O.2   114  PHE114     -0.2715
    106  CB       307.1590  142.1080  -46.7800 C.3   114  PHE114      0.0574
    107  CG       307.4890  143.5630  -46.6260 C.ar  114  PHE114     -0.0200
    108  CD1      308.5230  144.1370  -47.3490 C.ar  114  PHE114     -0.0042
    109  CD2      306.7520  144.3640  -45.7710 C.ar  114  PHE114     -0.0042
    110  CE1      308.8260  145.4790  -47.2080 C.ar  114  PHE114     -0.0003
    111  CE2      307.0460  145.7080  -45.6310 C.ar  114  PHE114     -0.0003
    112  CZ       308.0830  146.2650  -46.3520 C.ar  114  PHE114     -0.0000
    113  N        309.7370  140.4940  -47.4140 N.am  115  THR115     -0.1951
    114  CA       311.0690  140.4540  -47.9950 C.3   115  THR115      0.1897
    115  C        311.1990  141.5290  -49.0610 C.2   115  THR115      0.2313
    116  O        310.4040  141.5700  -49.9980 O.2   115  THR115     -0.2863
    117  CB       311.3640  139.0790  -48.6140 C.3   115  THR115      0.1794
    118  OG1      310.3020  138.7310  -49.5120 O.3   115  THR115     -0.2208
    119  CG2      311.4690  138.0150  -47.5340 C.3   115  THR115      0.0378
    120  N        313.9250  143.4240  -51.7640 N.3   117  PHE117     -0.1241
    121  CA       315.2460  143.5120  -52.3720 C.3   117  PHE117      0.1605
    122  C        315.4440  144.8260  -53.1040 C.2   117  PHE117      0.2264
    123  O        314.5080  145.4020  -53.6630 O.2   117  PHE117     -0.2867
    124  CB       315.5310  142.3680  -53.3570 C.3   117  PHE117      0.0534
    125  CG       314.5510  141.2320  -53.3290 C.ar  117  PHE117     -0.0203
    126  CD1      314.4000  140.4420  -52.2010 C.ar  117  PHE117     -0.0042
    127  CD2      313.8350  140.9040  -54.4690 C.ar  117  PHE117     -0.0042
    128  CE1      313.5110  139.3820  -52.1970 C.ar  117  PHE117     -0.0003
    129  CE2      312.9510  139.8430  -54.4750 C.ar  117  PHE117     -0.0003
    130  CZ       312.7860  139.0810  -53.3360 C.ar  117  PHE117     -0.0000
@<TRIPOS>BOND
     1    13    14    1
     2    16    15    2
     3    45    46    2
     4    45    44    1
     5    15    14    1
     6    14    17    1
     7    44    43    1
     8    44    47    1
     9    17    18    1
    10    49    48    2
    11    50    48   am
    12    48    47    1
    13    19    18   ar
    14    19    21   ar
    15    18    20   ar
    16     3     4    2
    17     3     2    1
    18    34    33    2
    19    38    37    2
    20    32    33    1
    21    32    31    1
    22    21    23   ar
    23    20    22   ar
    24    37    36    1
    25    33    35   am
    26    31    27   am
    27     2     1    1
    28     2     5    1
    29    23    22   ar
    30    23    24    1
    31    35    36    1
    32    25    26    1
    33    36    39    1
    34    27    26    1
    35    27    28    2
    36     5     6    1
    37    26    29    1
    38    39    40    1
    39    42    40   ar
    40   129   127   ar
    41   129   130   ar
    42   127   125   ar
    43    40    41   ar
    44     6     8   ar
    45     6     7   ar
    46     8    10   ar
    47    29    30    1
    48   123   122    2
    49   124   125    1
    50   124   121    1
    51   130   128   ar
    52   125   126   ar
    53     7     9   ar
    54   122   121    1
    55    10    11   ar
    56   121   120    1
    57   126   128   ar
    58     9    11   ar
    59    11    12    1
    60    51    52    1
    61    52    55    1
    62    52    53    1
    63    58    56   ar
    64    58    60   ar
    65    55    56    1
    66   116   115    2
    67   118   117    1
    68    56    57   ar
    69    60    59   ar
    70   115   114    1
    71    53    54    2
    72   117   114    1
    73   117   119    1
    74    57    59   ar
    75   114   113    1
    76    71    69    1
    77   113   104   am
    78   108   110   ar
    79   108   107   ar
    80   110   112   ar
    81   106   107    1
    82   106   103    1
    83   107   109   ar
    84   112   111   ar
    85   104   103    1
    86   104   105    2
    87    69    70    1
    88    69    68    2
    89   103   102    1
    90   109   111   ar
    91    68    67    1
    92    61    62    1
    93   100   101   ar
    94   100    98   ar
    95   102    90   am
    96    91    90    2
    97    67    66    1
    98    62    63    1
    99    62    65    1
   100   101    99   ar
   101    98    95   ar
   102    90    89    1
   103    66    65    1
   104    63    64    2
   105    99    97   ar
   106    95    97   ar
   107    95    93   ar
   108    89    88    1
   109    89    92    1
   110    84    83    1
   111    84    85    1
   112    97    96   ar
   113    82    81    2
   114    92    93    1
   115    93    94   ar
   116    83    80    1
   117    86    85    1
   118    86    87    1
   119    81    80    1
   120    96    94   ar
   121    80    79    1
   122    75    74    2
   123    77    76    1
   124    74    73    1
   125    73    76    1
   126    73    72    1
   127    76    78    1
