@<TRIPOS>MOLECULE
tmp/5fymA00.pdb
 129 122 0 0 0
SMALL
GASTEIGER

@<TRIPOS>ATOM
      1  N        -14.5440   -6.0630  -32.3260 N.3   131  PHE131     -0.1241
      2  CA       -14.9400   -4.7410  -31.8700 C.3   131  PHE131      0.1605
      3  C        -14.1050   -3.7270  -32.6540 C.2   131  PHE131      0.2264
      4  O        -12.8650   -3.7830  -32.6470 O.2   131  PHE131     -0.2867
      5  CB       -14.7260   -4.6470  -30.3470 C.3   131  PHE131      0.0534
      6  CG       -14.9120   -3.2690  -29.7460 C.ar  131  PHE131     -0.0203
      7  CD1      -15.5790   -2.2450  -30.4180 C.ar  131  PHE131     -0.0042
      8  CD2      -14.4160   -3.0150  -28.4740 C.ar  131  PHE131     -0.0042
      9  CE1      -15.7270   -0.9950  -29.8430 C.ar  131  PHE131     -0.0003
     10  CE2      -14.5660   -1.7780  -27.8870 C.ar  131  PHE131     -0.0003
     11  CZ       -15.2260   -0.7600  -28.5690 C.ar  131  PHE131     -0.0000
     12  N        -16.3870    4.3770  -32.3720 N.3   182  TYR182     -0.1241
     13  CA       -16.4140    2.9520  -32.0620 C.3   182  TYR182      0.1605
     14  C        -17.5770    2.2990  -32.7890 C.2   182  TYR182      0.2264
     15  O        -18.6980    2.8230  -32.7640 O.2   182  TYR182     -0.2867
     16  CB       -16.5550    2.7220  -30.5550 C.3   182  TYR182      0.0534
     17  CG       -15.5340    3.4750  -29.7540 C.ar  182  TYR182     -0.0201
     18  CD1      -15.7030    4.8270  -29.4760 C.ar  182  TYR182     -0.0009
     19  CD2      -14.3920    2.8400  -29.2760 C.ar  182  TYR182     -0.0009
     20  CE1      -14.7640    5.5220  -28.7520 C.ar  182  TYR182      0.0417
     21  CE2      -13.4520    3.5330  -28.5500 C.ar  182  TYR182      0.0417
     22  CZ       -13.6350    4.8730  -28.2980 C.ar  182  TYR182      0.1957
     23  OH       -12.6910    5.5670  -27.5700 O.3   182  TYR182     -0.2866
     24  N        -19.6890   -1.3020  -33.0840 N.3   184  LYS184     -0.1245
     25  CA       -19.8140   -2.4320  -32.1790 C.3   184  LYS184      0.1561
     26  C        -20.8190   -3.5030  -32.5760 C.2   184  LYS184      0.2260
     27  O        -21.7630   -3.2560  -33.3330 O.2   184  LYS184     -0.2867
     28  CB       -20.1610   -1.9320  -30.7720 C.3   184  LYS184      0.0271
     29  CG       -19.2430   -0.8240  -30.2420 C.3   184  LYS184      0.0035
     30  CD       -19.6310   -0.3900  -28.8250 C.3   184  LYS184      0.0206
     31  CE       -18.8260    0.8310  -28.3430 C.3   184  LYS184      0.1093
     32  NZ       -19.1800    1.1760  -26.9140 N.3   184  LYS184     -0.1314
     33  N        -19.0030   -6.4160  -27.4700 N.3   188  SER188     -0.1217
     34  CA       -17.8430   -5.5510  -27.6450 C.3   188  SER188      0.1889
     35  C        -17.5150   -4.8490  -26.3350 C.2   188  SER188      0.2288
     36  O        -18.3330   -4.0900  -25.8070 O.2   188  SER188     -0.2866
     37  CB       -18.0710   -4.5110  -28.7430 C.3   188  SER188      0.2089
     38  OG       -18.0810   -5.1080  -30.0270 O.3   188  SER188     -0.2183
     39  N        -14.9620   -2.6000  -23.7300 N.3   190  THR190     -0.1218
     40  CA       -13.8820   -1.6790  -23.4120 C.3   190  THR190      0.1862
     41  C        -13.4520   -2.0140  -21.9970 C.2   190  THR190      0.2287
     42  O        -14.2180   -1.8040  -21.0650 O.2   190  THR190     -0.2866
     43  CB       -14.3300   -0.2040  -23.5110 C.3   190  THR190      0.1770
     44  OG1      -14.5090    0.1490  -24.8910 O.3   190  THR190     -0.2211
     45  CG2      -13.2930    0.7290  -22.8740 C.3   190  THR190      0.0375
     46  N        -10.4510    1.0200  -17.1350 N.3   193  HIS193     -0.1241
     47  CA        -9.4400    2.0480  -17.3070 C.3   193  HIS193      0.1621
     48  C         -9.8690    3.3710  -16.7070 C.2   193  HIS193      0.2264
     49  O        -11.0420    3.5930  -16.3820 O.2   193  HIS193     -0.2867
     50  CB        -9.1390    2.2530  -18.7920 C.3   193  HIS193      0.0745
     51  CG       -10.2900    2.8390  -19.5480 C.ar  193  HIS193      0.0817
     52  ND1      -11.4650    2.1490  -19.7650 N.ar  193  HIS193     -0.2268
     53  CD2      -10.4620    4.0570  -20.1150 C.ar  193  HIS193      0.1154
     54  CE1      -12.2990    2.9070  -20.4480 C.ar  193  HIS193      0.1986
     55  NE2      -11.7180    4.0690  -20.6740 N.ar  193  HIS193     -0.2212
     56  N         -9.2870    7.5170  -17.8960 N.3   195  GLU195     -0.1245
     57  CA        -8.9180    8.2860  -19.0750 C.3   195  GLU195      0.1567
     58  C         -7.4740    8.7180  -18.9900 C.2   195  GLU195      0.2260
     59  O         -6.9090    8.7890  -17.8980 O.2   195  GLU195     -0.2867
     60  CB        -9.7970    9.5220  -19.2250 C.3   195  GLU195      0.0388
     61  CG       -11.2900    9.1880  -19.4160 C.3   195  GLU195      0.1160
     62  CD       -11.5240    8.3420  -20.6410 C.2   195  GLU195      0.3649
     63  OE1      -11.0480    8.6950  -21.7390 O.co2 195  GLU195     -0.2457
     64  OE2      -12.1720    7.2980  -20.5090 O.co2 195  GLU195     -0.2457
     65  N        -14.4480   12.3270  -19.8130 N.3   201  SER201     -0.1202
     66  CA       -14.7560   11.7940  -21.1330 C.3   201  SER201      0.2020
     67  C        -16.2410   11.9410  -21.4550 C.2   201  SER201      0.2619
     68  O        -17.1040   11.7560  -20.5960 O.2   201  SER201     -0.2717
     69  CB       -14.3380   10.3270  -21.2410 C.3   201  SER201      0.2103
     70  OG       -15.3040    9.4780  -20.6550 O.3   201  SER201     -0.2182
     71  N        -16.5220   12.2790  -22.7070 N.am  202  VAL202     -0.1965
     72  CA       -17.8820   12.4510  -23.1830 C.3   202  VAL202      0.1727
     73  C        -18.1450   11.3240  -24.1820 C.2   202  VAL202      0.2616
     74  O        -17.3610   11.1340  -25.1000 O.2   202  VAL202     -0.2715
     75  CB       -18.0700   13.8510  -23.8360 C.3   202  VAL202      0.0290
     76  CG1      -19.4500   14.0170  -24.4140 C.3   202  VAL202      0.0023
     77  CG2      -17.7790   14.9620  -22.8290 C.3   202  VAL202      0.0023
     78  N        -19.2330   10.5780  -24.0040 N.am  203  ASN203     -0.1972
     79  CA       -19.5830    9.4840  -24.9190 C.3   203  ASN203      0.1688
     80  C        -21.0430    9.5900  -25.3800 C.2   203  ASN203      0.2292
     81  O        -21.9420    9.6720  -24.5490 O.2   203  ASN203     -0.2864
     82  CB       -19.3460    8.1330  -24.2320 C.3   203  ASN203      0.1181
     83  CG       -19.5100    6.9340  -25.1710 C.2   203  ASN203      0.2629
     84  OD1      -20.5720    6.7220  -25.7790 O.2   203  ASN203     -0.2716
     85  ND2      -18.4460    6.1310  -25.2860 N.am  203  ASN203     -0.0877
     86  N        -22.8190    0.0970  -18.9340 N.3   213  TRP213     -0.1241
     87  CA       -21.6630    0.7570  -18.3490 C.3   213  TRP213      0.1605
     88  C        -21.4680    0.3430  -16.9100 C.2   213  TRP213      0.2264
     89  O        -22.4490    0.1510  -16.1820 O.2   213  TRP213     -0.2867
     90  CB       -21.8270    2.2690  -18.4080 C.3   213  TRP213      0.0550
     91  CG       -21.6560    2.8800  -19.7600 C.ar  213  TRP213      0.0003
     92  CD1      -22.4770    2.7400  -20.8340 C.ar  213  TRP213      0.0946
     93  CD2      -20.5870    3.7420  -20.1770 C.ar  213  TRP213      0.0152
     94  NE1      -21.9960    3.4600  -21.9000 N.ar  213  TRP213     -0.2442
     95  CE2      -20.8360    4.0880  -21.5220 C.ar  213  TRP213      0.0810
     96  CE3      -19.4510    4.2580  -19.5410 C.ar  213  TRP213      0.0012
     97  CZ2      -19.9990    4.9180  -22.2410 C.ar  213  TRP213      0.0191
     98  CZ3      -18.5960    5.0900  -20.2680 C.ar  213  TRP213      0.0001
     99  CH2      -18.8740    5.4080  -21.6030 C.ar  213  TRP213      0.0015
    100  N        -13.8230    2.9970  -15.2590 N.3   273  HIS273     -0.1241
    101  CA       -15.0020    2.4930  -15.9660 C.3   273  HIS273      0.1621
    102  C        -14.6400    1.4120  -16.9790 C.2   273  HIS273      0.2264
    103  O        -13.4870    1.3190  -17.4150 O.2   273  HIS273     -0.2867
    104  CB       -15.7760    3.6500  -16.6480 C.3   273  HIS273      0.0745
    105  CG       -14.9620    4.4560  -17.6210 C.ar  273  HIS273      0.0817
    106  ND1      -13.9450    5.2930  -17.2220 N.ar  273  HIS273     -0.2268
    107  CD2      -15.0390    4.5760  -18.9710 C.ar  273  HIS273      0.1154
    108  CE1      -13.4180    5.8830  -18.2820 C.ar  273  HIS273      0.1986
    109  NE2      -14.0580    5.4610  -19.3580 N.ar  273  HIS273     -0.2212
    110  N        -17.0150   -0.9180  -20.2830 N.3   275  VAL275     -0.1245
    111  CA       -18.2640   -0.8290  -21.0730 C.3   275  VAL275      0.1561
    112  C        -18.4510   -2.0440  -21.9900 C.2   275  VAL275      0.2260
    113  O        -17.4750   -2.5580  -22.5720 O.2   275  VAL275     -0.2867
    114  CB       -18.2920    0.4570  -21.9600 C.3   275  VAL275      0.0252
    115  CG1      -19.7000    0.7360  -22.5000 C.3   275  VAL275      0.0019
    116  CG2      -17.8000    1.6710  -21.1920 C.3   275  VAL275      0.0019
    117  N        -20.5640    4.3100  -31.1670 N.3   283  ASN283     -0.1240
    118  CA       -20.4280    5.3500  -30.1520 C.3   283  ASN283      0.1653
    119  C        -19.4140    6.3750  -30.6410 C.2   283  ASN283      0.2266
    120  O        -18.5200    6.0420  -31.4300 O.2   283  ASN283     -0.2867
    121  CB       -19.9560    4.7900  -28.8080 C.3   283  ASN283      0.1155
    122  CG       -20.9430    3.8430  -28.1710 C.2   283  ASN283      0.2627
    123  OD1      -21.1510    2.7230  -28.6440 O.2   283  ASN283     -0.2716
    124  ND2      -21.5220    4.2640  -27.0480 N.am  283  ASN283     -0.0877
    125  N        -16.7780    9.5030  -28.9280 N.3   285  ALA285     -0.1245
    126  CA       -16.2590    9.9010  -27.6360 C.3   285  ALA285      0.1562
    127  C        -15.0660   10.8170  -27.7730 C.2   285  ALA285      0.2260
    128  O        -14.3740   10.8000  -28.7870 O.2   285  ALA285     -0.2867
    129  CB       -15.8710    8.6630  -26.8040 C.3   285  ALA285      0.0290
@<TRIPOS>BOND
     1    27    26    2
     2    24    25    1
     3    14    15    2
     4    14    13    1
     5     3     4    2
     6     3     2    1
     7    26    25    1
     8    12    13    1
     9     1     2    1
    10    25    28    1
    11    13    16    1
    12     2     5    1
    13   120   119    2
    14   117   118    1
    15    28    29    1
    16   119   118    1
    17    16    17    1
    18     7     9   ar
    19     7     6   ar
    20     5     6    1
    21    29    30    1
    22   118   121    1
    23    38    37    1
    24     9    11   ar
    25    17    18   ar
    26    17    19   ar
    27     6     8   ar
    28    18    20   ar
    29    19    21   ar
    30   125   126    1
    31    30    31    1
    32   121   122    1
    33   128   127    2
    34    20    22   ar
    35    37    34    1
    36   123   122    2
    37    11    10   ar
    38    21    22   ar
    39     8    10   ar
    40    31    32    1
    41    22    23    1
    42   122   124   am
    43   127   126    1
    44    34    33    1
    45    34    35    1
    46   126   129    1
    47    35    36    2
    48    84    83    2
    49    80    79    1
    50    80    81    2
    51    85    83   am
    52    83    82    1
    53    74    73    2
    54    79    82    1
    55    79    78    1
    56    44    43    1
    57    76    75    1
    58    73    78   am
    59    73    72    1
    60    75    72    1
    61    75    77    1
    62    39    40    1
    63    43    40    1
    64    43    45    1
    65    40    41    1
    66    72    71    1
    67    71    67   am
    68   113   112    2
    69   115   114    1
    70    97    99   ar
    71    97    95   ar
    72    41    42    2
    73   112   111    1
    74   114   116    1
    75   114   111    1
    76    94    95   ar
    77    94    92   ar
    78    63    62   ar
    79    99    98   ar
    80    95    93   ar
    81    67    66    1
    82    67    68    2
    83    69    66    1
    84    69    70    1
    85    66    65    1
    86   111   110    1
    87    92    91   ar
    88    55    54   ar
    89    55    53   ar
    90    62    64   ar
    91    62    61    1
    92    54    52   ar
    93    98    96   ar
    94    93    91   ar
    95    93    96   ar
    96    53    51   ar
    97    52    51   ar
    98    91    90    1
    99    51    50    1
   100    61    60    1
   101   109   107   ar
   102   109   108   ar
   103    60    57    1
   104    57    58    1
   105    57    56    1
   106    58    59    2
   107   107   105   ar
   108    86    87    1
   109    50    47    1
   110    90    87    1
   111    87    88    1
   112   108   106   ar
   113   105   106   ar
   114   105   104    1
   115   103   102    2
   116    47    46    1
   117    47    48    1
   118   102   101    1
   119    88    89    2
   120    48    49    2
   121   104   101    1
   122   101   100    1
