@<TRIPOS>MOLECULE
tmp/5fynB00.pdb
 70 68 0 0 0
SMALL
GASTEIGER

@<TRIPOS>ATOM
      1  N        -38.1990   27.1690   13.5120 N.3    27  PRO27      -0.2116
      2  CA       -39.2330   28.0520   14.0570 C.3    27  PRO27       0.1372
      3  C        -40.4900   27.3320   14.4470 C.2    27  PRO27       0.2244
      4  O        -40.8780   26.4060   13.7940 O.2    27  PRO27      -0.2868
      5  CB       -39.5250   29.0220   12.9220 C.3    27  PRO27       0.0268
      6  CG       -38.4250   28.8590   11.9430 C.3    27  PRO27       0.0207
      7  CD       -37.8650   27.5090   12.1150 C.3    27  PRO27       0.0892
      8  N        -39.4980   36.4260   16.0980 N.3   105  ASN105     -0.1225
      9  CA       -40.1410   37.5750   15.4460 C.3   105  ASN105      0.1785
     10  C        -41.5700   37.6480   15.9900 C.2   105  ASN105      0.2597
     11  O        -41.8550   36.9910   17.0010 O.2   105  ASN105     -0.2718
     12  CB       -40.0340   37.4710   13.9320 C.3   105  ASN105      0.1169
     13  CG       -40.8100   36.3040   13.3410 C.2   105  ASN105      0.2627
     14  OD1      -41.7220   35.7410   13.9590 O.2   105  ASN105     -0.2716
     15  ND2      -40.4410   35.9460   12.1150 N.am  105  ASN105     -0.0877
     16  N        -42.4530   38.4430   15.3800 N.am  106  GLN106     -0.1965
     17  CA       -43.8270   38.5700   15.8850 C.3   106  GLN106      0.1733
     18  C        -44.6190   37.2660   15.9450 C.2   106  GLN106      0.2617
     19  O        -45.4440   37.1010   16.8170 O.2   106  GLN106     -0.2715
     20  CB       -44.6160   39.5620   15.0240 C.3   106  GLN106      0.0408
     21  CG       -44.2220   41.0100   15.2090 C.3   106  GLN106      0.0908
     22  CD       -44.7190   41.8440   14.0830 C.2   106  GLN106      0.2608
     23  OE1      -44.3050   41.6490   12.9450 O.2   106  GLN106     -0.2717
     24  NE2      -45.6470   42.7740   14.3760 N.am  106  GLN106     -0.0878
     25  N        -44.3810   36.3700   15.0020 N.am  107  THR107     -0.1937
     26  CA       -45.2130   35.1840   14.8240 C.3   107  THR107      0.2028
     27  C        -44.5520   33.8450   15.1610 C.2   107  THR107      0.2642
     28  O        -45.2490   32.8890   15.4540 O.2   107  THR107     -0.2714
     29  CB       -45.7420   35.1080   13.3670 C.3   107  THR107      0.1808
     30  OG1      -44.6520   35.1030   12.4320 O.3   107  THR107     -0.2208
     31  CG2      -46.6320   36.3030   13.0800 C.3   107  THR107      0.0379
     32  N        -43.2300   33.7730   15.1310 N.am  108  ALA108     -0.1977
     33  CA       -42.5170   32.5220   15.3910 C.3   108  ALA108      0.1597
     34  C        -41.2610   32.6810   16.2720 C.2   108  ALA108      0.2287
     35  O        -40.6650   33.7410   16.3100 O.2   108  ALA108     -0.2864
     36  CB       -42.1440   31.9110   14.0600 C.3   108  ALA108      0.0319
     37  N        -37.5090   30.5710   17.3940 N.3   110  GLN110     -0.1245
     38  CA       -36.5160   29.5180   17.3080 C.3   110  GLN110      0.1566
     39  C        -35.8910   29.2850   18.6970 C.2   110  GLN110      0.2260
     40  O        -35.1540   30.1380   19.1980 O.2   110  GLN110     -0.2867
     41  CB       -35.4480   29.8820   16.2890 C.3   110  GLN110      0.0367
     42  CG       -36.0030   29.9360   14.8710 C.3   110  GLN110      0.0905
     43  CD       -34.9330   30.0950   13.8120 C.2   110  GLN110      0.2608
     44  OE1      -34.8580   31.1100   13.1580 O.2   110  GLN110     -0.2717
     45  NE2      -34.0800   29.0970   13.6660 N.am  110  GLN110     -0.0878
     46  N        -39.2040   42.8140   11.3710 N.3   277  SER277     -0.1202
     47  CA       -39.8590   41.6570   10.7820 C.3   277  SER277      0.2020
     48  C        -38.8460   40.8390   10.0130 C.2   277  SER277      0.2619
     49  O        -37.7470   41.2920    9.7220 O.2   277  SER277     -0.2717
     50  CB       -41.0150   42.0840    9.8620 C.3   277  SER277      0.2103
     51  OG       -40.5220   42.8430    8.7760 O.3   277  SER277     -0.2182
     52  N        -39.2540   39.6270    9.6980 N.am  278  GLY278     -0.1942
     53  CA       -38.4320   38.7070    8.9930 C.3   278  GLY278      0.2014
     54  C        -37.8210   37.7410    9.9790 C.2   278  GLY278      0.2639
     55  O        -38.3580   37.4920   11.0570 O.2   278  GLY278     -0.2714
     56  N        -36.6940   37.1930    9.5770 N.am  279  ASN279     -0.1958
     57  CA       -36.0680   36.0890   10.2500 C.3   279  ASN279      0.1804
     58  C        -35.5870   36.5390   11.6160 C.2   279  ASN279      0.2463
     59  O        -34.8430   37.5080   11.6890 O.2   279  ASN279     -0.2730
     60  CB       -34.8560   35.6530    9.3650 C.3   279  ASN279      0.1195
     61  CG       -33.7970   34.8570   10.1300 C.2   279  ASN279      0.2630
     62  OD1      -34.0190   33.7020   10.5160 O.2   279  ASN279     -0.2716
     63  ND2      -32.6330   35.4750   10.3540 N.am  279  ASN279     -0.0877
     64  N        -36.0080   35.8430   12.6930 N.am  280  PRO280     -0.2727
     65  CA       -35.4400   36.1770   13.9850 C.3   280  PRO280      0.1402
     66  C        -33.9360   35.9810   13.9360 C.2   280  PRO280      0.2269
     67  O        -33.4670   35.0620   13.2850 O.2   280  PRO280     -0.2865
     68  CB       -36.1010   35.1730   14.9310 C.3   280  PRO280      0.0296
     69  CG       -36.5390   34.0580   14.0690 C.3   280  PRO280      0.0237
     70  CD       -36.9460   34.7140   12.7970 C.3   280  PRO280      0.0939
@<TRIPOS>BOND
     1    51    50    1
     2    53    52    1
     3    53    54    1
     4    60    61    1
     5    60    57    1
     6    56    54   am
     7    56    57    1
     8    52    48   am
     9    49    48    2
    10    50    47    1
    11    54    55    2
    12    48    47    1
    13    61    63   am
    14    61    62    2
    15    57    58    1
    16    47    46    1
    17    58    59    2
    18    58    64   am
    19     6     7    1
    20     6     5    1
    21    15    13   am
    22     7     1    1
    23    30    29    1
    24    64    70    1
    25    64    65    1
    26    70    69    1
    27     5     2    1
    28    23    22    2
    29    31    29    1
    30    44    43    2
    31    67    66    2
    32    13    12    1
    33    13    14    2
    34    29    26    1
    35     1     2    1
    36    45    43   am
    37     4     3    2
    38    43    42    1
    39    12     9    1
    40    66    65    1
    41    65    68    1
    42     2     3    1
    43    36    33    1
    44    69    68    1
    45    22    24   am
    46    22    21    1
    47    26    25    1
    48    26    27    1
    49    42    41    1
    50    25    18   am
    51    20    21    1
    52    20    17    1
    53    32    27   am
    54    32    33    1
    55    27    28    2
    56    16    17    1
    57    16    10   am
    58    33    34    1
    59     9    10    1
    60     9     8    1
    61    17    18    1
    62    18    19    2
    63    10    11    2
    64    34    35    2
    65    41    38    1
    66    38    37    1
    67    38    39    1
    68    39    40    2
