@<TRIPOS>MOLECULE
tmp/5fyrD00.pdb
 118 113 0 0 0
SMALL
GASTEIGER

@<TRIPOS>ATOM
      1  N        -19.3920   25.0720    9.3810 N.3    25  HIS25      -0.1226
      2  CA       -18.1040   25.6940    9.5980 C.3    25  HIS25       0.1752
      3  C        -17.6310   25.2820   10.9830 C.2    25  HIS25       0.2596
      4  O        -18.2410   25.6290   11.9710 O.2    25  HIS25      -0.2718
      5  CB       -18.1710   27.2260    9.4820 C.3    25  HIS25       0.0759
      6  CG       -16.8570   27.9210    9.5920 C.ar   25  HIS25       0.0818
      7  ND1      -16.7530   29.2910    9.5410 N.ar   25  HIS25      -0.2268
      8  CD2      -15.5980   27.4660    9.8180 C.ar   25  HIS25       0.1154
      9  CE1      -15.5050   29.6630    9.7500 C.ar   25  HIS25       0.1986
     10  NE2      -14.7750   28.5740    9.8960 N.ar   25  HIS25      -0.2212
     11  N        -16.5830   24.4550   11.0290 N.am   26  ASN26      -0.1974
     12  CA       -15.9430   24.0270   12.2430 C.3    26  ASN26       0.1688
     13  C        -16.9120   23.2650   13.1580 C.2    26  ASN26       0.2292
     14  O        -16.8680   23.3830   14.3650 O.2    26  ASN26      -0.2864
     15  CB       -15.2800   25.1930   13.0050 C.3    26  ASN26       0.1181
     16  CG       -13.9560   25.6290   12.4240 C.2    26  ASN26       0.2629
     17  OD1      -13.5310   25.2460   11.3570 O.2    26  ASN26      -0.2716
     18  ND2      -13.3080   26.4340   13.1540 N.am   26  ASN26      -0.0877
     19  N        -16.6890   19.6290    8.3340 N.3    47  GLU47      -0.1245
     20  CA       -15.3510   20.1640    8.4360 C.3    47  GLU47       0.1567
     21  C        -14.6500   19.6400    9.6880 C.2    47  GLU47       0.2260
     22  O        -15.2610   19.5930   10.7490 O.2    47  GLU47      -0.2867
     23  CB       -15.4020   21.6930    8.5350 C.3    47  GLU47       0.0388
     24  CG       -14.0310   22.3680    8.5110 C.3    47  GLU47       0.1160
     25  CD       -14.0660   23.8880    8.4300 C.2    47  GLU47       0.3649
     26  OE1      -15.1850   24.4950    8.5100 O.co2  47  GLU47      -0.2457
     27  OE2      -12.9830   24.5160    8.3160 O.co2  47  GLU47      -0.2457
     28  N         -9.4210   23.1720   17.5060 N.3    69  HIS69      -0.1241
     29  CA        -9.3660   24.4650   16.7750 C.3    69  HIS69       0.1621
     30  C         -8.0390   25.1860   16.9770 C.2    69  HIS69       0.2264
     31  O         -7.4390   25.6810   16.0240 O.2    69  HIS69      -0.2867
     32  CB       -10.4910   25.4540   17.0610 C.3    69  HIS69       0.0745
     33  CG       -10.5210   26.6000   16.0670 C.ar   69  HIS69       0.0817
     34  ND1      -11.0810   27.8280   16.3340 N.ar   69  HIS69      -0.2268
     35  CD2      -10.0050   26.6920   14.8090 C.ar   69  HIS69       0.1154
     36  CE1      -10.9380   28.6200   15.2830 C.ar   69  HIS69       0.1986
     37  NE2      -10.3010   27.9470   14.3350 N.ar   69  HIS69      -0.2212
     38  N         -9.2830   20.5600    7.0950 N.3   118  ASP118     -0.1239
     39  CA        -8.5740   21.8430    7.1900 C.3   118  ASP118      0.1674
     40  C         -7.3130   21.6050    7.9660 C.2   118  ASP118      0.2266
     41  O         -7.3260   21.4920    9.1790 O.2   118  ASP118     -0.2867
     42  CB        -9.5270   22.8540    7.8530 C.3   118  ASP118      0.1410
     43  CG        -8.9840   24.2360    7.9480 C.2   118  ASP118      0.3668
     44  OD1       -8.1060   24.5860    7.1580 O.co2 118  ASP118     -0.2456
     45  OD2       -9.5230   25.0520    8.7600 O.co2 118  ASP118     -0.2456
     46  N         -3.8740   22.2470    9.6960 N.3   120  LYS120     -0.1245
     47  CA        -3.3960   23.4190   10.4570 C.3   120  LYS120      0.1561
     48  C         -1.8880   23.6160   10.5770 C.2   120  LYS120      0.2260
     49  O         -1.4070   24.7000   10.9280 O.2   120  LYS120     -0.2867
     50  CB        -4.0600   23.4550   11.8330 C.3   120  LYS120      0.0271
     51  CG        -5.5810   23.6590   11.7690 C.3   120  LYS120      0.0035
     52  CD        -5.9330   25.0680   11.3330 C.3   120  LYS120      0.0206
     53  CE        -7.3960   25.2780   11.2450 C.3   120  LYS120      0.1093
     54  NZ        -7.6730   26.6060   10.6840 N.3   120  LYS120     -0.1314
     55  N         -7.8260   21.6020    2.7360 N.3   188  ASN188     -0.1225
     56  CA        -7.6190   23.0430    2.8540 C.3   188  ASN188      0.1785
     57  C         -6.3970   23.2700    3.7410 C.2   188  ASN188      0.2597
     58  O         -6.0070   22.4310    4.5580 O.2   188  ASN188     -0.2718
     59  CB        -8.7840   23.7810    3.4890 C.3   188  ASN188      0.1169
     60  CG       -10.1080   23.8080    2.6600 C.2   188  ASN188      0.2627
     61  OD1      -10.2280   23.4890    1.4450 O.2   188  ASN188     -0.2716
     62  ND2      -11.1010   24.2490    3.3220 N.am  188  ASN188     -0.0877
     63  N         -5.8200   24.4460    3.5550 N.am  189  HIS189     -0.1961
     64  CA        -4.7370   24.9750    4.3750 C.3   189  HIS189      0.1787
     65  C         -4.6800   26.4670    4.1170 C.2   189  HIS189      0.2620
     66  O         -5.0510   26.9520    3.0400 O.2   189  HIS189     -0.2715
     67  CB        -3.3850   24.2540    4.0390 C.3   189  HIS189      0.0785
     68  CG        -2.2750   24.5270    5.0030 C.ar  189  HIS189      0.0821
     69  ND1       -1.5780   25.7140    5.0200 N.ar  189  HIS189     -0.2267
     70  CD2       -1.7440   23.7730    6.0030 C.ar  189  HIS189      0.1154
     71  CE1       -0.7150   25.7150    6.0100 C.ar  189  HIS189      0.1986
     72  NE2       -0.7760   24.5380    6.6050 N.ar  189  HIS189     -0.2212
     73  N         -4.1820   27.2370    5.0840 N.am  190  SER190     -0.1950
     74  CA        -4.0000   28.6910    4.8420 C.3   190  SER190      0.1924
     75  C         -2.9770   29.0580    3.7610 C.2   190  SER190      0.2314
     76  O         -3.0690   30.1020    3.1340 O.2   190  SER190     -0.2863
     77  CB        -3.7720   29.4390    6.1560 C.3   190  SER190      0.2116
     78  OG        -2.5210   29.1750    6.6320 O.3   190  SER190     -0.2180
     79  N         -6.8490   28.3060   -1.5700 N.3   213  VAL213     -0.1245
     80  CA        -7.2660   29.6470   -1.2540 C.3   213  VAL213      0.1561
     81  C         -7.3540   30.4120   -2.5660 C.2   213  VAL213      0.2260
     82  O         -6.3810   30.4040   -3.3580 O.2   213  VAL213     -0.2867
     83  CB        -6.2490   30.3320   -0.3230 C.3   213  VAL213      0.0252
     84  CG1       -6.5800   31.8120   -0.1760 C.3   213  VAL213      0.0019
     85  CG2       -6.1310   29.6750    1.0390 C.3   213  VAL213      0.0019
     86  N        -11.5620   27.3940   -2.5810 N.3   239  ASN239     -0.1240
     87  CA       -11.9990   27.7910   -1.2340 C.3   239  ASN239      0.1653
     88  C        -11.8400   29.3070   -1.0980 C.2   239  ASN239      0.2266
     89  O        -10.7580   29.8430   -1.3480 O.2   239  ASN239     -0.2867
     90  CB       -11.1760   27.0940   -0.1980 C.3   239  ASN239      0.1155
     91  CG       -11.9120   26.9060    1.1230 C.2   239  ASN239      0.2627
     92  OD1      -13.0680   26.4450    1.1840 O.2   239  ASN239     -0.2716
     93  ND2      -11.2770   27.2930    2.1930 N.am  239  ASN239     -0.0877
     94  N        -16.4390   26.7760   -2.4360 N.3   259  ARG259     -0.1245
     95  CA       -16.8420   26.8890   -1.0270 C.3   259  ARG259      0.1563
     96  C        -16.5260   28.2540   -0.5230 C.2   259  ARG259      0.2260
     97  O        -15.4520   28.7780   -0.7900 O.2   259  ARG259     -0.2867
     98  CB       -16.1530   25.8480   -0.1810 C.3   259  ARG259      0.0307
     99  CG       -16.4700   25.9410    1.3090 C.3   259  ARG259      0.0489
    100  CD       -16.0630   24.6580    2.0300 C.3   259  ARG259      0.2205
    101  NE       -16.2370   24.6770    3.4830 N.pl3 259  ARG259     -0.0865
    102  CZ       -15.4040   25.2940    4.3330 C.cat 259  ARG259      0.5346
    103  NH1      -14.3800   26.0160    3.9130 N.pl3 259  ARG259      0.1354
    104  NH2      -15.6010   25.2400    5.6180 N.pl3 259  ARG259      0.1354
    105  N        -16.5840   30.5060    3.0810 N.3   261  TRP261     -0.1241
    106  CA       -16.6840   30.4880    4.5330 C.3   261  TRP261      0.1605
    107  C        -16.5840   31.8900    5.0690 C.2   261  TRP261      0.2264
    108  O        -16.0570   32.7790    4.4250 O.2   261  TRP261     -0.2867
    109  CB       -15.5680   29.5900    5.1060 C.3   261  TRP261      0.0550
    110  CG       -14.1630   30.0450    4.7750 C.ar  261  TRP261      0.0003
    111  CD1      -13.4230   29.6940    3.6870 C.ar  261  TRP261      0.0946
    112  CD2      -13.3140   30.8850    5.5630 C.ar  261  TRP261      0.0152
    113  NE1      -12.1880   30.2720    3.7380 N.ar  261  TRP261     -0.2442
    114  CE2      -12.0940   31.0220    4.8620 C.ar  261  TRP261      0.0810
    115  CE3      -13.4840   31.5660    6.7580 C.ar  261  TRP261      0.0012
    116  CZ2      -11.0250   31.7850    5.3480 C.ar  261  TRP261      0.0191
    117  CZ3      -12.4340   32.3130    7.2540 C.ar  261  TRP261      0.0001
    118  CH2      -11.2100   32.4610    6.5320 C.ar  261  TRP261      0.0015
@<TRIPOS>BOND
     1    82    81    2
     2    86    87    1
     3    81    80    1
     4    94    95    1
     5    79    80    1
     6    89    88    2
     7    80    83    1
     8    87    88    1
     9    87    90    1
    10    95    96    1
    11    95    98    1
    12    97    96    2
    13    83    84    1
    14    83    85    1
    15    90    91    1
    16    98    99    1
    17    91    92    2
    18    91    93   am
    19    99   100    1
    20    61    60    2
    21   100   101    1
    22    60    62   am
    23    60    59    1
    24    55    56    1
    25    56    59    1
    26    56    57    1
    27    66    65    2
    28   105   106    1
    29    76    75    2
    30   101   102    2
    31    63    57   am
    32    63    64    1
    33   111   113   ar
    34   111   110   ar
    35   113   114   ar
    36    57    58    2
    37    75    74    1
    38   103   102    1
    39    67    64    1
    40    67    68    1
    41    65    64    1
    42    65    73   am
    43   102   104    1
    44   108   107    2
    45   106   107    1
    46   106   109    1
    47   110   109    1
    48   110   112   ar
    49    74    73    1
    50    74    77    1
    51   114   116   ar
    52   114   112   ar
    53    68    69   ar
    54    68    70   ar
    55    69    71   ar
    56   116   118   ar
    57   112   115   ar
    58    70    72   ar
    59    71    72   ar
    60    77    78    1
    61   118   117   ar
    62   115   117   ar
    63    38    39    1
    64    44    43   ar
    65    39    42    1
    66    39    40    1
    67    42    43    1
    68    43    45   ar
    69    40    41    2
    70    27    25   ar
    71    19    20    1
    72    25    26   ar
    73    25    24    1
    74    20    23    1
    75    20    21    1
    76    24    23    1
    77     1     2    1
    78     5     6    1
    79     5     2    1
    80     7     6   ar
    81     7     9   ar
    82     6     8   ar
    83     2     3    1
    84    21    22    2
    85    46    47    1
    86     9    10   ar
    87     8    10   ar
    88    47    48    1
    89    47    50    1
    90    48    49    2
    91    54    53    1
    92     3    11   am
    93     3     4    2
    94    11    12    1
    95    53    52    1
    96    52    51    1
    97    17    16    2
    98    51    50    1
    99    12    15    1
   100    12    13    1
   101    16    15    1
   102    16    18   am
   103    13    14    2
   104    37    35   ar
   105    37    36   ar
   106    35    33   ar
   107    36    34   ar
   108    31    30    2
   109    33    34   ar
   110    33    32    1
   111    29    30    1
   112    29    32    1
   113    29    28    1
