@<TRIPOS>MOLECULE
tmp/5fytA00.pdb
 154 146 0 0 0
SMALL
GASTEIGER

@<TRIPOS>ATOM
      1  N         82.8790   56.8690    5.2020 N.3    75  ARG75      -0.1231
      2  CA        82.4580   57.4670    6.4660 C.3    75  ARG75       0.1694
      3  C         82.3660   56.4040    7.5530 C.2    75  ARG75       0.2591
      4  O         81.8510   55.3130    7.3160 O.2    75  ARG75      -0.2718
      5  CB        81.1080   58.1680    6.2990 C.3    75  ARG75       0.0321
      6  CG        81.0200   59.5310    6.9530 C.3    75  ARG75       0.0489
      7  CD        79.6750   60.1850    6.6700 C.3    75  ARG75       0.2205
      8  NE        79.5450   61.4920    7.3100 N.pl3  75  ARG75      -0.0865
      9  CZ        79.6050   62.6560    6.6680 C.cat  75  ARG75       0.5346
     10  NH1       79.7880   62.6890    5.3550 N.pl3  75  ARG75       0.1354
     11  NH2       79.4690   63.7900    7.3420 N.pl3  75  ARG75       0.1354
     12  N         82.8670   56.7220    8.7430 N.am   76  VAL76      -0.1980
     13  CA        82.8920   55.7530    9.8340 C.3    76  VAL76       0.1595
     14  C         81.4810   55.3200   10.2530 C.2    76  VAL76       0.2287
     15  O         80.5440   56.1230   10.2910 O.2    76  VAL76      -0.2864
     16  CB        83.6710   56.3120   11.0670 C.3    76  VAL76       0.0276
     17  CG1       82.9100   57.4130   11.7350 C.3    76  VAL76       0.0022
     18  CG2       83.9170   55.2310   12.0620 C.3    76  VAL76       0.0022
     19  N         93.3130   55.2430   14.3500 N.3   129  TYR129     -0.1241
     20  CA        92.5870   56.1870   15.1920 C.3   129  TYR129      0.1605
     21  C         91.3760   55.5120   15.8200 C.2   129  TYR129      0.2264
     22  O         90.9870   54.4180   15.4160 O.2   129  TYR129     -0.2867
     23  CB        92.1490   57.4190   14.3850 C.3   129  TYR129      0.0534
     24  CG        91.2030   57.0810   13.2600 C.ar  129  TYR129     -0.0201
     25  CD1       91.6820   56.6300   12.0290 C.ar  129  TYR129     -0.0009
     26  CD2       89.8260   57.1850   13.4310 C.ar  129  TYR129     -0.0009
     27  CE1       90.8090   56.3000   10.9950 C.ar  129  TYR129      0.0417
     28  CE2       88.9530   56.8510   12.4110 C.ar  129  TYR129      0.0417
     29  CZ        89.4490   56.4120   11.1960 C.ar  129  TYR129      0.1957
     30  OH        88.5710   56.0880   10.1850 O.3   129  TYR129     -0.2866
     31  N         87.2350   55.9500   16.7560 N.3   131  ALA131     -0.1245
     32  CA        86.0030   56.6910   16.5180 C.3   131  ALA131      0.1562
     33  C         84.8120   55.8270   16.8950 C.2   131  ALA131      0.2260
     34  O         84.5750   54.8030   16.2650 O.2   131  ALA131     -0.2867
     35  CB        85.8900   57.1350   15.0500 C.3   131  ALA131      0.0290
     36  N         86.8510   60.4830   19.8620 N.3   190  TYR190     -0.1241
     37  CA        87.9090   60.3960   18.8490 C.3   190  TYR190      0.1605
     38  C         89.3170   60.4160   19.4520 C.2   190  TYR190      0.2264
     39  O         89.8210   61.4700   19.8100 O.2   190  TYR190     -0.2867
     40  CB        87.7860   61.5530   17.8690 C.3   190  TYR190      0.0534
     41  CG        86.5020   61.5910   17.0590 C.ar  190  TYR190     -0.0201
     42  CD1       86.2390   60.6230   16.0960 C.ar  190  TYR190     -0.0009
     43  CD2       85.5790   62.6180   17.2320 C.ar  190  TYR190     -0.0009
     44  CE1       85.0700   60.6590   15.3330 C.ar  190  TYR190      0.0417
     45  CE2       84.4060   62.6650   16.4730 C.ar  190  TYR190      0.0417
     46  CZ        84.1690   61.6860   15.5200 C.ar  190  TYR190      0.1957
     47  OH        83.0130   61.7320   14.7720 O.3   190  TYR190     -0.2866
     48  N         93.1590   61.6000   10.3210 N.3   197  SER197     -0.1202
     49  CA        92.5510   62.6820    9.5880 C.3   197  SER197      0.2020
     50  C         91.0430   62.4940    9.4210 C.2   197  SER197      0.2619
     51  O         90.5600   61.3670    9.3020 O.2   197  SER197     -0.2717
     52  CB        93.2420   62.7870    8.2090 C.3   197  SER197      0.2103
     53  OG        92.7560   63.9040    7.4850 O.3   197  SER197     -0.2182
     54  N         90.3100   63.5970    9.4040 N.am  198  PHE198     -0.1961
     55  CA        88.9130   63.5230    8.9940 C.3   198  PHE198      0.1771
     56  C         88.7570   64.1830    7.6350 C.2   198  PHE198      0.2619
     57  O         89.1590   65.3310    7.4190 O.2   198  PHE198     -0.2715
     58  CB        87.9390   64.1280   10.0420 C.3   198  PHE198      0.0574
     59  CG        88.3160   65.4940   10.5850 C.ar  198  PHE198     -0.0200
     60  CD1       89.3180   65.6330   11.5420 C.ar  198  PHE198     -0.0042
     61  CD2       87.5830   66.6190   10.2270 C.ar  198  PHE198     -0.0042
     62  CE1       89.6350   66.8820   12.0820 C.ar  198  PHE198     -0.0003
     63  CE2       87.8800   67.8730   10.7660 C.ar  198  PHE198     -0.0003
     64  CZ        88.9180   68.0030   11.6980 C.ar  198  PHE198     -0.0000
     65  N         88.1680   63.4240    6.7180 N.am  199  CYS199     -0.1968
     66  CA        87.9320   63.9010    5.3590 C.3   199  CYS199      0.1712
     67  C         86.8900   65.0150    5.3180 C.2   199  CYS199      0.2296
     68  O         86.1350   65.2010    6.2700 O.2   199  CYS199     -0.2864
     69  CB        87.4880   62.7380    4.4720 C.3   199  CYS199      0.0983
     70  SG        88.7080   61.4010    4.3260 S.3   199  CYS199     -0.0798
     71  N         83.6870   66.8820    5.0150 N.3   201  HIS201     -0.1241
     72  CA        82.2990   66.4550    5.1740 C.3   201  HIS201      0.1621
     73  C         81.4690   67.5790    5.7600 C.2   201  HIS201      0.2264
     74  O         82.0050   68.5500    6.3080 O.2   201  HIS201     -0.2867
     75  CB        82.2150   65.2260    6.0810 C.3   201  HIS201      0.0745
     76  CG        82.5210   65.5310    7.5190 C.ar  201  HIS201      0.0817
     77  ND1       83.8060   65.6490    7.9920 N.ar  201  HIS201     -0.2268
     78  CD2       81.7000   65.7720    8.5720 C.ar  201  HIS201      0.1154
     79  CE1       83.7710   65.9440    9.2890 C.ar  201  HIS201      0.1986
     80  NE2       82.5070   66.0200    9.6600 N.ar  201  HIS201     -0.2212
     81  N         77.6690   67.8160    8.2590 N.3   203  GLU203     -0.1245
     82  CA        76.9810   66.9590    9.2140 C.3   203  GLU203      0.1567
     83  C         75.6440   66.4970    8.6460 C.2   203  GLU203      0.2260
     84  O         75.0660   67.1720    7.7920 O.2   203  GLU203     -0.2867
     85  CB        76.7580   67.6910   10.5340 C.3   203  GLU203      0.0388
     86  CG        78.0240   68.2260   11.1490 C.3   203  GLU203      0.1160
     87  CD        79.0750   67.1640   11.3640 C.2   203  GLU203      0.3649
     88  OE1       78.7670   66.1030   11.9390 O.co2 203  GLU203     -0.2457
     89  OE2       80.2240   67.3970   10.9350 O.co2 203  GLU203     -0.2457
     90  N         77.7250   71.2180   14.5400 N.3   209  SER209     -0.1217
     91  CA        78.4300   70.3170   15.4430 C.3   209  SER209      0.1889
     92  C         79.3060   71.1480   16.3660 C.2   209  SER209      0.2288
     93  O         79.5900   72.3160   16.1050 O.2   209  SER209     -0.2866
     94  CB        79.2810   69.2790   14.7070 C.3   209  SER209      0.2089
     95  OG        80.4170   69.8910   14.0980 O.3   209  SER209     -0.2183
     96  N         82.8700   70.3860   18.8190 N.3   211  ASN211     -0.1240
     97  CA        83.9460   69.4420   19.0240 C.3   211  ASN211      0.1653
     98  C         84.8230   69.9820   20.1430 C.2   211  ASN211      0.2266
     99  O         85.2720   71.1170   20.0740 O.2   211  ASN211     -0.2867
    100  CB        84.7550   69.2670   17.7160 C.3   211  ASN211      0.1155
    101  CG        85.8530   68.2100   17.8350 C.2   211  ASN211      0.2627
    102  OD1       86.7010   68.2770   18.7270 O.2   211  ASN211     -0.2716
    103  ND2       85.8210   67.2080   16.9480 N.am  211  ASN211     -0.0877
    104  N         94.5220   69.7740   17.2520 N.3   219  LYS219     -0.1245
    105  CA        93.7940   69.2920   16.0790 C.3   219  LYS219      0.1561
    106  C         93.7320   70.4450   15.1090 C.2   219  LYS219      0.2260
    107  O         93.3260   71.5520   15.4700 O.2   219  LYS219     -0.2867
    108  CB        92.3870   68.7920   16.4590 C.3   219  LYS219      0.0271
    109  CG        91.6000   68.1430   15.3110 C.3   219  LYS219      0.0035
    110  CD        90.1520   67.8150   15.7470 C.3   219  LYS219      0.0206
    111  CE        90.0860   66.8960   16.9660 C.3   219  LYS219      0.1093
    112  NZ        90.4240   65.4880   16.6160 N.3   219  LYS219     -0.1314
    113  N         92.2830   72.2470   11.7920 N.3   221  TRP221     -0.1241
    114  CA        91.0040   72.2790   11.0770 C.3   221  TRP221      0.1605
    115  C         91.0560   73.1080    9.8270 C.2   221  TRP221      0.2264
    116  O         91.7430   74.1300    9.7890 O.2   221  TRP221     -0.2867
    117  CB        89.9000   72.8880   11.9550 C.3   221  TRP221      0.0550
    118  CG        89.4920   72.0700   13.1340 C.ar  221  TRP221      0.0003
    119  CD1       90.2080   71.8570   14.2850 C.ar  221  TRP221      0.0946
    120  CD2       88.2390   71.3980   13.3060 C.ar  221  TRP221      0.0152
    121  NE1       89.4800   71.0710   15.1530 N.ar  221  TRP221     -0.2442
    122  CE2       88.2680   70.7760   14.5790 C.ar  221  TRP221      0.0810
    123  CE3       87.0970   71.2530   12.5010 C.ar  221  TRP221      0.0012
    124  CZ2       87.1990   70.0130   15.0710 C.ar  221  TRP221      0.0191
    125  CZ3       86.0240   70.4950   12.9920 C.ar  221  TRP221      0.0001
    126  CH2       86.0870   69.8820   14.2630 C.ar  221  TRP221      0.0015
    127  N         84.0560   70.7840    6.5560 N.3   289  HIS289     -0.1241
    128  CA        85.2860   70.8360    7.3290 C.3   289  HIS289      0.1621
    129  C         86.0820   69.5600    7.1760 C.2   289  HIS289      0.2264
    130  O         85.5400   68.4970    6.8630 O.2   289  HIS289     -0.2867
    131  CB        85.0080   71.1210    8.8190 C.3   289  HIS289      0.0745
    132  CG        83.9670   70.2360    9.4410 C.ar  289  HIS289      0.0817
    133  ND1       82.6170   70.4410    9.2540 N.ar  289  HIS289     -0.2268
    134  CD2       84.0760   69.1750   10.2780 C.ar  289  HIS289      0.1154
    135  CE1       81.9370   69.5340    9.9370 C.ar  289  HIS289      0.1986
    136  NE2       82.7970   68.7530   10.5660 N.ar  289  HIS289     -0.2212
    137  N         95.0720   65.3800   13.1520 N.3   293  ASN293     -0.1240
    138  CA        95.6530   65.5670   14.4640 C.3   293  ASN293      0.1653
    139  C         97.1560   65.7750   14.3940 C.2   293  ASN293      0.2266
    140  O         97.8310   65.1630   13.5720 O.2   293  ASN293     -0.2867
    141  CB        95.3050   64.3700   15.3230 C.3   293  ASN293      0.1155
    142  CG        93.8120   64.2570   15.5140 C.2   293  ASN293      0.2627
    143  OD1       93.1800   65.2060   15.9850 O.2   293  ASN293     -0.2716
    144  ND2       93.2340   63.1520   15.0810 N.am  293  ASN293     -0.0877
    145  N         89.3540   63.7640   21.5220 N.3   299  ALA299     -0.1245
    146  CA        88.3100   64.7490   21.2820 C.3   299  ALA299      0.1562
    147  C         86.9410   64.0920   21.3930 C.2   299  ALA299      0.2260
    148  O         86.8150   62.8770   21.3220 O.2   299  ALA299     -0.2867
    149  CB        88.4690   65.4000   19.9100 C.3   299  ALA299      0.0290
    150  N         82.7940   65.0360   20.1580 N.3   301  ALA301     -0.1245
    151  CA        82.0040   65.9470   19.3590 C.3   301  ALA301      0.1562
    152  C         80.5480   65.4860   19.2870 C.2   301  ALA301      0.2260
    153  O         80.2690   64.2940   19.3640 O.2   301  ALA301     -0.2867
    154  CB        82.5890   66.0680   17.9530 C.3   301  ALA301      0.0290
@<TRIPOS>BOND
     1    70    69    1
     2    69    66    1
     3    71    72    1
     4    72    73    1
     5    72    75    1
     6     1     2    1
     7    67    66    1
     8    67    68    2
     9    10     9    1
    10    66    65    1
    11    73    74    2
    12    75    76    1
    13     5     2    1
    14     5     6    1
    15     2     3    1
    16   127   128    1
    17     9     8    2
    18     9    11    1
    19     7     6    1
    20     7     8    1
    21    65    56   am
    22   130   129    2
    23   129   128    1
    24     4     3    2
    25   128   131    1
    26    57    56    2
    27    53    52    1
    28    76    77   ar
    29    76    78   ar
    30     3    12   am
    31    56    55    1
    32    84    83    2
    33    77    79   ar
    34    52    49    1
    35    81    82    1
    36    78    80   ar
    37    83    82    1
    38    12    13    1
    39   131   132    1
    40    55    54    1
    41    55    58    1
    42    82    85    1
    43   133   132   ar
    44   133   135   ar
    45    79    80   ar
    46    51    50    2
    47    54    50   am
    48    50    49    1
    49   132   134   ar
    50    49    48    1
    51   116   115    2
    52   115   114    1
    53    13    14    1
    54    13    16    1
    55   135   136   ar
    56    58    59    1
    57    30    29    1
    58    61    59   ar
    59    61    63   ar
    60    14    15    2
    61   134   136   ar
    62    85    86    1
    63    59    60   ar
    64    63    64   ar
    65    89    87   ar
    66    27    29   ar
    67    27    25   ar
    68    16    17    1
    69    16    18    1
    70   114   113    1
    71   114   117    1
    72    86    87    1
    73    29    28   ar
    74    87    88   ar
    75    60    62   ar
    76    64    62   ar
    77   117   118    1
    78    25    24   ar
    79    28    26   ar
    80   123   125   ar
    81   123   120   ar
    82   125   126   ar
    83   118   120   ar
    84   118   119   ar
    85   137   138    1
    86    24    26   ar
    87    24    23    1
    88   120   122   ar
    89   140   139    2
    90    95    94    1
    91   126   124   ar
    92   119   121   ar
    93    19    20    1
    94    23    20    1
    95   139   138    1
    96   138   141    1
    97    90    91    1
    98   122   124   ar
    99   122   121   ar
   100    94    91    1
   101    47    46    1
   102    35    32    1
   103   144   142   am
   104   106   107    2
   105   106   105    1
   106    20    21    1
   107   109   110    1
   108   109   108    1
   109   141   142    1
   110    44    46   ar
   111    44    42   ar
   112    22    21    2
   113    91    92    1
   114   142   143    2
   115    46    45   ar
   116   110   111    1
   117   105   108    1
   118   105   104    1
   119    42    41   ar
   120    93    92    2
   121    34    33    2
   122    45    43   ar
   123    32    31    1
   124    32    33    1
   125   112   111    1
   126   103   101   am
   127    41    43   ar
   128    41    40    1
   129   100   101    1
   130   100    97    1
   131   101   102    2
   132    40    37    1
   133   154   151    1
   134    96    97    1
   135    37    38    1
   136    37    36    1
   137    97    98    1
   138   152   151    1
   139   152   153    2
   140   151   150    1
   141    38    39    2
   142   149   146    1
   143    99    98    2
   144   146   147    1
   145   146   145    1
   146   148   147    2
