@<TRIPOS>MOLECULE
tmp/5fyuA00.pdb
 128 123 0 0 0
SMALL
GASTEIGER

@<TRIPOS>ATOM
      1  N         83.0720   56.9010    8.8880 N.3    76  VAL76      -0.1245
      2  CA        83.2460   55.8890    9.9160 C.3    76  VAL76       0.1561
      3  C         81.9160   55.2260   10.3170 C.2    76  VAL76       0.2260
      4  O         80.8650   55.8740   10.4210 O.2    76  VAL76      -0.2867
      5  CB        83.9670   56.4910   11.1510 C.3    76  VAL76       0.0252
      6  CG1       83.0300   57.3550   11.9700 C.3    76  VAL76       0.0019
      7  CG2       84.5320   55.3980   12.0010 C.3    76  VAL76       0.0019
      8  N         93.5400   55.1360   14.3320 N.3   129  TYR129     -0.1227
      9  CA        92.8260   56.0780   15.1760 C.3   129  TYR129      0.1736
     10  C         91.6380   55.3860   15.8340 C.2   129  TYR129      0.2596
     11  O         91.2440   54.2850   15.4300 O.2   129  TYR129     -0.2718
     12  CB        92.3550   57.2900   14.3710 C.3   129  TYR129      0.0548
     13  CG        91.3500   56.9500   13.2900 C.ar  129  TYR129     -0.0200
     14  CD1       91.7550   56.3710   12.0920 C.ar  129  TYR129     -0.0009
     15  CD2       89.9900   57.1910   13.4760 C.ar  129  TYR129     -0.0009
     16  CE1       90.8430   56.0550   11.1030 C.ar  129  TYR129      0.0417
     17  CE2       89.0620   56.8720   12.4830 C.ar  129  TYR129      0.0417
     18  CZ        89.5020   56.3070   11.3020 C.ar  129  TYR129      0.1957
     19  OH        88.6020   55.9910   10.3140 O.3   129  TYR129     -0.2866
     20  N         91.0890   56.0220   16.8580 N.am  130  GLY130     -0.1957
     21  CA        89.8630   55.5380   17.4700 C.3   130  GLY130      0.1869
     22  C         88.6910   56.4360   17.1270 C.2   130  GLY130      0.2309
     23  O         88.8190   57.6580   17.1280 O.2   130  GLY130     -0.2863
     24  N         87.0550   60.4800   19.8500 N.3   191  TYR191     -0.1227
     25  CA        88.1200   60.3390   18.8440 C.3   191  TYR191      0.1736
     26  C         89.5090   60.3410   19.4660 C.2   191  TYR191      0.2595
     27  O         89.9680   61.3620   19.9920 O.2   191  TYR191     -0.2718
     28  CB        88.0520   61.4570   17.8060 C.3   191  TYR191      0.0548
     29  CG        86.7560   61.5370   17.0330 C.ar  191  TYR191     -0.0200
     30  CD1       86.3690   60.5180   16.1640 C.ar  191  TYR191     -0.0009
     31  CD2       85.9460   62.6580   17.1310 C.ar  191  TYR191     -0.0009
     32  CE1       85.1740   60.6020   15.4390 C.ar  191  TYR191      0.0417
     33  CE2       84.7680   62.7560   16.4060 C.ar  191  TYR191      0.0417
     34  CZ        84.3880   61.7310   15.5670 C.ar  191  TYR191      0.1957
     35  OH        83.2110   61.8540   14.8640 O.3   191  TYR191     -0.2866
     36  N         90.1720   59.2000   19.3920 N.am  192  VAL192     -0.1966
     37  CA        91.5560   59.0860   19.8200 C.3   192  VAL192      0.1727
     38  C         92.4980   59.2640   18.6110 C.2   192  VAL192      0.2616
     39  O         92.5090   58.4410   17.6880 O.2   192  VAL192     -0.2715
     40  CB        91.7980   57.7470   20.5050 C.3   192  VAL192      0.0290
     41  CG1       93.2550   57.6190   20.9350 C.3   192  VAL192      0.0023
     42  CG2       90.8900   57.6410   21.7170 C.3   192  VAL192      0.0023
     43  N         93.2560   60.3560   18.6000 N.am  193  GLY193     -0.1955
     44  CA        94.1110   60.6580   17.4590 C.3   193  GLY193      0.1869
     45  C         95.5920   60.2910   17.6050 C.2   193  GLY193      0.2309
     46  O         96.0960   60.0430   18.7080 O.2   193  GLY193     -0.2863
     47  N         96.5740   61.2800   11.6160 N.3   197  SER197     -0.1202
     48  CA        95.2530   60.6700   11.4620 C.3   197  SER197      0.2020
     49  C         94.3110   61.8350   11.1830 C.2   197  SER197      0.2619
     50  O         94.4570   62.9080   11.7660 O.2   197  SER197     -0.2717
     51  CB        94.8280   59.8390   12.6940 C.3   197  SER197      0.2103
     52  OG        94.6510   60.6470   13.8510 O.3   197  SER197     -0.2182
     53  N         93.3910   61.6410   10.2430 N.am  198  SER198     -0.1937
     54  CA        92.6500   62.7670    9.7020 C.3   198  SER198      0.2055
     55  C         91.1850   62.4590    9.4380 C.2   198  SER198      0.2643
     56  O         90.7690   61.2970    9.2930 O.2   198  SER198     -0.2714
     57  CB        93.3060   63.2460    8.3960 C.3   198  SER198      0.2130
     58  OG        93.2400   62.2270    7.4240 O.3   198  SER198     -0.2179
     59  N         90.3940   63.5120    9.3750 N.am  199  PHE199     -0.1973
     60  CA        89.0050   63.3370    8.9990 C.3   199  PHE199      0.1639
     61  C         88.7880   64.0640    7.6870 C.2   199  PHE199      0.2290
     62  O         89.1540   65.2320    7.5580 O.2   199  PHE199     -0.2864
     63  CB        88.0530   63.8200   10.1160 C.3   199  PHE199      0.0560
     64  CG        88.4180   65.1570   10.7360 C.ar  199  PHE199     -0.0200
     65  CD1       89.4310   65.2530   11.6820 C.ar  199  PHE199     -0.0042
     66  CD2       87.7000   66.3030   10.4210 C.ar  199  PHE199     -0.0042
     67  CE1       89.7530   66.4770   12.2720 C.ar  199  PHE199     -0.0003
     68  CE2       88.0030   67.5150   11.0090 C.ar  199  PHE199     -0.0003
     69  CZ        89.0400   67.6050   11.9430 C.ar  199  PHE199     -0.0000
     70  N         83.7120   66.8870    4.9760 N.3   202  HIS202     -0.1241
     71  CA        82.3190   66.4670    5.1390 C.3   202  HIS202      0.1621
     72  C         81.5160   67.6020    5.7440 C.2   202  HIS202      0.2264
     73  O         82.0760   68.5560    6.2990 O.2   202  HIS202     -0.2867
     74  CB        82.2160   65.2190    6.0310 C.3   202  HIS202      0.0745
     75  CG        82.4290   65.5040    7.4910 C.ar  202  HIS202      0.0817
     76  ND1       83.6860   65.6200    8.0510 N.ar  202  HIS202     -0.2268
     77  CD2       81.5490   65.7080    8.5040 C.ar  202  HIS202      0.1154
     78  CE1       83.5710   65.8720    9.3450 C.ar  202  HIS202      0.1986
     79  NE2       82.2850   65.9310    9.6460 N.ar  202  HIS202     -0.2212
     80  N         83.1300   70.2830   18.8920 N.3   212  ASN212     -0.1240
     81  CA        84.2230   69.3500   19.1560 C.3   212  ASN212      0.1653
     82  C         85.0490   69.8840   20.3280 C.2   212  ASN212      0.2266
     83  O         85.4600   71.0450   20.3270 O.2   212  ASN212     -0.2867
     84  CB        85.1080   69.1870   17.8970 C.3   212  ASN212      0.1155
     85  CG        86.2330   68.1450   18.0750 C.2   212  ASN212      0.2627
     86  OD1       87.1280   68.3140   18.9050 O.2   212  ASN212     -0.2716
     87  ND2       86.1960   67.0740   17.2660 N.am  212  ASN212     -0.0877
     88  N         94.7470   69.6530   17.2850 N.3   220  LYS220     -0.1245
     89  CA        94.0130   69.1290   16.1460 C.3   220  LYS220      0.1561
     90  C         93.9230   70.2680   15.1530 C.2   220  LYS220      0.2260
     91  O         93.5140   71.3660   15.5040 O.2   220  LYS220     -0.2867
     92  CB        92.6270   68.6280   16.5730 C.3   220  LYS220      0.0271
     93  CG        91.8000   67.9790   15.4630 C.3   220  LYS220      0.0035
     94  CD        90.3870   67.5700   15.9520 C.3   220  LYS220      0.0206
     95  CE        90.4450   66.5100   17.0430 C.3   220  LYS220      0.1093
     96  NZ        90.7580   65.1780   16.4660 N.3   220  LYS220     -0.1314
     97  N         92.4500   72.1370   11.8890 N.3   222  TRP222     -0.1241
     98  CA        91.1550   72.1920   11.2050 C.3   222  TRP222      0.1605
     99  C         91.1710   73.0440    9.9600 C.2   222  TRP222      0.2264
    100  O         91.8420   74.0790    9.9190 O.2   222  TRP222     -0.2867
    101  CB        90.0840   72.7800   12.1250 C.3   222  TRP222      0.0550
    102  CG        89.6560   71.9070   13.2500 C.ar  222  TRP222      0.0003
    103  CD1       90.3450   71.6410   14.3980 C.ar  222  TRP222      0.0946
    104  CD2       88.4100   71.2280   13.3580 C.ar  222  TRP222      0.0152
    105  NE1       89.6130   70.8140   15.2060 N.ar  222  TRP222     -0.2442
    106  CE2       88.4170   70.5400   14.5880 C.ar  222  TRP222      0.0810
    107  CE3       87.2820   71.1320   12.5260 C.ar  222  TRP222      0.0012
    108  CZ2       87.3350   69.7650   15.0230 C.ar  222  TRP222      0.0191
    109  CZ3       86.2050   70.3500   12.9520 C.ar  222  TRP222      0.0001
    110  CH2       86.2420   69.6760   14.1900 C.ar  222  TRP222      0.0015
    111  N         95.2390   65.2300   13.1200 N.3   294  ASN294     -0.1240
    112  CA        95.8270   65.3820   14.4370 C.3   294  ASN294      0.1653
    113  C         97.3400   65.5850   14.3670 C.2   294  ASN294      0.2266
    114  O         98.0230   64.9330   13.5790 O.2   294  ASN294     -0.2867
    115  CB        95.4820   64.1680   15.2700 C.3   294  ASN294      0.1155
    116  CG        93.9930   64.0630   15.4910 C.2   294  ASN294      0.2627
    117  OD1       93.3780   65.0030   15.9840 O.2   294  ASN294     -0.2716
    118  ND2       93.4000   62.9690   15.0500 N.am  294  ASN294     -0.0877
    119  N         89.5420   63.6880   21.6570 N.3   300  ALA300     -0.1245
    120  CA        88.5170   64.6720   21.3820 C.3   300  ALA300      0.1562
    121  C         87.1580   64.0130   21.5280 C.2   300  ALA300      0.2260
    122  O         87.0390   62.7890   21.4620 O.2   300  ALA300     -0.2867
    123  CB        88.6680   65.2660   19.9870 C.3   300  ALA300      0.0290
    124  N         82.9930   64.9160   20.3420 N.3   302  ALA302     -0.1245
    125  CA        82.2040   65.7940   19.4900 C.3   302  ALA302      0.1562
    126  C         80.7340   65.3630   19.4430 C.2   302  ALA302      0.2260
    127  O         80.4190   64.1930   19.6060 O.2   302  ALA302     -0.2867
    128  CB        82.8000   65.8240   18.0640 C.3   302  ALA302      0.0290
@<TRIPOS>BOND
     1    70    71    1
     2    71    72    1
     3    71    74    1
     4    72    73    2
     5    74    75    1
     6    58    57    1
     7    75    76   ar
     8    75    77   ar
     9    62    61    2
    10    61    60    1
    11    76    78   ar
    12    57    54    1
    13    77    79   ar
    14     1     2    1
    15    60    59    1
    16    60    63    1
    17    56    55    2
    18    78    79   ar
    19    59    55   am
    20    55    54    1
    21    54    53    1
    22     2     3    1
    23     2     5    1
    24   100    99    2
    25    99    98    1
    26    63    64    1
    27    53    49   am
    28    19    18    1
    29     3     4    2
    30    66    64   ar
    31    66    68   ar
    32    64    65   ar
    33    68    69   ar
    34    16    18   ar
    35    16    14   ar
    36     5     6    1
    37     5     7    1
    38    49    48    1
    39    49    50    2
    40    98    97    1
    41    98   101    1
    42    18    17   ar
    43    48    47    1
    44    48    51    1
    45    65    67   ar
    46    69    67   ar
    47    14    13   ar
    48   101   102    1
    49    17    15   ar
    50   107   109   ar
    51   107   104   ar
    52    51    52    1
    53   109   110   ar
    54   111   112    1
    55   102   104   ar
    56   102   103   ar
    57    13    15   ar
    58    13    12    1
    59   104   106   ar
    60   114   113    2
    61   110   108   ar
    62     8     9    1
    63   113   112    1
    64    12     9    1
    65   103   105   ar
    66   112   115    1
    67   106   108   ar
    68   106   105   ar
    69    35    34    1
    70   118   116   am
    71    90    91    2
    72    90    89    1
    73     9    10    1
    74   115   116    1
    75    11    10    2
    76    32    34   ar
    77    32    30   ar
    78    93    94    1
    79    93    92    1
    80   116   117    2
    81    34    33   ar
    82    10    20   am
    83    94    95    1
    84    89    92    1
    85    89    88    1
    86    30    29   ar
    87    33    31   ar
    88    96    95    1
    89    20    21    1
    90    29    31   ar
    91    29    28    1
    92    22    23    2
    93    22    21    1
    94    87    85   am
    95    44    45    1
    96    44    43    1
    97    45    46    2
    98    39    38    2
    99    28    25    1
   100    84    85    1
   101    84    81    1
   102   128   125    1
   103    85    86    2
   104    43    38   am
   105    38    37    1
   106    25    26    1
   107    25    24    1
   108    80    81    1
   109    81    82    1
   110    36    26   am
   111    36    37    1
   112   126   125    1
   113   126   127    2
   114    26    27    2
   115   125   124    1
   116    37    40    1
   117   123   120    1
   118    83    82    2
   119    40    41    1
   120    40    42    1
   121   120   121    1
   122   120   119    1
   123   122   121    2
