@<TRIPOS>MOLECULE
tmp/5fyxA04.pdb
 172 170 0 0 0
SMALL
GASTEIGER

@<TRIPOS>ATOM
      1  N         16.0800  -24.0080  -32.6720 N.3    24  TRP24      -0.1241
      2  CA        15.0610  -23.5940  -31.7170 C.3    24  TRP24       0.1605
      3  C         13.7250  -23.3310  -32.4130 C.2    24  TRP24       0.2264
      4  O         12.6650  -23.5660  -31.8330 O.2    24  TRP24      -0.2867
      5  CB        15.5020  -22.3420  -30.9560 C.3    24  TRP24       0.0550
      6  CG        16.1920  -22.6260  -29.6410 C.ar   24  TRP24       0.0003
      7  CD1       17.4910  -22.3510  -29.3180 C.ar   24  TRP24       0.0946
      8  CD2       15.6150  -23.2430  -28.4860 C.ar   24  TRP24       0.0152
      9  NE1       17.7550  -22.7540  -28.0320 N.ar   24  TRP24      -0.2442
     10  CE2       16.6200  -23.3080  -27.4990 C.ar   24  TRP24       0.0810
     11  CE3       14.3430  -23.7460  -28.1870 C.ar   24  TRP24       0.0012
     12  CZ2       16.3940  -23.8570  -26.2360 C.ar   24  TRP24       0.0191
     13  CZ3       14.1200  -24.2910  -26.9320 C.ar   24  TRP24       0.0001
     14  CH2       15.1390  -24.3400  -25.9730 C.ar   24  TRP24       0.0015
     15  N          3.0350  -21.8880  -21.7280 N.3    42  PHE42      -0.1241
     16  CA         4.2230  -21.5700  -20.9430 C.3    42  PHE42       0.1605
     17  C          4.1870  -22.2760  -19.5910 C.2    42  PHE42       0.2264
     18  O          5.2150  -22.7470  -19.1020 O.2    42  PHE42      -0.2867
     19  CB         4.3400  -20.0590  -20.7490 C.3    42  PHE42       0.0534
     20  CG         5.7370  -19.5920  -20.4730 C.ar   42  PHE42      -0.0203
     21  CD1        6.6550  -19.4810  -21.5020 C.ar   42  PHE42      -0.0042
     22  CD2        6.1290  -19.2530  -19.1910 C.ar   42  PHE42      -0.0042
     23  CE1        7.9410  -19.0510  -21.2610 C.ar   42  PHE42      -0.0003
     24  CE2        7.4200  -18.8190  -18.9400 C.ar   42  PHE42      -0.0003
     25  CZ         8.3230  -18.7200  -19.9790 C.ar   42  PHE42      -0.0000
     26  N          4.9060  -25.8830  -19.8550 N.3    45  ILE45      -0.1231
     27  CA         6.3410  -26.0480  -20.0180 C.3    45  ILE45       0.1692
     28  C          6.9880  -26.2370  -18.6490 C.2    45  ILE45       0.2592
     29  O          7.8390  -27.1030  -18.4700 O.2    45  ILE45      -0.2718
     30  CB         6.9570  -24.8520  -20.7660 C.3    45  ILE45       0.0266
     31  CG1        6.5360  -24.8730  -22.2330 C.3    45  ILE45       0.0019
     32  CG2        8.4690  -24.8910  -20.6750 C.3    45  ILE45       0.0020
     33  CD1        7.2280  -23.8250  -23.0850 C.3    45  ILE45       0.0001
     34  N          6.5680  -25.4270  -17.6820 N.am   46  TYR46      -0.1976
     35  CA         7.1060  -25.4970  -16.3270 C.3    46  TYR46       0.1639
     36  C          6.5620  -26.6960  -15.5520 C.2    46  TYR46       0.2290
     37  O          7.2690  -27.2920  -14.7370 O.2    46  TYR46      -0.2864
     38  CB         6.7990  -24.2100  -15.5660 C.3    46  TYR46       0.0560
     39  CG         7.8680  -23.1510  -15.7030 C.ar   46  TYR46      -0.0198
     40  CD1        7.8320  -22.2270  -16.7370 C.ar   46  TYR46      -0.0009
     41  CD2        8.9070  -23.0700  -14.7870 C.ar   46  TYR46      -0.0009
     42  CE1        8.8060  -21.2540  -16.8610 C.ar   46  TYR46       0.0417
     43  CE2        9.8860  -22.1050  -14.9020 C.ar   46  TYR46       0.0417
     44  CZ         9.8300  -21.1990  -15.9410 C.ar   46  TYR46       0.1957
     45  OH        10.7980  -20.2310  -16.0630 O.3    46  TYR46      -0.2866
     46  N          8.7000  -29.7230  -15.6800 N.3    49  PHE49      -0.1227
     47  CA         9.9140  -29.8690  -14.8760 C.3    49  PHE49       0.1736
     48  C          9.6120  -29.8060  -13.3840 C.2    49  PHE49       0.2595
     49  O         10.4200  -30.2350  -12.5610 O.2    49  PHE49      -0.2718
     50  CB        10.9470  -28.7980  -15.2390 C.3    49  PHE49       0.0547
     51  CG        11.3040  -28.7690  -16.6940 C.ar   49  PHE49      -0.0202
     52  CD1       10.5780  -27.9960  -17.5800 C.ar   49  PHE49      -0.0042
     53  CD2       12.3560  -29.5280  -17.1810 C.ar   49  PHE49      -0.0042
     54  CE1       10.8960  -27.9680  -18.9220 C.ar   49  PHE49      -0.0003
     55  CE2       12.6800  -29.5050  -18.5260 C.ar   49  PHE49      -0.0003
     56  CZ        11.9490  -28.7240  -19.3970 C.ar   49  PHE49      -0.0000
     57  N          8.4490  -29.2710  -13.0380 N.am   50  PHE50      -0.1976
     58  CA         8.0380  -29.2090  -11.6430 C.3    50  PHE50       0.1639
     59  C          6.6550  -29.8330  -11.4720 C.2    50  PHE50       0.2290
     60  O          5.6800  -29.1280  -11.2110 O.2    50  PHE50      -0.2864
     61  CB         8.0530  -27.7600  -11.1410 C.3    50  PHE50       0.0560
     62  CG         9.3220  -27.0160  -11.4720 C.ar   50  PHE50      -0.0200
     63  CD1       10.4010  -27.0400  -10.6010 C.ar   50  PHE50      -0.0042
     64  CD2        9.4370  -26.2960  -12.6510 C.ar   50  PHE50      -0.0042
     65  CE1       11.5710  -26.3610  -10.9000 C.ar   50  PHE50      -0.0003
     66  CE2       10.6040  -25.6170  -12.9560 C.ar   50  PHE50      -0.0003
     67  CZ        11.6720  -25.6490  -12.0780 C.ar   50  PHE50      -0.0000
     68  N          4.6630  -18.9170  -10.6530 N.3    58  PHE58      -0.1241
     69  CA         6.0280  -18.6140  -11.0720 C.3    58  PHE58       0.1605
     70  C          6.1200  -18.4540  -12.5820 C.2    58  PHE58       0.2264
     71  O          6.7360  -17.5100  -13.0780 O.2    58  PHE58      -0.2867
     72  CB         6.9930  -19.7080  -10.6220 C.3    58  PHE58       0.0534
     73  CG         8.4360  -19.3790  -10.8750 C.ar   58  PHE58      -0.0203
     74  CD1        9.0970  -18.4630  -10.0770 C.ar   58  PHE58      -0.0042
     75  CD2        9.1240  -19.9720  -11.9230 C.ar   58  PHE58      -0.0042
     76  CE1       10.4220  -18.1520  -10.3090 C.ar   58  PHE58      -0.0003
     77  CE2       10.4470  -19.6690  -12.1600 C.ar   58  PHE58      -0.0003
     78  CZ        11.0960  -18.7580  -11.3520 C.ar   58  PHE58      -0.0000
     79  N          7.1830  -15.2610  -14.9290 N.3    62  VAL62      -0.1245
     80  CA         8.2210  -15.3440  -15.9450 C.3    62  VAL62       0.1561
     81  C          7.6340  -15.0050  -17.3130 C.2    62  VAL62       0.2260
     82  O          8.3090  -14.4170  -18.1590 O.2    62  VAL62      -0.2867
     83  CB         8.8770  -16.7400  -15.9510 C.3    62  VAL62       0.0252
     84  CG1        9.8520  -16.8680  -17.1050 C.3    62  VAL62       0.0019
     85  CG2        9.5680  -17.0110  -14.6220 C.3    62  VAL62       0.0019
     86  N          9.0170  -12.4000  -20.4960 N.3    66  PHE66      -0.1241
     87  CA         9.2020  -12.8920  -21.8600 C.3    66  PHE66       0.1605
     88  C          8.3520  -12.0980  -22.8540 C.2    66  PHE66       0.2264
     89  O          8.8180  -11.7000  -23.9230 O.2    66  PHE66      -0.2867
     90  CB         8.8450  -14.3750  -21.9460 C.3    66  PHE66       0.0534
     91  CG         9.9940  -15.3030  -21.6570 C.ar   66  PHE66      -0.0203
     92  CD1       10.5570  -15.3780  -20.3950 C.ar   66  PHE66      -0.0042
     93  CD2       10.4950  -16.1220  -22.6560 C.ar   66  PHE66      -0.0042
     94  CE1       11.6140  -16.2390  -20.1430 C.ar   66  PHE66      -0.0003
     95  CE2       11.5470  -16.9820  -22.4110 C.ar   66  PHE66      -0.0003
     96  CZ        12.1040  -17.0420  -21.1530 C.ar   66  PHE66      -0.0000
     97  N         10.8590  -14.9230  -27.5210 N.3    79  PHE79      -0.1241
     98  CA        11.3340  -16.1440  -26.8750 C.3    79  PHE79       0.1605
     99  C         12.8530  -16.2580  -26.8890 C.2    79  PHE79       0.2264
    100  O         13.4710  -16.5480  -25.8630 O.2    79  PHE79      -0.2867
    101  CB        10.7150  -17.3640  -27.5630 C.3    79  PHE79       0.0534
    102  CG        11.2110  -18.6790  -27.0410 C.ar   79  PHE79      -0.0203
    103  CD1       10.7150  -19.2040  -25.8640 C.ar   79  PHE79      -0.0042
    104  CD2       12.1620  -19.4010  -27.7430 C.ar   79  PHE79      -0.0042
    105  CE1       11.1640  -20.4180  -25.3890 C.ar   79  PHE79      -0.0003
    106  CE2       12.6160  -20.6160  -27.2700 C.ar   79  PHE79      -0.0003
    107  CZ        12.1160  -21.1240  -26.0860 C.ar   79  PHE79      -0.0000
    108  N         15.5330  -15.8500  -23.7980 N.3    83  LEU83      -0.1245
    109  CA        16.3460  -17.0460  -23.5740 C.3    83  LEU83       0.1561
    110  C         17.8350  -16.7190  -23.6440 C.2    83  LEU83       0.2260
    111  O         18.6410  -17.2650  -22.8850 O.2    83  LEU83      -0.2867
    112  CB        15.9880  -18.1270  -24.5970 C.3    83  LEU83       0.0270
    113  CG        16.3670  -19.5690  -24.2690 C.3    83  LEU83       0.0019
    114  CD1       15.8460  -19.9530  -22.8970 C.3    83  LEU83       0.0001
    115  CD2       15.8360  -20.5220  -25.3380 C.3    83  LEU83       0.0001
    116  N         18.7630  -14.8620  -20.2600 N.3    86  THR86      -0.1203
    117  CA        18.6960  -15.6660  -19.0410 C.3    86  THR86       0.1994
    118  C         19.6550  -16.8560  -19.0310 C.2    86  THR86       0.2618
    119  O         20.0390  -17.3330  -17.9650 O.2    86  THR86      -0.2717
    120  CB        17.2600  -16.1860  -18.7950 C.3    86  THR86       0.1784
    121  OG1       16.8930  -17.1100  -19.8280 O.3    86  THR86      -0.2211
    122  CG2       16.2710  -15.0310  -18.7540 C.3    86  THR86       0.0376
    123  N         20.0550  -17.3270  -20.2060 N.am   87  SER87      -0.1951
    124  CA        20.9380  -18.4880  -20.2770 C.3    87  SER87       0.1924
    125  C         22.3790  -18.1200  -20.6300 C.2    87  SER87       0.2314
    126  O         23.3090  -18.8620  -20.3080 O.2    87  SER87      -0.2863
    127  CB        20.4070  -19.5050  -21.2910 C.3    87  SER87       0.2116
    128  OG        20.4070  -18.9780  -22.6070 O.3    87  SER87      -0.2180
    129  N         17.4520   -8.4410  -15.8200 N.3    97  TRP97      -0.1241
    130  CA        16.3240   -9.3140  -16.1110 C.3    97  TRP97       0.1605
    131  C         15.6740   -9.7650  -14.8110 C.2    97  TRP97       0.2264
    132  O         14.4490   -9.8150  -14.7000 O.2    97  TRP97      -0.2867
    133  CB        16.7720  -10.5290  -16.9260 C.3    97  TRP97       0.0550
    134  CG        15.6950  -11.1030  -17.7950 C.ar   97  TRP97       0.0003
    135  CD1       15.4150  -10.7610  -19.0880 C.ar   97  TRP97       0.0946
    136  CD2       14.7340  -12.0980  -17.4260 C.ar   97  TRP97       0.0152
    137  NE1       14.3530  -11.4980  -19.5520 N.ar   97  TRP97      -0.2442
    138  CE2       13.9150  -12.3270  -18.5510 C.ar   97  TRP97       0.0810
    139  CE3       14.4910  -12.8300  -16.2610 C.ar   97  TRP97       0.0012
    140  CZ2       12.8690  -13.2460  -18.5430 C.ar   97  TRP97       0.0191
    141  CZ3       13.4520  -13.7410  -16.2540 C.ar   97  TRP97       0.0001
    142  CH2       12.6550  -13.9420  -17.3880 C.ar   97  TRP97       0.0015
    143  N         11.8030   -9.1610  -13.2230 N.3   101  LEU101     -0.1245
    144  CA        10.9850  -10.2620  -12.7250 C.3   101  LEU101      0.1561
    145  C         10.3750   -9.9140  -11.3720 C.2   101  LEU101      0.2260
    146  O          9.1940  -10.1650  -11.1330 O.2   101  LEU101     -0.2867
    147  CB        11.7990  -11.5510  -12.6070 C.3   101  LEU101      0.0270
    148  CG        10.9560  -12.7340  -12.1160 C.3   101  LEU101      0.0019
    149  CD1        9.8810  -13.0830  -13.1380 C.3   101  LEU101      0.0001
    150  CD2       11.8260  -13.9360  -11.8100 C.3   101  LEU101      0.0001
    151  N         16.7500  -17.4670   -8.6090 N.3   166  LEU166     -0.1231
    152  CA        16.2040  -17.4450   -9.9540 C.3   166  LEU166      0.1693
    153  C         17.1650  -18.1090  -10.9390 C.2   166  LEU166      0.2593
    154  O         16.9890  -17.9980  -12.1500 O.2   166  LEU166     -0.2718
    155  CB        15.9170  -16.0070  -10.3840 C.3   166  LEU166      0.0284
    156  CG        15.1270  -15.1350   -9.4080 C.3   166  LEU166      0.0019
    157  CD1       14.9890  -13.7360   -9.9760 C.3   166  LEU166      0.0001
    158  CD2       13.7620  -15.7380   -9.1050 C.3   166  LEU166      0.0001
    159  N         18.1790  -18.7920  -10.4100 N.am  167  SER167     -0.1938
    160  CA        19.2020  -19.4400  -11.2310 C.3   167  SER167      0.2055
    161  C         19.8030  -18.4590  -12.2390 C.2   167  SER167      0.2642
    162  O         19.8230  -18.7210  -13.4430 O.2   167  SER167     -0.2714
    163  CB        18.6230  -20.6600  -11.9540 C.3   167  SER167      0.2130
    164  OG        17.9320  -21.5070  -11.0510 O.3   167  SER167     -0.2179
    165  N         20.2700  -17.3200  -11.7360 N.am  168  LEU168     -0.1977
    166  CA        20.8850  -16.2910  -12.5690 C.3   168  LEU168      0.1596
    167  C         22.0660  -15.6490  -11.8620 C.2   168  LEU168      0.2287
    168  O         22.3330  -14.4610  -12.0390 O.2   168  LEU168     -0.2864
    169  CB        19.8720  -15.2090  -12.9390 C.3   168  LEU168      0.0297
    170  CG        18.6470  -15.6180  -13.7500 C.3   168  LEU168      0.0022
    171  CD1       17.6420  -14.4880  -13.7520 C.3   168  LEU168      0.0001
    172  CD2       19.0670  -15.9650  -15.1630 C.3   168  LEU168      0.0001
@<TRIPOS>BOND
     1     1     2    1
     2     3     4    2
     3     3     2    1
     4     2     5    1
     5     5     6    1
     6     6     7   ar
     7     6     8   ar
     8     7     9   ar
     9     8    11   ar
    10     8    10   ar
    11    11    13   ar
    12     9    10   ar
    13   104   106   ar
    14   104   102   ar
    15   101   102    1
    16   101    98    1
    17    97    98    1
    18    10    12   ar
    19   106   107   ar
    20   102   103   ar
    21    13    14   ar
    22    99    98    1
    23    99   100    2
    24    12    14   ar
    25   107   105   ar
    26   103   105   ar
    27   115   113    1
    28   112   113    1
    29   112   109    1
    30   113   114    1
    31    89    88    2
    32   108   109    1
    33   110   109    1
    34   110   111    2
    35    33    31    1
    36    88    87    1
    37    93    95   ar
    38    93    91   ar
    39   128   127    1
    40    95    96   ar
    41    31    30    1
    42    90    87    1
    43    90    91    1
    44    87    86    1
    45    15    16    1
    46    91    92   ar
    47    21    23   ar
    48    21    20   ar
    49   127   124    1
    50    23    25   ar
    51    96    94   ar
    52    16    19    1
    53    16    17    1
    54    30    32    1
    55    30    27    1
    56    19    20    1
    57   125   126    2
    58   125   124    1
    59    20    22   ar
    60    92    94   ar
    61   124   123    1
    62   116   117    1
    63   123   118   am
    64    27    26    1
    65    27    28    1
    66    25    24   ar
    67   121   120    1
    68    17    18    2
    69   137   135   ar
    70   137   138   ar
    71    56    54   ar
    72    56    55   ar
    73    22    24   ar
    74   135   134   ar
    75   117   118    1
    76   117   120    1
    77   118   119    2
    78    54    52   ar
    79   120   122    1
    80    28    29    2
    81    28    34   am
    82   138   140   ar
    83   138   136   ar
    84   140   142   ar
    85    55    53   ar
    86    82    81    2
    87   134   136   ar
    88   134   133    1
    89    34    35    1
    90    52    51   ar
    91   136   139   ar
    92   142   141   ar
    93    81    80    1
    94    53    51   ar
    95    84    83    1
    96   133   130    1
    97    42    40   ar
    98    42    44   ar
    99    40    39   ar
   100    51    50    1
   101    35    38    1
   102    35    36    1
   103   139   141   ar
   104   130   129    1
   105   130   131    1
   106    45    44    1
   107    83    80    1
   108    83    85    1
   109    80    79    1
   110    44    43   ar
   111    39    38    1
   112    39    41   ar
   113    46    47    1
   114    36    37    2
   115    50    47    1
   116   172   170    1
   117    43    41   ar
   118    47    48    1
   119   131   132    2
   120   171   170    1
   121   170   169    1
   122   162   161    2
   123    48    57   am
   124    48    49    2
   125   143   144    1
   126   149   148    1
   127    71    70    2
   128    57    58    1
   129    66    64   ar
   130    66    67   ar
   131   169   166    1
   132   144   147    1
   133   144   145    1
   134    64    62   ar
   135   147   148    1
   136    70    69    1
   137   166   167    1
   138   166   165    1
   139   161   165   am
   140   161   160    1
   141    77    75   ar
   142    77    78   ar
   143   154   153    2
   144   148   150    1
   145    67    65   ar
   146   168   167    2
   147   163   160    1
   148   163   164    1
   149    75    73   ar
   150    58    59    1
   151    58    61    1
   152    59    60    2
   153    62    61    1
   154    62    63   ar
   155   145   146    2
   156    78    76   ar
   157   160   159    1
   158    69    68    1
   159    69    72    1
   160   153   159   am
   161   153   152    1
   162    65    63   ar
   163    73    72    1
   164    73    74   ar
   165   155   152    1
   166   155   156    1
   167    76    74   ar
   168   157   156    1
   169   152   151    1
   170   156   158    1
