@<TRIPOS>MOLECULE
tmp/5fyxA00.pdb
 90 88 0 0 0
SMALL
GASTEIGER

@<TRIPOS>ATOM
      1  N         16.0800  -24.0080  -32.6720 N.3    24  TRP24      -0.1241
      2  CA        15.0610  -23.5940  -31.7170 C.3    24  TRP24       0.1605
      3  C         13.7250  -23.3310  -32.4130 C.2    24  TRP24       0.2264
      4  O         12.6650  -23.5660  -31.8330 O.2    24  TRP24      -0.2867
      5  CB        15.5020  -22.3420  -30.9560 C.3    24  TRP24       0.0550
      6  CG        16.1920  -22.6260  -29.6410 C.ar   24  TRP24       0.0003
      7  CD1       17.4910  -22.3510  -29.3180 C.ar   24  TRP24       0.0946
      8  CD2       15.6150  -23.2430  -28.4860 C.ar   24  TRP24       0.0152
      9  NE1       17.7550  -22.7540  -28.0320 N.ar   24  TRP24      -0.2442
     10  CE2       16.6200  -23.3080  -27.4990 C.ar   24  TRP24       0.0810
     11  CE3       14.3430  -23.7460  -28.1870 C.ar   24  TRP24       0.0012
     12  CZ2       16.3940  -23.8570  -26.2360 C.ar   24  TRP24       0.0191
     13  CZ3       14.1200  -24.2910  -26.9320 C.ar   24  TRP24       0.0001
     14  CH2       15.1390  -24.3400  -25.9730 C.ar   24  TRP24       0.0015
     15  N         11.7130  -26.4730  -33.1870 N.3    27  GLY27      -0.1210
     16  CA        11.1330  -26.9330  -31.9390 C.3    27  GLY27       0.1956
     17  C         10.0110  -26.0340  -31.4660 C.2    27  GLY27       0.2611
     18  O          8.9890  -26.5030  -30.9650 O.2    27  GLY27      -0.2717
     19  N         10.2100  -24.7310  -31.6250 N.am   28  PHE28      -0.1976
     20  CA         9.1960  -23.7450  -31.2750 C.3    28  PHE28       0.1639
     21  C          7.8990  -23.9600  -32.0480 C.2    28  PHE28       0.2290
     22  O          6.8130  -23.9240  -31.4740 O.2    28  PHE28      -0.2864
     23  CB         9.7250  -22.3390  -31.5350 C.3    28  PHE28       0.0560
     24  CG         8.8360  -21.2500  -31.0200 C.ar   28  PHE28      -0.0200
     25  CD1        8.8500  -20.9000  -29.6800 C.ar   28  PHE28      -0.0042
     26  CD2        8.0050  -20.5560  -31.8810 C.ar   28  PHE28      -0.0042
     27  CE1        8.0410  -19.8860  -29.2070 C.ar   28  PHE28      -0.0003
     28  CE2        7.1950  -19.5420  -31.4120 C.ar   28  PHE28      -0.0003
     29  CZ         7.2120  -19.2080  -30.0720 C.ar   28  PHE28      -0.0000
     30  N          5.8370  -27.2400  -31.1040 N.3    31  ASP31      -0.1225
     31  CA         5.0190  -27.0600  -29.9130 C.3    31  ASP31       0.1805
     32  C          3.9760  -25.9550  -30.0880 C.2    31  ASP31       0.2598
     33  O          2.9080  -26.0080  -29.4800 O.2    31  ASP31      -0.2718
     34  CB         5.9030  -26.7620  -28.6990 C.3    31  ASP31       0.1424
     35  CG         6.6970  -27.9730  -28.2450 C.2    31  ASP31       0.3668
     36  OD1        6.4700  -29.0720  -28.7950 O.co2  31  ASP31      -0.2456
     37  OD2        7.5440  -27.8290  -27.3370 O.co2  31  ASP31      -0.2456
     38  N          4.2790  -24.9590  -30.9170 N.am   32  CYS32      -0.1970
     39  CA         3.3570  -23.8440  -31.1160 C.3    32  CYS32       0.1712
     40  C          3.1430  -23.5570  -32.6050 C.2    32  CYS32       0.2296
     41  O          3.7200  -22.6090  -33.1400 O.2    32  CYS32      -0.2864
     42  CB         3.8820  -22.5940  -30.4020 C.3    32  CYS32       0.0983
     43  SG         4.3030  -22.8650  -28.6640 S.3    32  CYS32      -0.0798
     44  N          3.3600  -18.5700  -28.4010 N.3    37  LEU37      -0.1245
     45  CA         3.4360  -19.2720  -27.1280 C.3    37  LEU37       0.1561
     46  C          2.6080  -18.5270  -26.0900 C.2    37  LEU37       0.2260
     47  O          2.9150  -17.3840  -25.7480 O.2    37  LEU37      -0.2867
     48  CB         4.8930  -19.4010  -26.6820 C.3    37  LEU37       0.0270
     49  CG         5.1640  -19.9610  -25.2960 C.3    37  LEU37       0.0019
     50  CD1        4.6110  -21.3680  -25.1810 C.3    37  LEU37       0.0001
     51  CD2        6.6700  -19.9140  -25.0200 C.3    37  LEU37       0.0001
     52  N          4.9060  -25.8830  -19.8550 N.3    45  ILE45      -0.1245
     53  CA         6.3410  -26.0480  -20.0180 C.3    45  ILE45       0.1561
     54  C          6.9880  -26.2370  -18.6490 C.2    45  ILE45       0.2260
     55  O          7.8390  -27.1030  -18.4700 O.2    45  ILE45      -0.2867
     56  CB         6.9570  -24.8520  -20.7660 C.3    45  ILE45       0.0252
     57  CG1        6.5360  -24.8730  -22.2330 C.3    45  ILE45       0.0019
     58  CG2        8.4690  -24.8910  -20.6750 C.3    45  ILE45       0.0019
     59  CD1        7.2280  -23.8250  -23.0850 C.3    45  ILE45       0.0001
     60  N          6.1740  -29.3790  -16.6430 N.3    48  GLN48      -0.1231
     61  CA         6.9440  -30.4830  -17.1970 C.3    48  GLN48       0.1698
     62  C          8.2370  -30.7310  -16.4160 C.2    48  GLN48       0.2592
     63  O          8.8050  -31.8210  -16.4770 O.2    48  GLN48      -0.2718
     64  CB         7.2470  -30.1870  -18.6700 C.3    48  GLN48       0.0381
     65  CG         7.8200  -31.3300  -19.4860 C.3    48  GLN48       0.0905
     66  CD         8.2200  -30.8810  -20.8830 C.2    48  GLN48       0.2608
     67  OE1        8.2500  -29.6850  -21.1770 O.2    48  GLN48      -0.2717
     68  NE2        8.5240  -31.8390  -21.7510 N.am   48  GLN48      -0.0878
     69  N          8.7000  -29.7230  -15.6800 N.am   49  PHE49      -0.1976
     70  CA         9.9140  -29.8690  -14.8760 C.3    49  PHE49       0.1639
     71  C          9.6120  -29.8060  -13.3840 C.2    49  PHE49       0.2290
     72  O         10.4200  -30.2350  -12.5610 O.2    49  PHE49      -0.2864
     73  CB        10.9470  -28.7980  -15.2390 C.3    49  PHE49       0.0560
     74  CG        11.3040  -28.7690  -16.6940 C.ar   49  PHE49      -0.0200
     75  CD1       10.5780  -27.9960  -17.5800 C.ar   49  PHE49      -0.0042
     76  CD2       12.3560  -29.5280  -17.1810 C.ar   49  PHE49      -0.0042
     77  CE1       10.8960  -27.9680  -18.9220 C.ar   49  PHE49      -0.0003
     78  CE2       12.6800  -29.5050  -18.5260 C.ar   49  PHE49      -0.0003
     79  CZ        11.9490  -28.7240  -19.3970 C.ar   49  PHE49      -0.0000
     80  N         10.8590  -14.9230  -27.5210 N.3    79  PHE79      -0.1241
     81  CA        11.3340  -16.1440  -26.8750 C.3    79  PHE79       0.1605
     82  C         12.8530  -16.2580  -26.8890 C.2    79  PHE79       0.2264
     83  O         13.4710  -16.5480  -25.8630 O.2    79  PHE79      -0.2867
     84  CB        10.7150  -17.3640  -27.5630 C.3    79  PHE79       0.0534
     85  CG        11.2110  -18.6790  -27.0410 C.ar   79  PHE79      -0.0203
     86  CD1       10.7150  -19.2040  -25.8640 C.ar   79  PHE79      -0.0042
     87  CD2       12.1620  -19.4010  -27.7430 C.ar   79  PHE79      -0.0042
     88  CE1       11.1640  -20.4180  -25.3890 C.ar   79  PHE79      -0.0003
     89  CE2       12.6160  -20.6160  -27.2700 C.ar   79  PHE79      -0.0003
     90  CZ        12.1160  -21.1240  -26.0860 C.ar   79  PHE79      -0.0000
@<TRIPOS>BOND
     1    15    16    1
     2    41    40    2
     3     1     2    1
     4    40    39    1
     5     3     4    2
     6     3     2    1
     7    21    22    2
     8    21    20    1
     9    16    17    1
    10    26    28   ar
    11    26    24   ar
    12     2     5    1
    13    19    17   am
    14    19    20    1
    15    23    20    1
    16    23    24    1
    17    17    18    2
    18    28    29   ar
    19    39    38    1
    20    39    42    1
    21    30    31    1
    22    24    25   ar
    23     5     6    1
    24    38    32   am
    25    42    43    1
    26    32    31    1
    27    32    33    2
    28    29    27   ar
    29    31    34    1
    30    25    27   ar
    31     6     7   ar
    32     6     8   ar
    33     7     9   ar
    34    36    35   ar
    35    34    35    1
    36     8    11   ar
    37     8    10   ar
    38    44    45    1
    39    35    37   ar
    40    11    13   ar
    41     9    10   ar
    42    87    89   ar
    43    87    85   ar
    44    84    85    1
    45    84    81    1
    46    80    81    1
    47    10    12   ar
    48    89    90   ar
    49    45    48    1
    50    45    46    1
    51    85    86   ar
    52    13    14   ar
    53    82    81    1
    54    82    83    2
    55    48    49    1
    56    12    14   ar
    57    46    47    2
    58    90    88   ar
    59    86    88   ar
    60    49    50    1
    61    49    51    1
    62    59    57    1
    63    57    56    1
    64    68    66   am
    65    67    66    2
    66    66    65    1
    67    56    58    1
    68    56    53    1
    69    53    52    1
    70    53    54    1
    71    65    64    1
    72    79    77   ar
    73    79    78   ar
    74    77    75   ar
    75    64    61    1
    76    54    55    2
    77    78    76   ar
    78    75    74   ar
    79    61    60    1
    80    61    62    1
    81    76    74   ar
    82    74    73    1
    83    63    62    2
    84    62    69   am
    85    69    70    1
    86    73    70    1
    87    70    71    1
    88    71    72    2
