@<TRIPOS>MOLECULE
tmp/5fyyA00.pdb
 130 125 0 0 0
SMALL
GASTEIGER

@<TRIPOS>ATOM
      1  N         82.6200   56.7530    5.3140 N.3    75  ARG75      -0.1231
      2  CA        82.2200   57.3290    6.5960 C.3    75  ARG75       0.1694
      3  C         82.2030   56.2600    7.7000 C.2    75  ARG75       0.2591
      4  O         81.7250   55.1470    7.4770 O.2    75  ARG75      -0.2718
      5  CB        80.8450   57.9770    6.4470 C.3    75  ARG75       0.0321
      6  CG        80.6570   59.2500    7.2320 C.3    75  ARG75       0.0489
      7  CD        80.0200   60.3370    6.3640 C.3    75  ARG75       0.2205
      8  NE        79.7720   61.5620    7.1240 N.pl3  75  ARG75      -0.0865
      9  CZ        78.6250   61.8490    7.7360 C.cat  75  ARG75       0.5346
     10  NH1       77.5980   60.9970    7.6750 N.pl3  75  ARG75       0.1354
     11  NH2       78.5060   62.9900    8.4060 N.pl3  75  ARG75       0.1354
     12  N         82.7200   56.5900    8.8810 N.am   76  VAL76      -0.1980
     13  CA        82.9230   55.5740    9.9270 C.3    76  VAL76       0.1595
     14  C         81.6460   54.8420   10.3600 C.2    76  VAL76       0.2287
     15  O         80.5370   55.3900   10.3010 O.2    76  VAL76      -0.2864
     16  CB        83.5850   56.1730   11.2190 C.3    76  VAL76       0.0276
     17  CG1       84.9830   56.6980   10.9210 C.3    76  VAL76       0.0022
     18  CG2       82.6970   57.2460   11.8660 C.3    76  VAL76       0.0022
     19  N         93.1670   55.3220   14.3620 N.3   128  TYR128     -0.1241
     20  CA        92.4580   56.2660   15.2210 C.3   128  TYR128      0.1605
     21  C         91.2600   55.6020   15.8710 C.2   128  TYR128      0.2264
     22  O         90.8770   54.4950   15.4900 O.2   128  TYR128     -0.2867
     23  CB        92.0050   57.4920   14.4280 C.3   128  TYR128      0.0534
     24  CG        91.0110   57.1750   13.3230 C.ar  128  TYR128     -0.0201
     25  CD1       91.4340   56.6370   12.1110 C.ar  128  TYR128     -0.0009
     26  CD2       89.6520   57.4090   13.4930 C.ar  128  TYR128     -0.0009
     27  CE1       90.5250   56.3430   11.0900 C.ar  128  TYR128      0.0417
     28  CE2       88.7380   57.1190   12.4780 C.ar  128  TYR128      0.0417
     29  CZ        89.1840   56.5880   11.2810 C.ar  128  TYR128      0.1957
     30  OH        88.2880   56.2960   10.2810 O.3   128  TYR128     -0.2866
     31  N         87.1410   56.0690   16.8320 N.3   130  ALA130     -0.1245
     32  CA        85.8900   56.8070   16.6430 C.3   130  ALA130      0.1562
     33  C         84.6920   55.9330   17.0250 C.2   130  ALA130      0.2260
     34  O         84.4940   54.8760   16.4480 O.2   130  ALA130     -0.2867
     35  CB        85.7620   57.3070   15.1880 C.3   130  ALA130      0.0290
     36  N         86.7090   60.6870   19.9440 N.3   189  TYR189     -0.1241
     37  CA        87.7360   60.5680   18.9110 C.3   189  TYR189      0.1605
     38  C         89.1430   60.5450   19.5210 C.2   189  TYR189      0.2264
     39  O         89.5850   61.5230   20.1360 O.2   189  TYR189     -0.2867
     40  CB        87.6100   61.7160   17.9020 C.3   189  TYR189      0.0534
     41  CG        86.3040   61.7650   17.1130 C.ar  189  TYR189     -0.0201
     42  CD1       86.0170   60.8340   16.1090 C.ar  189  TYR189     -0.0009
     43  CD2       85.3670   62.7550   17.3610 C.ar  189  TYR189     -0.0009
     44  CE1       84.8230   60.8930   15.3840 C.ar  189  TYR189      0.0417
     45  CE2       84.1780   62.8180   16.6430 C.ar  189  TYR189      0.0417
     46  CZ        83.9140   61.8970   15.6590 C.ar  189  TYR189      0.1957
     47  OH        82.7250   61.9890   14.9690 O.3   189  TYR189     -0.2866
     48  N         93.0980   61.6500   10.1660 N.3   196  SER196     -0.1202
     49  CA        92.3840   62.7870    9.6180 C.3   196  SER196      0.2020
     50  C         90.9220   62.5190    9.3600 C.2   196  SER196      0.2618
     51  O         90.4860   61.3750    9.2140 O.2   196  SER196     -0.2717
     52  CB        93.0620   63.2590    8.3230 C.3   196  SER196      0.2103
     53  OG        93.4010   62.1570    7.5380 O.3   196  SER196     -0.2182
     54  N         90.1620   63.5990    9.3090 N.am  197  PHE197     -0.1975
     55  CA        88.7650   63.4790    8.9710 C.3   197  PHE197      0.1639
     56  C         88.5630   64.1390    7.6190 C.2   197  PHE197      0.2290
     57  O         88.9540   65.2870    7.4150 O.2   197  PHE197     -0.2864
     58  CB        87.8490   64.0690   10.0800 C.3   197  PHE197      0.0560
     59  CG        88.2450   65.4430   10.5960 C.ar  197  PHE197     -0.0200
     60  CD1       89.3140   65.6030   11.4770 C.ar  197  PHE197     -0.0042
     61  CD2       87.4900   66.5710   10.2540 C.ar  197  PHE197     -0.0042
     62  CE1       89.6600   66.8680   11.9700 C.ar  197  PHE197     -0.0003
     63  CE2       87.8130   67.8310   10.7530 C.ar  197  PHE197     -0.0003
     64  CZ        88.9110   67.9870   11.6100 C.ar  197  PHE197     -0.0000
     65  N         83.4890   66.8420    4.7930 N.3   200  HIS200     -0.1241
     66  CA        82.0800   66.4860    4.8990 C.3   200  HIS200      0.1621
     67  C         81.2920   67.6230    5.5100 C.2   200  HIS200      0.2264
     68  O         81.8660   68.5670    6.0760 O.2   200  HIS200     -0.2867
     69  CB        81.9080   65.2340    5.7560 C.3   200  HIS200      0.0745
     70  CG        82.1590   65.4960    7.2030 C.ar  200  HIS200      0.0817
     71  ND1       83.4290   65.6790    7.7100 N.ar  200  HIS200     -0.2268
     72  CD2       81.3080   65.6790    8.2380 C.ar  200  HIS200      0.1154
     73  CE1       83.3500   65.9340    9.0030 C.ar  200  HIS200      0.1986
     74  NE2       82.0740   65.9390    9.3480 N.ar  200  HIS200     -0.2212
     75  N         77.6390   67.8650    8.1510 N.3   202  GLU202     -0.1245
     76  CA        76.8910   66.9980    9.0640 C.3   202  GLU202      0.1567
     77  C         75.5520   66.5440    8.4690 C.2   202  GLU202      0.2260
     78  O         74.9510   67.2390    7.6380 O.2   202  GLU202     -0.2867
     79  CB        76.6550   67.7080   10.3910 C.3   202  GLU202      0.0388
     80  CG        77.9290   68.2540   11.0060 C.3   202  GLU202      0.1160
     81  CD        78.9840   67.1910   11.2160 C.2   202  GLU202      0.3649
     82  OE1       78.6510   66.0630   11.6470 O.co2 202  GLU202     -0.2457
     83  OE2       80.1630   67.4860   10.9480 O.co2 202  GLU202     -0.2457
     84  N         77.6900   71.1560   14.5210 N.3   208  SER208     -0.1217
     85  CA        78.4050   70.2730   15.4370 C.3   208  SER208      0.1889
     86  C         79.2460   71.1400   16.3810 C.2   208  SER208      0.2288
     87  O         79.5640   72.2960   16.0840 O.2   208  SER208     -0.2866
     88  CB        79.2710   69.2520   14.6940 C.3   208  SER208      0.2089
     89  OG        80.3860   69.8650   14.0570 O.3   208  SER208     -0.2183
     90  N         82.6670   70.6290   18.9990 N.3   210  ASN210     -0.1240
     91  CA        83.7860   69.7180   19.1200 C.3   210  ASN210      0.1653
     92  C         84.6990   70.1820   20.2550 C.2   210  ASN210      0.2266
     93  O         85.1440   71.3320   20.2600 O.2   210  ASN210     -0.2867
     94  CB        84.5400   69.6560   17.7820 C.3   210  ASN210      0.1155
     95  CG        83.6240   69.3150   16.5950 C.2   210  ASN210      0.2627
     96  OD1       83.6210   68.1810   16.1070 O.2   210  ASN210     -0.2716
     97  ND2       82.8560   70.2960   16.1270 N.am  210  ASN210     -0.0877
     98  N         94.3240   69.7140   17.1940 N.3   218  LYS218     -0.1245
     99  CA        93.6010   69.2230   16.0450 C.3   218  LYS218      0.1561
    100  C         93.5790   70.3700   15.0520 C.2   218  LYS218      0.2260
    101  O         93.2040   71.4830   15.4140 O.2   218  LYS218     -0.2867
    102  CB        92.1800   68.7940   16.4290 C.3   218  LYS218      0.0271
    103  CG        91.3910   68.1300   15.3060 C.3   218  LYS218      0.0035
    104  CD        89.9700   67.7310   15.7480 C.3   218  LYS218      0.0206
    105  CE        89.9930   66.7910   16.9570 C.3   218  LYS218      0.1093
    106  NZ        90.2560   65.3710   16.5850 N.3   218  LYS218     -0.1314
    107  N         92.1120   72.1770   11.7120 N.3   220  TRP220     -0.1241
    108  CA        90.8250   72.2570   11.0330 C.3   220  TRP220      0.1605
    109  C         90.8980   73.0980    9.7860 C.2   220  TRP220      0.2264
    110  O         91.5930   74.1210    9.7620 O.2   220  TRP220     -0.2867
    111  CB        89.7570   72.8840   11.9400 C.3   220  TRP220      0.0550
    112  CG        89.2860   72.0320   13.1090 C.ar  220  TRP220      0.0003
    113  CD1       89.9600   71.7810   14.2720 C.ar  220  TRP220      0.0946
    114  CD2       88.0140   71.3800   13.2360 C.ar  220  TRP220      0.0152
    115  NE1       89.1910   71.0030   15.1110 N.ar  220  TRP220     -0.2442
    116  CE2       87.9930   70.7400   14.4990 C.ar  220  TRP220      0.0810
    117  CE3       86.8910   71.2720   12.4030 C.ar  220  TRP220      0.0012
    118  CZ2       86.8930   69.9870   14.9470 C.ar  220  TRP220      0.0191
    119  CZ3       85.7970   70.5250   12.8450 C.ar  220  TRP220      0.0001
    120  CH2       85.8030   69.9010   14.1130 C.ar  220  TRP220      0.0015
    121  N         83.9530   70.7550    6.3610 N.3   288  HIS288     -0.1241
    122  CA        85.1580   70.8340    7.1650 C.3   288  HIS288      0.1621
    123  C         85.9480   69.5540    7.0470 C.2   288  HIS288      0.2264
    124  O         85.3950   68.5080    6.7150 O.2   288  HIS288     -0.2867
    125  CB        84.8440   71.1320    8.6420 C.3   288  HIS288      0.0745
    126  CG        83.8090   70.2280    9.2530 C.ar  288  HIS288      0.0817
    127  ND1       82.4530   70.4090    9.0650 N.ar  288  HIS288     -0.2268
    128  CD2       83.9350   69.1430   10.0560 C.ar  288  HIS288      0.1154
    129  CE1       81.7900   69.4810    9.7330 C.ar  288  HIS288      0.1986
    130  NE2       82.6630   68.6970   10.3400 N.ar  288  HIS288     -0.2212
@<TRIPOS>BOND
     1    65    66    1
     2    66    67    1
     3    66    69    1
     4     1     2    1
     5    67    68    2
     6    69    70    1
     7   121   122    1
     8     7     8    1
     9     7     6    1
    10     5     2    1
    11     5     6    1
    12     2     3    1
    13   124   123    2
    14   123   122    1
    15     8     9    2
    16   122   125    1
    17    70    71   ar
    18    70    72   ar
    19    57    56    2
    20     4     3    2
    21    53    52    1
    22    56    55    1
    23    78    77    2
    24    10     9    1
    25     3    12   am
    26    71    73   ar
    27     9    11    1
    28    75    76    1
    29    72    74   ar
    30    52    49    1
    31    77    76    1
    32   125   126    1
    33    12    13    1
    34    55    54    1
    35    55    58    1
    36    73    74   ar
    37    76    79    1
    38   127   126   ar
    39   127   129   ar
    40    51    50    2
    41   126   128   ar
    42    54    50   am
    43    50    49    1
    44    49    48    1
    45   129   130   ar
    46   110   109    2
    47   109   108    1
    48    13    14    1
    49    13    16    1
    50   128   130   ar
    51    58    59    1
    52    61    59   ar
    53    61    63   ar
    54    30    29    1
    55    15    14    2
    56    79    80    1
    57    59    60   ar
    58    63    64   ar
    59    17    16    1
    60    83    81   ar
    61    80    81    1
    62   108   107    1
    63   108   111    1
    64    27    29   ar
    65    27    25   ar
    66    81    82   ar
    67    16    18    1
    68    29    28   ar
    69    60    62   ar
    70    64    62   ar
    71   111   112    1
    72    25    24   ar
    73   117   119   ar
    74   117   114   ar
    75    28    26   ar
    76   119   120   ar
    77   112   114   ar
    78   112   113   ar
    79   114   116   ar
    80    24    26   ar
    81    24    23    1
    82    89    88    1
    83   120   118   ar
    84   113   115   ar
    85    19    20    1
    86    23    20    1
    87   116   118   ar
    88   116   115   ar
    89    84    85    1
    90    88    85    1
    91    47    46    1
    92   100   101    2
    93   100    99    1
    94    35    32    1
    95    20    21    1
    96   103   104    1
    97   103   102    1
    98    44    46   ar
    99    44    42   ar
   100    85    86    1
   101    22    21    2
   102    46    45   ar
   103   104   105    1
   104    99   102    1
   105    99    98    1
   106    87    86    2
   107    96    95    2
   108    42    41   ar
   109    97    95   am
   110    34    33    2
   111   106   105    1
   112    95    94    1
   113    45    43   ar
   114    32    31    1
   115    32    33    1
   116    41    43   ar
   117    41    40    1
   118    94    91    1
   119    40    37    1
   120    37    38    1
   121    37    36    1
   122    90    91    1
   123    91    92    1
   124    38    39    2
   125    92    93    2
