@<TRIPOS>MOLECULE
tmp/5fyzA00.pdb
 127 121 0 0 0
SMALL
GASTEIGER

@<TRIPOS>ATOM
      1  N         83.0180   56.9990    8.6110 N.3    76  VAL76      -0.1245
      2  CA        83.0890   56.1230    9.7780 C.3    76  VAL76       0.1561
      3  C         81.7330   55.5030   10.1210 C.2    76  VAL76       0.2260
      4  O         80.7240   56.2020   10.2380 O.2    76  VAL76      -0.2867
      5  CB        83.6390   56.8800   11.0070 C.3    76  VAL76       0.0252
      6  CG1       83.4940   56.0400   12.2620 C.3    76  VAL76       0.0019
      7  CG2       85.0960   57.2550   10.7750 C.3    76  VAL76       0.0019
      8  N         93.3540   55.2630   14.3680 N.3   128  TYR128     -0.1241
      9  CA        92.6520   56.2220   15.2100 C.3   128  TYR128      0.1605
     10  C         91.4300   55.5840   15.8470 C.2   128  TYR128      0.2264
     11  O         90.9920   54.5030   15.4440 O.2   128  TYR128     -0.2867
     12  CB        92.2230   57.4490   14.4000 C.3   128  TYR128      0.0534
     13  CG        91.2480   57.1080   13.2960 C.ar  128  TYR128     -0.0201
     14  CD1       91.6930   56.5810   12.0830 C.ar  128  TYR128     -0.0009
     15  CD2       89.8830   57.2920   13.4680 C.ar  128  TYR128     -0.0009
     16  CE1       90.8030   56.2560   11.0740 C.ar  128  TYR128      0.0417
     17  CE2       88.9850   56.9660   12.4590 C.ar  128  TYR128      0.0417
     18  CZ        89.4570   56.4510   11.2650 C.ar  128  TYR128      0.1957
     19  OH        88.5740   56.1260   10.2620 O.3   128  TYR128     -0.2866
     20  N         86.8950   60.5690   20.0610 N.3   189  TYR189     -0.1241
     21  CA        87.9330   60.4690   19.0360 C.3   189  TYR189      0.1605
     22  C         89.3340   60.4500   19.6340 C.2   189  TYR189      0.2264
     23  O         89.7830   61.4630   20.1600 O.2   189  TYR189     -0.2867
     24  CB        87.8260   61.6440   18.0770 C.3   189  TYR189      0.0534
     25  CG        86.5280   61.7070   17.2950 C.ar  189  TYR189     -0.0201
     26  CD1       86.2850   60.8220   16.2520 C.ar  189  TYR189     -0.0009
     27  CD2       85.5660   62.6750   17.5790 C.ar  189  TYR189     -0.0009
     28  CE1       85.1060   60.8790   15.5260 C.ar  189  TYR189      0.0417
     29  CE2       84.3780   62.7430   16.8440 C.ar  189  TYR189      0.0417
     30  CZ        84.1720   61.8420   15.8160 C.ar  189  TYR189      0.1957
     31  OH        83.0230   61.8700   15.0700 O.3   189  TYR189     -0.2866
     32  N         93.2480   61.6940   10.2130 N.3   196  SER196     -0.1202
     33  CA        92.5410   62.8180    9.6380 C.3   196  SER196      0.2020
     34  C         91.0690   62.5350    9.3880 C.2   196  SER196      0.2618
     35  O         90.6470   61.3850    9.2670 O.2   196  SER196     -0.2717
     36  CB        93.2240   63.2340    8.3320 C.3   196  SER196      0.2103
     37  OG        93.4000   62.1120    7.5000 O.3   196  SER196     -0.2182
     38  N         90.2980   63.6070    9.3160 N.am  197  PHE197     -0.1975
     39  CA        88.8890   63.5040    8.9520 C.3   197  PHE197      0.1639
     40  C         88.7200   64.1900    7.6070 C.2   197  PHE197      0.2290
     41  O         89.1270   65.3390    7.4130 O.2   197  PHE197     -0.2864
     42  CB        87.9530   64.0830   10.0440 C.3   197  PHE197      0.0560
     43  CG        88.3510   65.4410   10.5980 C.ar  197  PHE197     -0.0200
     44  CD1       89.3540   65.5540   11.5520 C.ar  197  PHE197     -0.0042
     45  CD2       87.6640   66.5870   10.2220 C.ar  197  PHE197     -0.0042
     46  CE1       89.6980   66.7930   12.0960 C.ar  197  PHE197     -0.0003
     47  CE2       87.9860   67.8250   10.7760 C.ar  197  PHE197     -0.0003
     48  CZ        89.0180   67.9260   11.7060 C.ar  197  PHE197     -0.0000
     49  N         83.6780   66.9150    4.8010 N.3   200  HIS200     -0.1241
     50  CA        82.2890   66.4920    4.9420 C.3   200  HIS200      0.1621
     51  C         81.4740   67.6040    5.5510 C.2   200  HIS200      0.2264
     52  O         82.0120   68.5630    6.1030 O.2   200  HIS200     -0.2867
     53  CB        82.1880   65.2530    5.8180 C.3   200  HIS200      0.0745
     54  CG        82.4920   65.5260    7.2490 C.ar  200  HIS200      0.0817
     55  ND1       83.7870   65.6820    7.7230 N.ar  200  HIS200     -0.2268
     56  CD2       81.6880   65.7190    8.3220 C.ar  200  HIS200      0.1154
     57  CE1       83.7570   65.9440    9.0100 C.ar  200  HIS200      0.1986
     58  NE2       82.4880   65.9690    9.4060 N.ar  200  HIS200     -0.2212
     59  N         77.7640   67.7800    8.1490 N.3   202  GLU202     -0.1245
     60  CA        77.0340   66.9250    9.0760 C.3   202  GLU202      0.1567
     61  C         75.7060   66.4660    8.4810 C.2   202  GLU202      0.2260
     62  O         75.1200   67.1560    7.6430 O.2   202  GLU202     -0.2867
     63  CB        76.7630   67.6640   10.3830 C.3   202  GLU202      0.0388
     64  CG        78.0040   68.1910   11.0760 C.3   202  GLU202      0.1160
     65  CD        79.0870   67.1440   11.2250 C.2   202  GLU202      0.3649
     66  OE1       78.8140   66.0310   11.7130 O.co2 202  GLU202     -0.2457
     67  OE2       80.2310   67.4440   10.8440 O.co2 202  GLU202     -0.2457
     68  N         77.8340   71.2280   14.5540 N.3   208  SER208     -0.1217
     69  CA        78.5410   70.3300   15.4450 C.3   208  SER208      0.1889
     70  C         79.4160   71.1650   16.3690 C.2   208  SER208      0.2288
     71  O         79.7620   72.3060   16.0680 O.2   208  SER208     -0.2866
     72  CB        79.3820   69.2810   14.6920 C.3   208  SER208      0.2089
     73  OG        80.5820   69.8350   14.1580 O.3   208  SER208     -0.2183
     74  N         82.8420   70.5740   19.0900 N.3   210  ASN210     -0.1240
     75  CA        83.9750   69.7020   19.2620 C.3   210  ASN210      0.1653
     76  C         84.8450   70.1710   20.4010 C.2   210  ASN210      0.2266
     77  O         85.3190   71.3030   20.3830 O.2   210  ASN210     -0.2867
     78  CB        84.7820   69.6740   17.9730 C.3   210  ASN210      0.1155
     79  CG        83.9170   69.4220   16.7630 C.2   210  ASN210      0.2627
     80  OD1       83.8000   68.2910   16.3260 O.2   210  ASN210     -0.2716
     81  ND2       83.3000   70.4720   16.2180 N.am  210  ASN210     -0.0877
     82  N         94.5400   69.8710   17.2570 N.3   218  LYS218     -0.1245
     83  CA        93.8150   69.3680   16.1020 C.3   218  LYS218      0.1561
     84  C         93.7220   70.5120   15.1190 C.2   218  LYS218      0.2260
     85  O         93.3010   71.6200   15.4620 O.2   218  LYS218     -0.2867
     86  CB        92.4270   68.8400   16.5130 C.3   218  LYS218      0.0271
     87  CG        91.6270   68.2220   15.3820 C.3   218  LYS218      0.0035
     88  CD        90.2050   67.8910   15.8530 C.3   218  LYS218      0.0206
     89  CE        90.1860   67.0200   17.1080 C.3   218  LYS218      0.1093
     90  NZ        90.4470   65.5900   16.7770 N.3   218  LYS218     -0.1314
     91  N         92.2360   72.2480   11.8320 N.3   220  TRP220     -0.1241
     92  CA        90.9650   72.2660   11.1010 C.3   220  TRP220      0.1605
     93  C         91.0050   73.1260    9.8590 C.2   220  TRP220      0.2264
     94  O         91.6610   74.1660    9.8470 O.2   220  TRP220     -0.2867
     95  CB        89.8460   72.8330   11.9780 C.3   220  TRP220      0.0550
     96  CG        89.4660   72.0380   13.1840 C.ar  220  TRP220      0.0003
     97  CD1       90.1840   71.8900   14.3380 C.ar  220  TRP220      0.0946
     98  CD2       88.2390   71.3210   13.3730 C.ar  220  TRP220      0.0152
     99  NE1       89.4870   71.1030   15.2280 N.ar  220  TRP220     -0.2442
    100  CE2       88.2890   70.7490   14.6620 C.ar  220  TRP220      0.0810
    101  CE3       87.1100   71.1080   12.5700 C.ar  220  TRP220      0.0012
    102  CZ2       87.2400   69.9590   15.1720 C.ar  220  TRP220      0.0191
    103  CZ3       86.0680   70.3260   13.0730 C.ar  220  TRP220      0.0001
    104  CH2       86.1430   69.7550   14.3600 C.ar  220  TRP220      0.0015
    105  N         84.0720   70.8040    6.3870 N.3   288  HIS288     -0.1241
    106  CA        85.2890   70.8760    7.1760 C.3   288  HIS288      0.1621
    107  C         86.0860   69.5960    7.0580 C.2   288  HIS288      0.2264
    108  O         85.5580   68.5340    6.6970 O.2   288  HIS288     -0.2867
    109  CB        84.9770   71.2000    8.6530 C.3   288  HIS288      0.0745
    110  CG        83.9690   70.2870    9.2800 C.ar  288  HIS288      0.0817
    111  ND1       82.6180   70.4000    9.0340 N.ar  288  HIS288     -0.2268
    112  CD2       84.1100   69.2570   10.1500 C.ar  288  HIS288      0.1154
    113  CE1       81.9710   69.4690    9.7130 C.ar  288  HIS288      0.1986
    114  NE2       82.8510   68.7620   10.4020 N.ar  288  HIS288     -0.2212
    115  N         95.0420   65.4680   13.1390 N.3   292  ASN292     -0.1240
    116  CA        95.6180   65.6150   14.4580 C.3   292  ASN292      0.1653
    117  C         97.1260   65.8310   14.3900 C.2   292  ASN292      0.2266
    118  O         97.7970   65.2440   13.5530 O.2   292  ASN292     -0.2867
    119  CB        95.2900   64.3820   15.2940 C.3   292  ASN292      0.1155
    120  CG        93.7960   64.2450   15.5330 C.2   292  ASN292      0.2627
    121  OD1       93.1870   65.1320   16.1460 O.2   292  ASN292     -0.2716
    122  ND2       93.1950   63.1640   15.0340 N.am  292  ASN292     -0.0877
    123  N         89.3570   63.8140   21.7700 N.3   298  ALA298     -0.1245
    124  CA        88.3500   64.8360   21.5320 C.3   298  ALA298      0.1562
    125  C         86.9710   64.2050   21.6740 C.2   298  ALA298      0.2260
    126  O         86.8230   62.9940   21.5950 O.2   298  ALA298     -0.2867
    127  CB        88.4960   65.4710   20.1320 C.3   298  ALA298      0.0290
@<TRIPOS>BOND
     1    49    50    1
     2    50    51    1
     3    50    53    1
     4    51    52    2
     5    53    54    1
     6   105   106    1
     7   108   107    2
     8   107   106    1
     9   106   109    1
    10    54    55   ar
    11    54    56   ar
    12    41    40    2
    13    37    36    1
    14    40    39    1
    15    62    61    2
    16    55    57   ar
    17    59    60    1
    18    56    58   ar
    19    36    33    1
    20    61    60    1
    21     1     2    1
    22   109   110    1
    23    39    38    1
    24    39    42    1
    25    57    58   ar
    26   111   110   ar
    27   111   113   ar
    28    60    63    1
    29    35    34    2
    30   110   112   ar
    31    38    34   am
    32    34    33    1
    33    33    32    1
    34   113   114   ar
    35     2     3    1
    36     2     5    1
    37    94    93    2
    38    93    92    1
    39    42    43    1
    40     3     4    2
    41   112   114   ar
    42    45    43   ar
    43    45    47   ar
    44    19    18    1
    45    63    64    1
    46    43    44   ar
    47     7     5    1
    48    47    48   ar
    49    67    65   ar
    50     5     6    1
    51    16    18   ar
    52    16    14   ar
    53    64    65    1
    54    92    91    1
    55    92    95    1
    56    65    66   ar
    57    18    17   ar
    58    44    46   ar
    59    48    46   ar
    60    95    96    1
    61    14    13   ar
    62    17    15   ar
    63   101   103   ar
    64   101    98   ar
    65   103   104   ar
    66   115   116    1
    67    96    98   ar
    68    96    97   ar
    69    13    15   ar
    70    13    12    1
    71    98   100   ar
    72   118   117    2
    73    73    72    1
    74    97    99   ar
    75   104   102   ar
    76     8     9    1
    77   117   116    1
    78    12     9    1
    79   116   119    1
    80    68    69    1
    81   100   102   ar
    82   100    99   ar
    83    72    69    1
    84   122   120   am
    85    31    30    1
    86    84    85    2
    87    84    83    1
    88     9    10    1
    89   119   120    1
    90    87    88    1
    91    87    86    1
    92    11    10    2
    93    69    70    1
    94    28    30   ar
    95    28    26   ar
    96   120   121    2
    97    30    29   ar
    98    88    89    1
    99    71    70    2
   100    83    86    1
   101    83    82    1
   102    81    79   am
   103    26    25   ar
   104    80    79    2
   105    79    78    1
   106    90    89    1
   107    29    27   ar
   108    25    27   ar
   109    25    24    1
   110    78    75    1
   111    24    21    1
   112    21    22    1
   113    21    20    1
   114    74    75    1
   115    75    76    1
   116    22    23    2
   117   127   124    1
   118    77    76    2
   119   124   125    1
   120   124   123    1
   121   126   125    2
