@<TRIPOS>MOLECULE
tmp/5fz0A01.pdb
 171 165 0 0 0
SMALL
GASTEIGER

@<TRIPOS>ATOM
      1  N         92.5030   52.4470   13.9130 N.3    63  ARG63      -0.1245
      2  CA        92.2570   52.5480   12.4880 C.3    63  ARG63       0.1563
      3  C         93.5450   52.9510   11.7870 C.2    63  ARG63       0.2260
      4  O         94.3270   53.7310   12.3360 O.2    63  ARG63      -0.2867
      5  CB        91.1620   53.5590   12.2310 C.3    63  ARG63       0.0307
      6  CG        89.8760   53.1310   12.8670 C.3    63  ARG63       0.0489
      7  CD        88.9690   54.3070   13.1210 C.3    63  ARG63       0.2205
      8  NE        87.7570   53.8650   13.7980 N.pl3  63  ARG63      -0.0865
      9  CZ        86.5330   53.9780   13.2910 C.cat  63  ARG63       0.5346
     10  NH1       86.3550   54.5390   12.0940 N.pl3  63  ARG63       0.1354
     11  NH2       85.4920   53.5370   13.9930 N.pl3  63  ARG63       0.1354
     12  N         95.7240   54.5140    8.4810 N.3    65  GLN65      -0.1245
     13  CA        95.5630   55.5890    7.5270 C.3    65  GLN65       0.1566
     14  C         96.7980   55.6900    6.6300 C.2    65  GLN65       0.2260
     15  O         97.9110   55.7490    7.1490 O.2    65  GLN65      -0.2867
     16  CB        95.3530   56.8820    8.2950 C.3    65  GLN65       0.0367
     17  CG        94.7690   57.9890    7.5450 C.3    65  GLN65       0.0905
     18  CD        94.4600   59.1490    8.4570 C.2    65  GLN65       0.2608
     19  OE1       95.2570   59.4940    9.3180 O.2    65  GLN65      -0.2717
     20  NE2       93.2880   59.7480    8.2850 N.am   65  GLN65      -0.0878
     21  N         87.1270   56.2370    3.5060 N.3    74  THR74      -0.1203
     22  CA        85.7110   56.1040    3.8530 C.3    74  THR74       0.1994
     23  C         85.5070   56.6870    5.2480 C.2    74  THR74       0.2618
     24  O         86.3140   56.4380    6.1450 O.2    74  THR74      -0.2717
     25  CB        85.2120   54.6320    3.7860 C.3    74  THR74       0.1784
     26  OG1       85.9900   53.8060    4.6580 O.3    74  THR74      -0.2211
     27  CG2       85.3260   54.0840    2.3730 C.3    74  THR74       0.0376
     28  N         84.4330   57.4720    5.4070 N.am   75  ARG75      -0.1965
     29  CA        84.1410   58.2210    6.6470 C.3    75  ARG75       0.1729
     30  C         84.2350   57.3590    7.9200 C.2    75  ARG75       0.2616
     31  O         84.9430   57.7280    8.8560 O.2    75  ARG75      -0.2715
     32  CB        82.7530   58.8800    6.5710 C.3    75  ARG75       0.0348
     33  CG        82.4560   59.6640    7.8350 C.3    75  ARG75       0.0492
     34  CD        81.8980   61.0040    7.5280 C.3    75  ARG75       0.2205
     35  NE        81.9830   61.9410    8.6360 N.pl3  75  ARG75      -0.0865
     36  CZ        81.0830   62.9160    8.7330 C.cat  75  ARG75       0.5346
     37  NH1       80.1170   63.0380    7.8380 N.pl3  75  ARG75       0.1354
     38  NH2       81.1670   63.7980    9.7350 N.pl3  75  ARG75       0.1354
     39  N         83.5170   56.2320    7.9530 N.am   76  VAL76      -0.1977
     40  CA        83.6390   55.2350    9.0350 C.3    76  VAL76       0.1596
     41  C         83.7420   53.8060    8.4840 C.2    76  VAL76       0.2287
     42  O         84.5530   53.5110    7.5950 O.2    76  VAL76      -0.2864
     43  CB        82.4320   55.3050   10.0470 C.3    76  VAL76       0.0276
     44  CG1       82.8120   54.7080   11.4360 C.3    76  VAL76       0.0022
     45  CG2       81.9240   56.7520   10.2200 C.3    76  VAL76       0.0022
     46  N         95.2460   55.6860   14.4550 N.3   127  TYR127     -0.1241
     47  CA        94.5200   56.5790   15.3580 C.3   127  TYR127      0.1605
     48  C         93.2920   55.8990   16.0040 C.2   127  TYR127      0.2264
     49  O         92.9670   54.7290   15.7020 O.2   127  TYR127     -0.2867
     50  CB        94.1080   57.8470   14.6000 C.3   127  TYR127      0.0534
     51  CG        93.1200   57.5830   13.4840 C.ar  127  TYR127     -0.0201
     52  CD1       93.5390   57.0730   12.2410 C.ar  127  TYR127     -0.0009
     53  CD2       91.7540   57.8150   13.6770 C.ar  127  TYR127     -0.0009
     54  CE1       92.6110   56.8180   11.2190 C.ar  127  TYR127      0.0417
     55  CE2       90.8290   57.5630   12.6750 C.ar  127  TYR127      0.0417
     56  CZ        91.2550   57.0670   11.4580 C.ar  127  TYR127      0.1957
     57  OH        90.3190   56.8400   10.4930 O.3   127  TYR127     -0.2866
     58  N         89.1020   56.4890   16.7610 N.3   129  ALA129     -0.1245
     59  CA        87.8740   57.2870   16.6700 C.3   129  ALA129      0.1562
     60  C         86.6700   56.3920   16.9310 C.2   129  ALA129      0.2260
     61  O         86.5110   55.3830   16.2720 O.2   129  ALA129     -0.2867
     62  CB        87.7620   57.9880   15.3070 C.3   129  ALA129      0.0290
     63  N         81.9760   61.8990   20.4340 N.3   186  TRP186     -0.1241
     64  CA        83.0040   61.0230   19.8790 C.3   186  TRP186      0.1605
     65  C         84.3460   61.2950   20.5560 C.2   186  TRP186      0.2264
     66  O         84.6750   62.4320   20.9210 O.2   186  TRP186     -0.2867
     67  CB        83.1370   61.2160   18.3690 C.3   186  TRP186      0.0550
     68  CG        82.0110   60.6620   17.5370 C.ar  186  TRP186      0.0003
     69  CD1       80.7150   61.0990   17.5010 C.ar  186  TRP186      0.0946
     70  CD2       82.1010   59.5960   16.5790 C.ar  186  TRP186      0.0152
     71  NE1       79.9940   60.3610   16.5960 N.ar  186  TRP186     -0.2442
     72  CE2       80.8210   59.4350   16.0130 C.ar  186  TRP186      0.0810
     73  CE3       83.1440   58.7630   16.1440 C.ar  186  TRP186      0.0012
     74  CZ2       80.5480   58.4650   15.0480 C.ar  186  TRP186      0.0191
     75  CZ3       82.8690   57.7940   15.1820 C.ar  186  TRP186      0.0001
     76  CH2       81.5840   57.6610   14.6430 C.ar  186  TRP186      0.0015
     77  N         88.5110   61.0090   20.1070 N.3   188  TYR188     -0.1241
     78  CA        89.6120   60.8780   19.1360 C.3   188  TYR188      0.1605
     79  C         91.0070   60.8510   19.7710 C.2   188  TYR188      0.2264
     80  O         91.4580   61.8520   20.3370 O.2   188  TYR188     -0.2867
     81  CB        89.5660   62.0310   18.1270 C.3   188  TYR188      0.0534
     82  CG        88.2560   62.1970   17.3980 C.ar  188  TYR188     -0.0201
     83  CD1       87.8830   61.3170   16.3770 C.ar  188  TYR188     -0.0009
     84  CD2       87.3920   63.2380   17.7200 C.ar  188  TYR188     -0.0009
     85  CE1       86.6900   61.4700   15.6930 C.ar  188  TYR188      0.0417
     86  CE2       86.1930   63.4060   17.0460 C.ar  188  TYR188      0.0417
     87  CZ        85.8440   62.5270   16.0390 C.ar  188  TYR188      0.1957
     88  OH        84.6490   62.6970   15.3830 O.3   188  TYR188     -0.2866
     89  N         95.0930   62.2550   10.3650 N.3   195  SER195     -0.1202
     90  CA        94.3400   63.3790    9.8310 C.3   195  SER195      0.2020
     91  C         92.8480   63.1170    9.6460 C.2   195  SER195      0.2618
     92  O         92.3630   61.9800    9.7330 O.2   195  SER195     -0.2717
     93  CB        94.9530   63.8060    8.4980 C.3   195  SER195      0.2103
     94  OG        95.3650   62.6730    7.7710 O.3   195  SER195     -0.2182
     95  N         92.1220   64.1930    9.3920 N.am  196  PHE196     -0.1975
     96  CA        90.7140   64.0800    9.0630 C.3   196  PHE196      0.1639
     97  C         90.4220   64.8780    7.7950 C.2   196  PHE196      0.2290
     98  O         90.7510   66.0620    7.7160 O.2   196  PHE196     -0.2864
     99  CB        89.8030   64.5090   10.2380 C.3   196  PHE196      0.0560
    100  CG        90.0570   65.9080   10.7820 C.ar  196  PHE196     -0.0200
    101  CD1       91.0940   66.1520   11.7030 C.ar  196  PHE196     -0.0042
    102  CD2       89.2070   66.9540   10.4520 C.ar  196  PHE196     -0.0042
    103  CE1       91.2970   67.4460   12.2520 C.ar  196  PHE196     -0.0003
    104  CE2       89.3930   68.2500   10.9780 C.ar  196  PHE196     -0.0003
    105  CZ        90.4500   68.4980   11.8850 C.ar  196  PHE196     -0.0000
    106  N         85.1430   67.5420    5.0550 N.3   199  HIS199     -0.1241
    107  CA        83.7560   67.0780    5.2100 C.3   199  HIS199      0.1621
    108  C         82.8860   68.1810    5.8350 C.2   199  HIS199      0.2264
    109  O         83.4020   69.1820    6.3200 O.2   199  HIS199     -0.2867
    110  CB        83.7030   65.8150    6.0690 C.3   199  HIS199      0.0745
    111  CG        83.9640   66.0730    7.5150 C.ar  199  HIS199      0.0817
    112  ND1       85.2340   66.2400    8.0210 N.ar  199  HIS199     -0.2268
    113  CD2       83.1180   66.2450    8.5590 C.ar  199  HIS199      0.1154
    114  CE1       85.1640   66.4870    9.3180 C.ar  199  HIS199      0.1986
    115  NE2       83.8910   66.4930    9.6720 N.ar  199  HIS199     -0.2212
    116  N         79.2300   68.4430    8.5700 N.3   201  GLU201     -0.1245
    117  CA        78.4820   67.5490    9.4950 C.3   201  GLU201      0.1567
    118  C         77.1520   67.0990    8.8830 C.2   201  GLU201      0.2260
    119  O         76.5850   67.7970    8.0350 O.2   201  GLU201     -0.2867
    120  CB        78.2140   68.2340   10.8240 C.3   201  GLU201      0.0388
    121  CG        79.4700   68.7680   11.5120 C.3   201  GLU201      0.1160
    122  CD        80.5790   67.7520   11.6020 C.2   201  GLU201      0.3649
    123  OE1       80.3610   66.6270   12.1290 O.co2 201  GLU201     -0.2457
    124  OE2       81.6930   68.0850   11.1270 O.co2 201  GLU201     -0.2457
    125  N         79.3590   71.7210   14.9800 N.3   207  SER207     -0.1217
    126  CA        80.0190   70.7870   15.8890 C.3   207  SER207      0.1889
    127  C         80.8790   71.5930   16.8410 C.2   207  SER207      0.2288
    128  O         81.1830   72.7550   16.5890 O.2   207  SER207     -0.2866
    129  CB        80.8420   69.7270   15.1560 C.3   207  SER207      0.2089
    130  OG        81.9180   70.3290   14.4560 O.3   207  SER207     -0.2183
    131  N         84.3190   70.8740   19.4980 N.3   209  ASN209     -0.1240
    132  CA        85.4300   69.9400   19.7220 C.3   209  ASN209      0.1653
    133  C         86.3320   70.5510   20.7770 C.2   209  ASN209      0.2266
    134  O         86.6700   71.7580   20.7300 O.2   209  ASN209     -0.2867
    135  CB        86.2140   69.6740   18.4000 C.3   209  ASN209      0.1155
    136  CG        87.4530   68.7450   18.5720 C.2   209  ASN209      0.2627
    137  OD1       88.4240   69.1100   19.2630 O.2   209  ASN209     -0.2716
    138  ND2       87.4510   67.5780   17.8680 N.am  209  ASN209     -0.0877
    139  N         96.3060   70.3280   17.5360 N.3   217  LYS217     -0.1245
    140  CA        95.5740   69.8130   16.4030 C.3   217  LYS217      0.1561
    141  C         95.4780   70.9690   15.4550 C.2   217  LYS217      0.2260
    142  O         95.0210   72.0480   15.8430 O.2   217  LYS217     -0.2867
    143  CB        94.1840   69.2960   16.8140 C.3   217  LYS217      0.0271
    144  CG        93.3550   68.6930   15.6530 C.3   217  LYS217      0.0035
    145  CD        91.9120   68.2800   16.0250 C.3   217  LYS217      0.0206
    146  CE        91.8360   67.2530   17.1800 C.3   217  LYS217      0.1093
    147  NZ        92.2670   65.8610   16.8370 N.3   217  LYS217     -0.1314
    148  N         93.8710   72.8100   12.1580 N.3   219  TRP219     -0.1241
    149  CA        92.5760   72.8040   11.4860 C.3   219  TRP219      0.1605
    150  C         92.6260   73.6650   10.2620 C.2   219  TRP219      0.2264
    151  O         93.2860   74.7040   10.2880 O.2   219  TRP219     -0.2867
    152  CB        91.4490   73.3710   12.3860 C.3   219  TRP219      0.0550
    153  CG        91.0710   72.5430   13.5630 C.ar  219  TRP219      0.0003
    154  CD1       91.8120   72.3200   14.6970 C.ar  219  TRP219      0.0946
    155  CD2       89.8400   71.8470   13.7410 C.ar  219  TRP219      0.0152
    156  NE1       91.1130   71.5120   15.5680 N.ar  219  TRP219     -0.2442
    157  CE2       89.9040   71.1960   15.0050 C.ar  219  TRP219      0.0810
    158  CE3       88.6760   71.7100   12.9560 C.ar  219  TRP219      0.0012
    159  CZ2       88.8490   70.4060   15.5040 C.ar  219  TRP219      0.0191
    160  CZ3       87.6160   70.9420   13.4640 C.ar  219  TRP219      0.0001
    161  CH2       87.7160   70.2990   14.7240 C.ar  219  TRP219      0.0015
    162  N         85.6930   71.3990    6.6060 N.3   287  HIS287     -0.1241
    163  CA        86.8830   71.4430    7.4340 C.3   287  HIS287      0.1621
    164  C         87.7080   70.1610    7.3350 C.2   287  HIS287      0.2264
    165  O         87.1780   69.1110    6.9700 O.2   287  HIS287     -0.2867
    166  CB        86.5340   71.7620    8.9170 C.3   287  HIS287      0.0745
    167  CG        85.5230   70.8410    9.5480 C.ar  287  HIS287      0.0817
    168  ND1       84.1550   71.0340    9.4300 N.ar  287  HIS287     -0.2268
    169  CD2       85.6810   69.7540   10.3480 C.ar  287  HIS287      0.1154
    170  CE1       83.5250   70.0930   10.1140 C.ar  287  HIS287      0.1986
    171  NE2       84.4240   69.3060   10.6830 N.ar  287  HIS287     -0.2212
@<TRIPOS>BOND
     1    27    25    1
     2    21    22    1
     3    25    22    1
     4    25    26    1
     5    22    23    1
     6   106   107    1
     7   107   108    1
     8   107   110    1
     9    23    28   am
    10    23    24    2
    11    28    29    1
    12   108   109    2
    13   110   111    1
    14    32    29    1
    15    32    33    1
    16   162   163    1
    17    14    15    2
    18    14    13    1
    19    29    30    1
    20   165   164    2
    21   164   163    1
    22   163   166    1
    23   111   112   ar
    24   111   113   ar
    25    13    16    1
    26    13    12    1
    27    34    33    1
    28    34    35    1
    29    17    16    1
    30    17    18    1
    31    42    41    2
    32    98    97    2
    33    94    93    1
    34    97    96    1
    35    37    36    1
    36    30    39   am
    37    30    31    2
    38    39    40    1
    39   112   114   ar
    40   119   118    2
    41    20    18   am
    42    18    19    2
    43    41    40    1
    44    93    90    1
    45   113   115   ar
    46   116   117    1
    47    35    36    2
    48    36    38    1
    49   118   117    1
    50   166   167    1
    51    40    43    1
    52    96    95    1
    53    96    99    1
    54   114   115   ar
    55    95    91   am
    56   168   167   ar
    57   168   170   ar
    58   117   120    1
    59   167   169   ar
    60    91    92    2
    61    91    90    1
    62    90    89    1
    63    43    45    1
    64    43    44    1
    65   170   171   ar
    66    99   100    1
    67   150   151    2
    68   150   149    1
    69   169   171   ar
    70   102   100   ar
    71   102   104   ar
    72    57    56    1
    73   100   101   ar
    74   120   121    1
    75   104   105   ar
    76   124   122   ar
    77    54    56   ar
    78    54    52   ar
    79    56    55   ar
    80   149   148    1
    81   149   152    1
    82   121   122    1
    83   122   123   ar
    84   101   103   ar
    85     3     4    2
    86     3     2    1
    87   105   103   ar
    88    10     9    1
    89     5     2    1
    90     5     6    1
    91    52    51   ar
    92   152   153    1
    93     2     1    1
    94    55    53   ar
    95     6     7    1
    96   158   160   ar
    97   158   155   ar
    98     7     8    1
    99     9     8    2
   100     9    11    1
   101   160   161   ar
   102    51    53   ar
   103    51    50    1
   104   153   155   ar
   105   153   154   ar
   106   155   157   ar
   107    46    47    1
   108   130   129    1
   109    50    47    1
   110    76    74   ar
   111    76    75   ar
   112   154   156   ar
   113   161   159   ar
   114   125   126    1
   115   157   159   ar
   116   157   156   ar
   117    74    72   ar
   118   129   126    1
   119    75    73   ar
   120    62    59    1
   121    47    48    1
   122    88    87    1
   123   141   142    2
   124   141   140    1
   125   144   145    1
   126   144   143    1
   127    85    87   ar
   128    85    83   ar
   129    49    48    2
   130   126   127    1
   131    72    70   ar
   132    72    71   ar
   133   145   146    1
   134    87    86   ar
   135    73    70   ar
   136    61    60    2
   137    83    82   ar
   138   140   143    1
   139   140   139    1
   140    70    68   ar
   141   128   127    2
   142    71    69   ar
   143    59    58    1
   144    59    60    1
   145   147   146    1
   146    86    84   ar
   147    82    84   ar
   148    82    81    1
   149    69    68   ar
   150    68    67    1
   151   138   136   am
   152    81    78    1
   153    67    64    1
   154   135   136    1
   155   135   132    1
   156   136   137    2
   157    78    79    1
   158    78    77    1
   159   131   132    1
   160   132   133    1
   161    79    80    2
   162    64    63    1
   163    64    65    1
   164    65    66    2
   165   134   133    2
