@<TRIPOS>MOLECULE
tmp/5fz1A00.pdb
 180 174 0 0 0
SMALL
GASTEIGER

@<TRIPOS>ATOM
      1  N         91.7280   52.3770   13.8880 N.3    63  ARG63      -0.1245
      2  CA        91.5650   52.4530   12.4370 C.3    63  ARG63       0.1563
      3  C         92.8800   52.8440   11.7440 C.2    63  ARG63       0.2260
      4  O         93.6750   53.6050   12.2940 O.2    63  ARG63      -0.2867
      5  CB        90.4620   53.4470   12.1010 C.3    63  ARG63       0.0307
      6  CG        89.1470   53.0570   12.7620 C.3    63  ARG63       0.0489
      7  CD        88.2370   54.2430   13.0020 C.3    63  ARG63       0.2205
      8  NE        87.1280   53.8750   13.8790 N.pl3  63  ARG63      -0.0865
      9  CZ        85.9190   53.5270   13.4510 C.cat  63  ARG63       0.5346
     10  NH1       85.6530   53.5110   12.1510 N.pl3  63  ARG63       0.1354
     11  NH2       84.9750   53.1970   14.3250 N.pl3  63  ARG63       0.1354
     12  N         95.0300   54.4100    8.3800 N.3    65  GLN65      -0.1245
     13  CA        94.8440   55.4730    7.4160 C.3    65  GLN65       0.1566
     14  C         96.0660   55.6160    6.5220 C.2    65  GLN65       0.2260
     15  O         97.1940   55.7000    7.0190 O.2    65  GLN65      -0.2867
     16  CB        94.5710   56.7820    8.1620 C.3    65  GLN65       0.0367
     17  CG        94.0270   57.8930    7.3290 C.3    65  GLN65       0.0905
     18  CD        93.6700   59.0970    8.1800 C.2    65  GLN65       0.2608
     19  OE1       94.4270   59.4920    9.0650 O.2    65  GLN65      -0.2717
     20  NE2       92.5030   59.6730    7.9280 N.am   65  GLN65      -0.0878
     21  N         86.5250   56.1600    3.2960 N.3    74  THR74      -0.1203
     22  CA        85.1400   56.0050    3.7360 C.3    74  THR74       0.1994
     23  C         84.9500   56.6840    5.0950 C.2    74  THR74       0.2618
     24  O         85.7740   56.5230    5.9930 O.2    74  THR74      -0.2717
     25  CB        84.7220   54.5150    3.8230 C.3    74  THR74       0.1784
     26  OG1       85.5360   53.8370    4.7870 O.3    74  THR74      -0.2211
     27  CG2       84.8810   53.8320    2.4740 C.3    74  THR74       0.0376
     28  N         83.8470   57.4210    5.2320 N.am   75  ARG75      -0.1965
     29  CA        83.6200   58.3350    6.3570 C.3    75  ARG75       0.1729
     30  C         83.6110   57.6620    7.7370 C.2    75  ARG75       0.2616
     31  O         84.2050   58.1890    8.6780 O.2    75  ARG75      -0.2715
     32  CB        82.3070   59.1080    6.1550 C.3    75  ARG75       0.0348
     33  CG        82.4160   60.5780    6.5640 C.3    75  ARG75       0.0492
     34  CD        81.3440   61.4950    5.9640 C.3    75  ARG75       0.2205
     35  NE        81.0840   62.6480    6.8360 N.pl3  75  ARG75      -0.0865
     36  CZ        79.9920   62.8260    7.5850 C.cat  75  ARG75       0.5346
     37  NH1       78.9980   61.9440    7.5750 N.pl3  75  ARG75       0.1354
     38  NH2       79.8820   63.9120    8.3380 N.pl3  75  ARG75       0.1354
     39  N         82.9270   56.5260    7.8700 N.am   76  VAL76      -0.1963
     40  CA        83.0130   55.7310    9.1020 C.3    76  VAL76       0.1727
     41  C         83.2370   54.2500    8.7320 C.2    76  VAL76       0.2616
     42  O         83.0230   53.8550    7.5850 O.2    76  VAL76      -0.2715
     43  CB        81.7410   55.8880   10.0070 C.3    76  VAL76       0.0290
     44  CG1       82.0050   55.3560   11.4140 C.3    76  VAL76       0.0023
     45  CG2       81.2870   57.3520   10.0870 C.3    76  VAL76       0.0023
     46  N         83.7070   53.4490    9.6900 N.am   77  LYS77      -0.1977
     47  CA        83.8120   51.9990    9.5090 C.3    77  LYS77       0.1596
     48  C         83.5000   51.2720   10.8190 C.2    77  LYS77       0.2287
     49  O         82.8360   51.8210   11.7060 O.2    77  LYS77      -0.2864
     50  CB        85.2040   51.6060    9.0010 C.3    77  LYS77       0.0298
     51  CG        85.2050   50.0920    8.7900 C.3    77  LYS77       0.0038
     52  CD        86.3360   49.5340    7.9620 C.3    77  LYS77       0.0206
     53  CE        87.5320   49.2330    8.8490 C.3    77  LYS77       0.1093
     54  NZ        87.7820   50.3630    9.8030 N.3    77  LYS77      -0.1314
     55  N         94.5480   55.6740   14.3880 N.3   127  TYR127     -0.1241
     56  CA        93.8070   56.5880   15.2600 C.3   127  TYR127      0.1605
     57  C         92.5610   55.9320   15.8630 C.2   127  TYR127      0.2264
     58  O         92.1600   54.8340   15.4620 O.2   127  TYR127     -0.2867
     59  CB        93.3990   57.8430   14.4910 C.3   127  TYR127      0.0534
     60  CG        92.4070   57.5580   13.3890 C.ar  127  TYR127     -0.0201
     61  CD1       92.8280   57.0480   12.1620 C.ar  127  TYR127     -0.0009
     62  CD2       91.0470   57.7710   13.5810 C.ar  127  TYR127     -0.0009
     63  CE1       91.9210   56.7720   11.1480 C.ar  127  TYR127      0.0417
     64  CE2       90.1340   57.5040   12.5700 C.ar  127  TYR127      0.0417
     65  CZ        90.5760   57.0020   11.3590 C.ar  127  TYR127      0.1957
     66  OH        89.6780   56.7340   10.3610 O.3   127  TYR127     -0.2866
     67  N         88.4310   56.4930   16.7120 N.3   129  ALA129     -0.1245
     68  CA        87.1810   57.2460   16.6360 C.3   129  ALA129      0.1562
     69  C         85.9960   56.3380   16.9960 C.2   129  ALA129      0.2260
     70  O         85.7980   55.3150   16.3620 O.2   129  ALA129     -0.2867
     71  CB        87.0000   57.8540   15.2450 C.3   129  ALA129      0.0290
     72  N         81.3540   62.0040   20.2200 N.3   187  TRP187     -0.1241
     73  CA        82.3680   61.0830   19.7050 C.3   187  TRP187      0.1605
     74  C         83.7030   61.3850   20.3690 C.2   187  TRP187      0.2264
     75  O         84.0180   62.5430   20.6700 O.2   187  TRP187     -0.2867
     76  CB        82.5110   61.1920   18.1840 C.3   187  TRP187      0.0550
     77  CG        81.3870   60.5900   17.3710 C.ar  187  TRP187      0.0003
     78  CD1       80.0830   61.0150   17.3140 C.ar  187  TRP187      0.0946
     79  CD2       81.4910   59.4920   16.4530 C.ar  187  TRP187      0.0152
     80  NE1       79.3690   60.2290   16.4370 N.ar  187  TRP187     -0.2442
     81  CE2       80.2070   59.2880   15.8960 C.ar  187  TRP187      0.0810
     82  CE3       82.5450   58.6510   16.0550 C.ar  187  TRP187      0.0012
     83  CZ2       79.9470   58.2800   14.9660 C.ar  187  TRP187      0.0191
     84  CZ3       82.2840   57.6430   15.1310 C.ar  187  TRP187      0.0001
     85  CH2       80.9920   57.4700   14.5950 C.ar  187  TRP187      0.0015
     86  N         87.8880   61.0600   20.0450 N.3   189  TYR189     -0.1241
     87  CA        88.9550   60.9430   19.0350 C.3   189  TYR189      0.1605
     88  C         90.3540   60.9300   19.6440 C.2   189  TYR189      0.2264
     89  O         90.7760   61.9240   20.2510 O.2   189  TYR189     -0.2867
     90  CB        88.8720   62.0940   18.0410 C.3   189  TYR189      0.0534
     91  CG        87.5710   62.1850   17.2650 C.ar  189  TYR189     -0.0201
     92  CD1       87.3010   61.3190   16.2060 C.ar  189  TYR189     -0.0009
     93  CD2       86.6220   63.1510   17.5790 C.ar  189  TYR189     -0.0009
     94  CE1       86.1260   61.4140   15.4900 C.ar  189  TYR189      0.0417
     95  CE2       85.4500   63.2550   16.8630 C.ar  189  TYR189      0.0417
     96  CZ        85.2020   62.3860   15.8230 C.ar  189  TYR189      0.1957
     97  OH        84.0240   62.4960   15.1240 O.3   189  TYR189     -0.2866
     98  N         94.3420   62.1930   10.2380 N.3   196  SER196     -0.1202
     99  CA        93.6040   63.3220    9.6740 C.3   196  SER196      0.2020
    100  C         92.1220   63.0840    9.4190 C.2   196  SER196      0.2618
    101  O         91.6580   61.9450    9.3140 O.2   196  SER196     -0.2717
    102  CB        94.2760   63.7780    8.3670 C.3   196  SER196      0.2103
    103  OG        94.3270   62.7310    7.4430 O.3   196  SER196     -0.2182
    104  N         91.3780   64.1800    9.3260 N.am  197  PHE197     -0.1975
    105  CA        89.9660   64.0840    8.9770 C.3   197  PHE197      0.1639
    106  C         89.7530   64.7990    7.6480 C.2   197  PHE197      0.2290
    107  O         90.1690   65.9540    7.4820 O.2   197  PHE197     -0.2864
    108  CB        89.0470   64.6230   10.1080 C.3   197  PHE197      0.0560
    109  CG        89.4100   66.0120   10.6430 C.ar  197  PHE197     -0.0200
    110  CD1       90.5040   66.1950   11.4970 C.ar  197  PHE197     -0.0042
    111  CD2       88.6050   67.1070   10.3620 C.ar  197  PHE197     -0.0042
    112  CE1       90.8220   67.4510   12.0110 C.ar  197  PHE197     -0.0003
    113  CE2       88.9120   68.3640   10.8630 C.ar  197  PHE197     -0.0003
    114  CZ        90.0420   68.5370   11.7000 C.ar  197  PHE197     -0.0000
    115  N         84.5510   67.5560    4.7340 N.3   200  HIS200     -0.1241
    116  CA        83.1510   67.1300    4.8960 C.3   200  HIS200      0.1621
    117  C         82.3270   68.2280    5.5700 C.2   200  HIS200      0.2264
    118  O         82.8850   69.1850    6.1000 O.2   200  HIS200     -0.2867
    119  CB        83.0640   65.8520    5.7320 C.3   200  HIS200      0.0745
    120  CG        83.2620   66.1030    7.1920 C.ar  200  HIS200      0.0817
    121  ND1       84.5040   66.3370    7.7430 N.ar  200  HIS200     -0.2268
    122  CD2       82.3720   66.2260    8.2060 C.ar  200  HIS200      0.1154
    123  CE1       84.3730   66.5690    9.0360 C.ar  200  HIS200      0.1986
    124  NE2       83.0900   66.5060    9.3440 N.ar  200  HIS200     -0.2212
    125  N         78.5550   68.5010    8.2460 N.3   202  GLU202     -0.1245
    126  CA        77.8480   67.5950    9.1730 C.3   202  GLU202      0.1567
    127  C         76.5330   67.0800    8.5630 C.2   202  GLU202      0.2260
    128  O         75.9600   67.7180    7.6760 O.2   202  GLU202     -0.2867
    129  CB        77.5640   68.2870   10.5080 C.3   202  GLU202      0.0388
    130  CG        78.7940   68.9150   11.1780 C.3   202  GLU202      0.1160
    131  CD        79.9600   67.9570   11.3420 C.2   202  GLU202      0.3649
    132  OE1       79.7620   66.7840   11.7330 O.co2 202  GLU202     -0.2457
    133  OE2       81.0960   68.3860   11.0510 O.co2 202  GLU202     -0.2457
    134  N         78.7460   71.8300   14.7030 N.3   208  SER208     -0.1217
    135  CA        79.4290   70.9230   15.6120 C.3   208  SER208      0.1889
    136  C         80.3060   71.7410   16.5450 C.2   208  SER208      0.2288
    137  O         80.6160   72.8870   16.2660 O.2   208  SER208     -0.2866
    138  CB        80.2400   69.8590   14.8590 C.3   208  SER208      0.2089
    139  OG        81.3680   70.4220   14.2200 O.3   208  SER208     -0.2183
    140  N         83.8190   71.0400   19.1420 N.3   210  ASN210     -0.1240
    141  CA        84.9320   70.0970   19.4110 C.3   210  ASN210      0.1653
    142  C         85.8050   70.6430   20.5350 C.2   210  ASN210      0.2266
    143  O         86.2120   71.8210   20.5170 O.2   210  ASN210     -0.2867
    144  CB        85.7860   69.8610   18.1370 C.3   210  ASN210      0.1155
    145  CG        86.9630   68.8430   18.3440 C.2   210  ASN210      0.2627
    146  OD1       87.9330   69.1130   19.0710 O.2   210  ASN210     -0.2716
    147  ND2       86.8890   67.6930   17.6430 N.am  210  ASN210     -0.0877
    148  N         95.6840   70.3820   17.3560 N.3   218  LYS218     -0.1245
    149  CA        94.9590   69.8690   16.2100 C.3   218  LYS218      0.1561
    150  C         94.8570   71.0150   15.2300 C.2   218  LYS218      0.2260
    151  O         94.4540   72.1160   15.6030 O.2   218  LYS218     -0.2867
    152  CB        93.5640   69.3440   16.6140 C.3   218  LYS218      0.0271
    153  CG        92.7600   68.7140   15.4620 C.3   218  LYS218      0.0035
    154  CD        91.2950   68.3970   15.8240 C.3   218  LYS218      0.0206
    155  CE        91.1880   67.4000   16.9650 C.3   218  LYS218      0.1093
    156  NZ        91.4250   65.9900   16.5800 N.3   218  LYS218     -0.1314
    157  N         93.2940   72.9030   11.8900 N.3   220  TRP220     -0.1241
    158  CA        91.9740   72.9460   11.2280 C.3   220  TRP220      0.1605
    159  C         92.0050   73.8010    9.9780 C.2   220  TRP220      0.2264
    160  O         92.6760   74.8370    9.9660 O.2   220  TRP220     -0.2867
    161  CB        90.8830   73.5350   12.1530 C.3   220  TRP220      0.0550
    162  CG        90.4430   72.6580   13.3260 C.ar  220  TRP220      0.0003
    163  CD1       91.1420   72.4050   14.4630 C.ar  220  TRP220      0.0946
    164  CD2       89.1970   71.9590   13.4590 C.ar  220  TRP220      0.0152
    165  NE1       90.4200   71.5850   15.2970 N.ar  220  TRP220     -0.2442
    166  CE2       89.2240   71.2900   14.7040 C.ar  220  TRP220      0.0810
    167  CE3       88.0580   71.8360   12.6460 C.ar  220  TRP220      0.0012
    168  CZ2       88.1500   70.5030   15.1670 C.ar  220  TRP220      0.0191
    169  CZ3       86.9830   71.0540   13.1040 C.ar  220  TRP220      0.0001
    170  CH2       87.0430   70.3990   14.3540 C.ar  220  TRP220      0.0015
    171  N         85.0870   71.5190    6.5120 N.3   288  HIS288     -0.1241
    172  CA        86.3080   71.5360    7.3130 C.3   288  HIS288      0.1621
    173  C         87.1030   70.2480    7.1480 C.2   288  HIS288      0.2264
    174  O         86.5440   69.2250    6.7710 O.2   288  HIS288     -0.2867
    175  CB        86.0240   71.7690    8.8120 C.3   288  HIS288      0.0745
    176  CG        84.9540   70.8870    9.3840 C.ar  288  HIS288      0.0817
    177  ND1       83.6070   71.1330    9.1910 N.ar  288  HIS288     -0.2268
    178  CD2       85.0260   69.7700   10.1480 C.ar  288  HIS288      0.1154
    179  CE1       82.9020   70.2010    9.8070 C.ar  288  HIS288      0.1986
    180  NE2       83.7350   69.3630   10.3960 N.ar  288  HIS288     -0.2212
@<TRIPOS>BOND
     1    27    25    1
     2    21    22    1
     3    22    25    1
     4    22    23    1
     5    25    26    1
     6   115   116    1
     7   116   117    1
     8   116   119    1
     9    23    28   am
    10    23    24    2
    11    28    29    1
    12   117   118    2
    13   119   120    1
    14    34    33    1
    15    34    35    1
    16    32    29    1
    17    32    33    1
    18    29    30    1
    19   171   172    1
    20    14    15    2
    21    14    13    1
    22   174   173    2
    23    35    36    2
    24   173   172    1
    25   120   121   ar
    26   120   122   ar
    27   172   175    1
    28    17    16    1
    29    17    18    1
    30    13    16    1
    31    13    12    1
    32   103   102    1
    33   107   106    2
    34    37    36    1
    35    36    38    1
    36    42    41    2
    37   106   105    1
    38   128   127    2
    39    30    39   am
    40    30    31    2
    41   121   123   ar
    42    39    40    1
    43    20    18   am
    44    52    51    1
    45    52    53    1
    46    18    19    2
    47   122   124   ar
    48   125   126    1
    49   102    99    1
    50   127   126    1
    51    41    40    1
    52    41    46   am
    53    51    50    1
    54   175   176    1
    55    53    54    1
    56   105   104    1
    57   105   108    1
    58    50    47    1
    59   123   124   ar
    60    40    43    1
    61   126   129    1
    62   177   176   ar
    63   177   179   ar
    64   101   100    2
    65   104   100   am
    66   176   178   ar
    67   100    99    1
    68    47    46    1
    69    47    48    1
    70    99    98    1
    71   179   180   ar
    72   160   159    2
    73   159   158    1
    74    43    45    1
    75    43    44    1
    76   108   109    1
    77   178   180   ar
    78    66    65    1
    79   111   109   ar
    80   111   113   ar
    81   129   130    1
    82   109   110   ar
    83    48    49    2
    84   113   114   ar
    85   133   131   ar
    86    63    65   ar
    87    63    61   ar
    88   130   131    1
    89   158   157    1
    90   158   161    1
    91   131   132   ar
    92    65    64   ar
    93   110   112   ar
    94   114   112   ar
    95     3     4    2
    96     3     2    1
    97     5     2    1
    98     5     6    1
    99    10     9    1
   100   161   162    1
   101    61    60   ar
   102     2     1    1
   103    64    62   ar
   104   167   169   ar
   105   167   164   ar
   106     6     7    1
   107     7     8    1
   108   169   170   ar
   109   162   164   ar
   110   162   163   ar
   111    60    62   ar
   112    60    59    1
   113     9     8    2
   114     9    11    1
   115   164   166   ar
   116   139   138    1
   117   170   168   ar
   118    55    56    1
   119   163   165   ar
   120    59    56    1
   121    85    83   ar
   122    85    84   ar
   123   134   135    1
   124   166   168   ar
   125   166   165   ar
   126   138   135    1
   127    83    81   ar
   128    97    96    1
   129    84    82   ar
   130   150   151    2
   131   150   149    1
   132    71    68    1
   133    56    57    1
   134    58    57    2
   135   153   154    1
   136   153   152    1
   137    94    96   ar
   138    94    92   ar
   139   135   136    1
   140    96    95   ar
   141   154   155    1
   142    81    80   ar
   143    81    79   ar
   144    82    79   ar
   145    92    91   ar
   146   149   152    1
   147   149   148    1
   148   137   136    2
   149    70    69    2
   150    80    78   ar
   151    79    77   ar
   152   156   155    1
   153    68    67    1
   154    68    69    1
   155    95    93   ar
   156    91    93   ar
   157    91    90    1
   158    78    77   ar
   159    77    76    1
   160   147   145   am
   161    90    87    1
   162   144   145    1
   163   144   141    1
   164    76    73    1
   165   145   146    2
   166    87    88    1
   167    87    86    1
   168   140   141    1
   169   141   142    1
   170    88    89    2
   171    73    72    1
   172    73    74    1
   173    74    75    2
   174   143   142    2
