@<TRIPOS>MOLECULE
tmp/5fz4A00.pdb
 108 101 0 0 0
SMALL
GASTEIGER

@<TRIPOS>ATOM
      1  N         52.6850   72.1640    5.8940 N.3   358  ILE358     -0.1245
      2  CA        51.2770   71.9580    5.6110 C.3   358  ILE358      0.1561
      3  C         50.9370   72.4890    4.2210 C.2   358  ILE358      0.2260
      4  O         50.2810   71.8090    3.4450 O.2   358  ILE358     -0.2867
      5  CB        50.4030   72.6100    6.6980 C.3   358  ILE358      0.0252
      6  CG1       50.5400   71.8160    8.0040 C.3   358  ILE358      0.0019
      7  CG2       48.9460   72.6950    6.2480 C.3   358  ILE358      0.0019
      8  CD1       49.8760   72.4850    9.2210 C.3   358  ILE358      0.0001
      9  N         52.2920   70.0970    1.6670 N.3   361  GLU361     -0.1231
     10  CA        51.5560   68.8400    1.6710 C.3   361  GLU361      0.1699
     11  C         50.2040   69.0220    0.9720 C.2   361  GLU361      0.2592
     12  O         49.7740   68.1320    0.2370 O.2   361  GLU361     -0.2718
     13  CB        51.3610   68.3120    3.1050 C.3   361  GLU361      0.0402
     14  CG        50.6560   66.9270    3.2220 C.3   361  GLU361      0.1161
     15  CD        51.4780   65.7410    2.7210 C.2   361  GLU361      0.3649
     16  OE1       52.6700   65.9120    2.4000 O.co2 361  GLU361     -0.2457
     17  OE2       50.9290   64.6140    2.6540 O.co2 361  GLU361     -0.2457
     18  N         49.5520   70.1630    1.1990 N.am  362  LYS362     -0.1980
     19  CA        48.3290   70.5200    0.4750 C.3   362  LYS362      0.1596
     20  C         48.5470   70.3490   -1.0130 C.2   362  LYS362      0.2287
     21  O         47.7910   69.6490   -1.6920 O.2   362  LYS362     -0.2864
     22  CB        47.9100   71.9660    0.7440 C.3   362  LYS362      0.0298
     23  CG        46.9220   72.1890    1.8760 C.3   362  LYS362      0.0038
     24  CD        46.2090   73.5420    1.7000 C.3   362  LYS362      0.0206
     25  CE        45.3500   73.9290    2.9140 C.3   362  LYS362      0.1093
     26  NZ        46.0910   74.5640    4.0530 N.3   362  LYS362     -0.1314
     27  N         49.1380   66.7200   -2.1730 N.3   365  ARG365     -0.1231
     28  CA        47.9430   65.8740   -2.1260 C.3   365  ARG365      0.1694
     29  C         46.9850   66.2330   -3.2500 C.2   365  ARG365      0.2591
     30  O         46.3890   65.3510   -3.8630 O.2   365  ARG365     -0.2718
     31  CB        47.2550   65.9710   -0.7710 C.3   365  ARG365      0.0321
     32  CG        48.0090   65.1230    0.2610 C.3   365  ARG365      0.0489
     33  CD        47.2050   64.8300    1.4870 C.3   365  ARG365      0.2205
     34  NE        48.0910   64.6330    2.6250 N.pl3 365  ARG365     -0.0865
     35  CZ        47.6830   64.2650    3.8250 C.cat 365  ARG365      0.5346
     36  NH1       46.3860   64.0410    4.0310 N.pl3 365  ARG365      0.1354
     37  NH2       48.5690   64.1250    4.8170 N.pl3 365  ARG365      0.1354
     38  N         46.8680   67.5200   -3.5500 N.am  366  GLU366     -0.1979
     39  CA        46.0480   67.9250   -4.6880 C.3   366  GLU366      0.1602
     40  C         46.5820   67.3170   -5.9760 C.2   366  GLU366      0.2287
     41  O         45.8180   66.7650   -6.7750 O.2   366  GLU366     -0.2864
     42  CB        45.9690   69.4470   -4.7780 C.3   366  GLU366      0.0415
     43  CG        45.1350   70.0210   -3.6200 C.3   366  GLU366      0.1163
     44  CD        45.1570   71.5370   -3.5560 C.2   366  GLU366      0.3649
     45  OE1       45.5490   72.1730   -4.5650 O.co2 366  GLU366     -0.2457
     46  OE2       44.7770   72.0870   -2.4930 O.co2 366  GLU366     -0.2457
     47  N         45.8280   63.5260   -6.1480 N.3   369  ARG369     -0.1245
     48  CA        44.3970   63.3760   -6.4630 C.3   369  ARG369      0.1563
     49  C         44.1370   63.5890   -7.9660 C.2   369  ARG369      0.2260
     50  O         43.4060   62.8250   -8.5960 O.2   369  ARG369     -0.2867
     51  CB        43.5490   64.3540   -5.6530 C.3   369  ARG369      0.0307
     52  CG        42.0380   64.2540   -5.9430 C.3   369  ARG369      0.0489
     53  CD        41.5150   62.8300   -5.7080 C.3   369  ARG369      0.2205
     54  NE        40.1070   62.7080   -6.0840 N.pl3 369  ARG369     -0.0865
     55  CZ        39.6880   62.3820   -7.3070 C.cat 369  ARG369      0.5346
     56  NH1       40.5690   62.1210   -8.2770 N.pl3 369  ARG369      0.1354
     57  NH2       38.3850   62.3060   -7.5620 N.pl3 369  ARG369      0.1354
     58  N         54.3970   62.0770    6.4130 N.3   400  MET400     -0.1245
     59  CA        53.1190   62.7680    6.1820 C.3   400  MET400      0.1570
     60  C         52.2270   61.9210    5.2800 C.2   400  MET400      0.2261
     61  O         51.0400   61.7510    5.5630 O.2   400  MET400     -0.2867
     62  CB        53.3420   64.1710    5.5870 C.3   400  MET400      0.0387
     63  CG        53.8830   65.1430    6.6300 C.3   400  MET400      0.0595
     64  SD        52.6530   65.5860    7.9130 S.3   400  MET400     -0.1393
     65  CE        51.5610   66.4880    6.8500 C.3   400  MET400      0.0692
     66  N         46.3740   56.3970   -1.2520 N.3   431  LEU431     -0.1245
     67  CA        47.0920   57.3770   -0.4690 C.3   431  LEU431      0.1561
     68  C         47.0900   56.9840    1.0130 C.2   431  LEU431      0.2260
     69  O         46.0330   56.8760    1.6420 O.2   431  LEU431     -0.2867
     70  CB        46.4790   58.7660   -0.6460 C.3   431  LEU431      0.0270
     71  CG        47.0380   59.8090    0.3270 C.3   431  LEU431      0.0019
     72  CD1       48.4580   60.2040   -0.0810 C.3   431  LEU431      0.0001
     73  CD2       46.1250   61.0370    0.4450 C.3   431  LEU431      0.0001
     74  N         47.9050   62.3170    8.8170 N.3   435  TYR435     -0.1227
     75  CA        46.9820   63.3160    9.3660 C.3   435  TYR435      0.1736
     76  C         46.0770   63.8640    8.2930 C.2   435  TYR435      0.2596
     77  O         46.4950   63.9800    7.1400 O.2   435  TYR435     -0.2718
     78  CB        47.7220   64.5110    9.9630 C.3   435  TYR435      0.0548
     79  CG        48.6210   64.2110   11.1180 C.ar  435  TYR435     -0.0200
     80  CD1       48.0950   63.7730   12.3390 C.ar  435  TYR435     -0.0009
     81  CD2       49.9970   64.3960   11.0110 C.ar  435  TYR435     -0.0009
     82  CE1       48.9040   63.4990   13.3940 C.ar  435  TYR435      0.0417
     83  CE2       50.8250   64.1370   12.0820 C.ar  435  TYR435      0.0417
     84  CZ        50.2760   63.6870   13.2720 C.ar  435  TYR435      0.1957
     85  OH        51.0860   63.4130   14.3560 O.3   435  TYR435     -0.2866
     86  N         44.8500   64.2210    8.6730 N.am  436  THR436     -0.1939
     87  CA        44.0220   65.1060    7.8550 C.3   436  THR436      0.2028
     88  C         44.3640   66.5490    8.2190 C.2   436  THR436      0.2642
     89  O         44.9620   66.7920    9.2660 O.2   436  THR436     -0.2714
     90  CB        42.5100   64.9040    8.1050 C.3   436  THR436      0.1808
     91  OG1       42.2240   65.3170    9.4390 O.3   436  THR436     -0.2208
     92  CG2       42.1060   63.4260    7.9430 C.3   436  THR436      0.0379
     93  N         43.9360   67.5130    7.4030 N.am  437  LEU437     -0.1977
     94  CA        44.1030   68.9290    7.7600 C.3   437  LEU437      0.1596
     95  C         43.4820   69.2500    9.1120 C.2   437  LEU437      0.2287
     96  O         44.0820   69.9570    9.9220 O.2   437  LEU437     -0.2864
     97  CB        43.4970   69.8330    6.6970 C.3   437  LEU437      0.0297
     98  CG        44.4210   70.1450    5.5270 C.3   437  LEU437      0.0022
     99  CD1       43.6510   70.8780    4.4410 C.3   437  LEU437      0.0001
    100  CD2       45.6210   70.9670    6.0040 C.3   437  LEU437      0.0001
    101  N         45.6260   68.5210   11.9980 N.3   440  LEU440     -0.1245
    102  CA        46.8040   69.3640   12.1240 C.3   440  LEU440      0.1561
    103  C         46.5380   70.7120   12.7980 C.2   440  LEU440      0.2260
    104  O         47.4280   71.2880   13.4270 O.2   440  LEU440     -0.2867
    105  CB        47.4250   69.5700   10.7390 C.3   440  LEU440      0.0270
    106  CG        48.1210   68.3140   10.1850 C.3   440  LEU440      0.0019
    107  CD1       48.6140   68.5560    8.8110 C.3   440  LEU440      0.0001
    108  CD2       49.2730   67.8570   11.0880 C.3   440  LEU440      0.0001
@<TRIPOS>BOND
     1    50    49    2
     2    56    55    1
     3    49    48    1
     4    57    55    1
     5    55    54    2
     6    41    40    2
     7    48    47    1
     8    48    51    1
     9    54    53    1
    10    40    39    1
    11    52    53    1
    12    52    51    1
    13    42    39    1
    14    42    43    1
    15    39    38    1
    16    45    44   ar
    17    30    29    2
    18    43    44    1
    19    44    46   ar
    20    38    29   am
    21    29    28    1
    22    27    28    1
    23    28    31    1
    24    21    20    2
    25    66    67    1
    26    20    19    1
    27    31    32    1
    28    70    67    1
    29    70    71    1
    30    67    68    1
    31    72    71    1
    32    12    11    2
    33    32    33    1
    34    71    73    1
    35    19    22    1
    36    19    18    1
    37    22    23    1
    38    11    18   am
    39    11    10    1
    40    68    69    2
    41    33    34    1
    42     9    10    1
    43    10    13    1
    44    24    23    1
    45    24    25    1
    46    16    15   ar
    47    34    35    2
    48    17    15   ar
    49    15    14    1
    50    25    26    1
    51    13    14    1
    52     4     3    2
    53    35    36    1
    54    35    37    1
    55     3     2    1
    56    99    98    1
    57    60    61    2
    58    60    59    1
    59    98   100    1
    60    98    97    1
    61    62    59    1
    62    62    63    1
    63     2     1    1
    64     2     5    1
    65    59    58    1
    66     7     5    1
    67    63    64    1
    68    97    94    1
    69     5     6    1
    70    65    64    1
    71    77    76    2
    72    93    94    1
    73    93    88   am
    74    94    95    1
    75    87    90    1
    76    87    88    1
    77    87    86    1
    78    92    90    1
    79     6     8    1
    80    90    91    1
    81    88    89    2
    82    76    86   am
    83    76    75    1
    84   107   106    1
    85    74    75    1
    86    95    96    2
    87    75    78    1
    88    78    79    1
    89   106   105    1
    90   106   108    1
    91   105   102    1
    92    81    79   ar
    93    81    83   ar
    94    79    80   ar
    95   101   102    1
    96    83    84   ar
    97   102   103    1
    98    80    82   ar
    99   103   104    2
   100    84    82   ar
   101    84    85    1
