@<TRIPOS>MOLECULE
tmp/5fz6A01.pdb
 108 103 0 0 0
SMALL
GASTEIGER

@<TRIPOS>ATOM
      1  N         88.0710   61.3530   19.9150 N.3   189  TYR189     -0.1241
      2  CA        89.1670   61.2060   18.9370 C.3   189  TYR189      0.1605
      3  C         90.5550   61.1670   19.5780 C.2   189  TYR189      0.2264
      4  O         91.0040   62.1720   20.1430 O.2   189  TYR189     -0.2867
      5  CB        89.1230   62.3500   17.9150 C.3   189  TYR189      0.0534
      6  CG        87.8280   62.4340   17.1290 C.ar  189  TYR189     -0.0201
      7  CD1       87.5520   61.5360   16.0950 C.ar  189  TYR189     -0.0009
      8  CD2       86.8860   63.4140   17.4140 C.ar  189  TYR189     -0.0009
      9  CE1       86.3690   61.6150   15.3700 C.ar  189  TYR189      0.0417
     10  CE2       85.7060   63.5040   16.6890 C.ar  189  TYR189      0.0417
     11  CZ        85.4510   62.5990   15.6770 C.ar  189  TYR189      0.1957
     12  OH        84.2730   62.6910   14.9820 O.3   189  TYR189     -0.2866
     13  N         94.5750   62.4250   10.3790 N.3   196  SER196     -0.1202
     14  CA        93.8470   63.5560    9.8130 C.3   196  SER196      0.2020
     15  C         92.3590   63.2970    9.5960 C.2   196  SER196      0.2618
     16  O         91.9220   62.1540    9.4750 O.2   196  SER196     -0.2717
     17  CB        94.4860   63.9750    8.4790 C.3   196  SER196      0.2103
     18  OG        94.3920   62.9260    7.5450 O.3   196  SER196     -0.2182
     19  N         91.5760   64.3710    9.5450 N.am  197  PHE197     -0.1975
     20  CA        90.1700   64.2260    9.1890 C.3   197  PHE197      0.1639
     21  C         89.9440   64.8800    7.8210 C.2   197  PHE197      0.2290
     22  O         90.3230   66.0300    7.6170 O.2   197  PHE197     -0.2864
     23  CB        89.2350   64.7900   10.2960 C.3   197  PHE197      0.0560
     24  CG        89.6040   66.1830   10.8310 C.ar  197  PHE197     -0.0200
     25  CD1       90.6760   66.3570   11.7140 C.ar  197  PHE197     -0.0042
     26  CD2       88.8160   67.2880   10.5270 C.ar  197  PHE197     -0.0042
     27  CE1       90.9920   67.6180   12.2360 C.ar  197  PHE197     -0.0003
     28  CE2       89.1190   68.5500   11.0440 C.ar  197  PHE197     -0.0003
     29  CZ        90.2230   68.7120   11.9060 C.ar  197  PHE197     -0.0000
     30  N         84.7780   67.5910    4.9950 N.3   200  HIS200     -0.1241
     31  CA        83.3830   67.1660    5.1610 C.3   200  HIS200      0.1621
     32  C         82.5510   68.2790    5.7820 C.2   200  HIS200      0.2264
     33  O         83.0920   69.2760    6.2750 O.2   200  HIS200     -0.2867
     34  CB        83.3040   65.9030    6.0330 C.3   200  HIS200      0.0745
     35  CG        83.6000   66.1670    7.4750 C.ar  200  HIS200      0.0817
     36  ND1       84.8870   66.2910    7.9570 N.ar  200  HIS200     -0.2268
     37  CD2       82.7800   66.3490    8.5370 C.ar  200  HIS200      0.1154
     38  CE1       84.8460   66.5350    9.2560 C.ar  200  HIS200      0.1986
     39  NE2       83.5800   66.5720    9.6340 N.ar  200  HIS200     -0.2212
     40  N         78.8030   68.4870    8.3990 N.3   202  GLU202     -0.1245
     41  CA        78.0880   67.5930    9.3240 C.3   202  GLU202      0.1567
     42  C         76.7410   67.1220    8.7460 C.2   202  GLU202      0.2260
     43  O         76.1700   67.7610    7.8600 O.2   202  GLU202     -0.2867
     44  CB        77.8560   68.2840   10.6670 C.3   202  GLU202      0.0388
     45  CG        79.1170   68.8990   11.2930 C.3   202  GLU202      0.1160
     46  CD        80.2380   67.9030   11.5050 C.2   202  GLU202      0.3649
     47  OE1       79.9680   66.7520   11.8950 O.co2 202  GLU202     -0.2457
     48  OE2       81.4050   68.2770   11.2660 O.co2 202  GLU202     -0.2457
     49  N         78.8600   71.9310   14.8250 N.3   208  SER208     -0.1217
     50  CA        79.5510   71.0630   15.7720 C.3   208  SER208      0.1889
     51  C         80.4050   71.9140   16.7050 C.2   208  SER208      0.2288
     52  O         80.7770   73.0310   16.3730 O.2   208  SER208     -0.2866
     53  CB        80.4000   69.9930   15.0580 C.3   208  SER208      0.2089
     54  OG        81.5420   70.5480   14.4250 O.3   208  SER208     -0.2183
     55  N         83.8900   71.3260   19.3200 N.3   210  ASN210     -0.1240
     56  CA        84.9950   70.4000   19.4630 C.3   210  ASN210      0.1653
     57  C         85.9100   70.8650   20.5830 C.2   210  ASN210      0.2266
     58  O         86.3630   72.0240   20.5980 O.2   210  ASN210     -0.2867
     59  CB        85.7830   70.3050   18.1390 C.3   210  ASN210      0.1155
     60  CG        84.9140   69.9120   16.9430 C.2   210  ASN210      0.2627
     61  OD1       84.9690   68.7660   16.4560 O.2   210  ASN210     -0.2716
     62  ND2       84.1390   70.8640   16.4410 N.am  210  ASN210     -0.0877
     63  N         95.8140   70.5270   17.4890 N.3   218  LYS218     -0.1245
     64  CA        95.0440   70.0270   16.3480 C.3   218  LYS218      0.1561
     65  C         94.9450   71.1720   15.3450 C.2   218  LYS218      0.2260
     66  O         94.5140   72.2720   15.6950 O.2   218  LYS218     -0.2867
     67  CB        93.6430   69.5470   16.7870 C.3   218  LYS218      0.0271
     68  CG        92.8310   68.7950   15.7150 C.3   218  LYS218      0.0035
     69  CD        91.3850   68.5040   16.1470 C.3   218  LYS218      0.0206
     70  CE        91.3110   67.4450   17.2420 C.3   218  LYS218      0.1093
     71  NZ        91.6020   66.0550   16.7710 N.3   218  LYS218     -0.1314
     72  N         93.4760   73.0550   11.9740 N.3   220  TRP220     -0.1241
     73  CA        92.1690   73.1020   11.2940 C.3   220  TRP220      0.1605
     74  C         92.1960   73.9310   10.0250 C.2   220  TRP220      0.2264
     75  O         92.8610   74.9730    9.9820 O.2   220  TRP220     -0.2867
     76  CB        91.0830   73.7130   12.2050 C.3   220  TRP220      0.0550
     77  CG        90.6380   72.8660   13.3800 C.ar  220  TRP220      0.0003
     78  CD1       91.3290   72.6340   14.5370 C.ar  220  TRP220      0.0946
     79  CD2       89.3850   72.1750   13.5140 C.ar  220  TRP220      0.0152
     80  NE1       90.5900   71.8320   15.3820 N.ar  220  TRP220     -0.2442
     81  CE2       89.3920   71.5360   14.7780 C.ar  220  TRP220      0.0810
     82  CE3       88.2570   72.0350   12.6850 C.ar  220  TRP220      0.0012
     83  CZ2       88.3120   70.7620   15.2380 C.ar  220  TRP220      0.0191
     84  CZ3       87.1830   71.2840   13.1360 C.ar  220  TRP220      0.0001
     85  CH2       87.2160   70.6520   14.4090 C.ar  220  TRP220      0.0015
     86  N         85.2550   71.5560    6.5950 N.3   288  HIS288     -0.1241
     87  CA        86.4670   71.5940    7.4040 C.3   288  HIS288      0.1621
     88  C         87.2500   70.2960    7.2640 C.2   288  HIS288      0.2264
     89  O         86.6840   69.2720    6.8900 O.2   288  HIS288     -0.2867
     90  CB        86.1620   71.8650    8.8960 C.3   288  HIS288      0.0745
     91  CG        85.1420   70.9410    9.5000 C.ar  288  HIS288      0.0817
     92  ND1       83.7820   71.1370    9.3540 N.ar  288  HIS288     -0.2268
     93  CD2       85.2810   69.8330   10.2700 C.ar  288  HIS288      0.1154
     94  CE1       83.1310   70.1850    9.9980 C.ar  288  HIS288      0.1986
     95  NE2       84.0130   69.3800   10.5640 N.ar  288  HIS288     -0.2212
     96  N         96.4010   66.1390   13.2660 N.3   292  ASN292     -0.1240
     97  CA        96.9610   66.3030   14.5950 C.3   292  ASN292      0.1653
     98  C         98.4900   66.4640   14.5670 C.2   292  ASN292      0.2266
     99  O         99.1930   65.8500   13.7400 O.2   292  ASN292     -0.2867
    100  CB        96.5530   65.1110   15.4580 C.3   292  ASN292      0.1155
    101  CG        95.0310   64.9900   15.5900 C.2   292  ASN292      0.2627
    102  OD1       94.3740   65.8880   16.1140 O.2   292  ASN292     -0.2716
    103  ND2       94.4710   63.8880   15.0910 N.am  292  ASN292     -0.0877
    104  N         90.5840   64.4060   21.9570 N.3   298  ALA298     -0.1245
    105  CA        89.5430   65.3840   21.6800 C.3   298  ALA298      0.1562
    106  C         88.1600   64.7330   21.7810 C.2   298  ALA298      0.2260
    107  O         88.0310   63.5070   21.7140 O.2   298  ALA298     -0.2867
    108  CB        89.7400   65.9980   20.2800 C.3   298  ALA298      0.0290
@<TRIPOS>BOND
     1    30    31    1
     2    31    32    1
     3    31    34    1
     4    32    33    2
     5    34    35    1
     6    86    87    1
     7    89    88    2
     8    88    87    1
     9    87    90    1
    10    35    36   ar
    11    35    37   ar
    12    18    17    1
    13    22    21    2
    14    21    20    1
    15    43    42    2
    16    36    38   ar
    17    40    41    1
    18    17    14    1
    19    37    39   ar
    20    42    41    1
    21    90    91    1
    22    20    19    1
    23    20    23    1
    24    38    39   ar
    25    41    44    1
    26    92    91   ar
    27    92    94   ar
    28    16    15    2
    29    91    93   ar
    30    19    15   am
    31    15    14    1
    32    14    13    1
    33    75    74    2
    34    94    95   ar
    35    74    73    1
    36    93    95   ar
    37    23    24    1
    38    26    24   ar
    39    26    28   ar
    40    44    45    1
    41    24    25   ar
    42    28    29   ar
    43    48    46   ar
    44    45    46    1
    45    73    72    1
    46    73    76    1
    47    46    47   ar
    48    25    27   ar
    49    29    27   ar
    50    76    77    1
    51    82    84   ar
    52    82    79   ar
    53    84    85   ar
    54    96    97    1
    55    77    79   ar
    56    77    78   ar
    57    79    81   ar
    58    99    98    2
    59    85    83   ar
    60    54    53    1
    61    78    80   ar
    62    98    97    1
    63    97   100    1
    64    81    83   ar
    65    81    80   ar
    66    49    50    1
    67    12    11    1
    68    53    50    1
    69   103   101   am
    70    65    66    2
    71    65    64    1
    72     9    11   ar
    73     9     7   ar
    74   100   101    1
    75   101   102    2
    76    11    10   ar
    77    68    69    1
    78    68    67    1
    79    50    51    1
    80     7     6   ar
    81    69    70    1
    82    64    67    1
    83    64    63    1
    84    52    51    2
    85    62    60   am
    86    61    60    2
    87    10     8   ar
    88    71    70    1
    89    60    59    1
    90     6     8   ar
    91     6     5    1
    92     5     2    1
    93    59    56    1
    94     2     3    1
    95     2     1    1
    96    55    56    1
    97    56    57    1
    98     3     4    2
    99   108   105    1
   100    57    58    2
   101   105   106    1
   102   105   104    1
   103   107   106    2
