@<TRIPOS>MOLECULE
tmp/5fz6A00.pdb
 184 180 0 0 0
SMALL
GASTEIGER

@<TRIPOS>ATOM
      1  N         88.0600   66.4180    4.3170 N.3   199  TRP199     -0.1241
      2  CA        87.0550   67.4720    4.1130 C.3   199  TRP199      0.1605
      3  C         85.6220   66.9190    4.2150 C.2   199  TRP199      0.2264
      4  O         85.2890   65.9010    3.5940 O.2   199  TRP199     -0.2867
      5  CB        87.2350   68.1530    2.7460 C.3   199  TRP199      0.0550
      6  CG        88.4240   69.0580    2.6190 C.ar  199  TRP199      0.0003
      7  CD1       89.6230   68.7630    2.0130 C.ar  199  TRP199      0.0946
      8  CD2       88.5430   70.4070    3.1030 C.ar  199  TRP199      0.0152
      9  NE1       90.4650   69.8470    2.0870 N.ar  199  TRP199     -0.2442
     10  CE2       89.8300   70.8640    2.7510 C.ar  199  TRP199      0.0810
     11  CE3       87.6850   71.2720    3.7990 C.ar  199  TRP199      0.0012
     12  CZ2       90.2770   72.1400    3.0690 C.ar  199  TRP199      0.0191
     13  CZ3       88.1240   72.5310    4.1080 C.ar  199  TRP199      0.0001
     14  CH2       89.4200   72.9620    3.7400 C.ar  199  TRP199      0.0015
     15  N         81.2330   68.1140    5.7330 N.3   201  ILE201     -0.1231
     16  CA        80.2940   68.9420    6.4950 C.3   201  ILE201      0.1692
     17  C         79.4900   67.9830    7.3760 C.2   201  ILE201      0.2591
     18  O         79.5130   66.7850    7.1340 O.2   201  ILE201     -0.2718
     19  CB        79.3580   69.7500    5.5960 C.3   201  ILE201      0.0266
     20  CG1       78.7680   68.8440    4.4930 C.3   201  ILE201      0.0019
     21  CG2       80.0870   70.9570    4.9870 C.3   201  ILE201      0.0020
     22  CD1       77.8590   69.5910    3.5320 C.3   201  ILE201      0.0001
     23  N         78.8030   68.4870    8.3990 N.am  202  GLU202     -0.1979
     24  CA        78.0880   67.5930    9.3240 C.3   202  GLU202      0.1602
     25  C         76.7410   67.1220    8.7460 C.2   202  GLU202      0.2287
     26  O         76.1700   67.7610    7.8600 O.2   202  GLU202     -0.2864
     27  CB        77.8560   68.2840   10.6670 C.3   202  GLU202      0.0415
     28  CG        79.1170   68.8990   11.2930 C.3   202  GLU202      0.1163
     29  CD        80.2380   67.9030   11.5050 C.2   202  GLU202      0.3649
     30  OE1       79.9680   66.7520   11.8950 O.co2 202  GLU202     -0.2457
     31  OE2       81.4050   68.2770   11.2660 O.co2 202  GLU202     -0.2457
     32  N         73.6100   69.4090    7.9370 N.3   205  TRP205     -0.1241
     33  CA        74.2220   70.7450    7.9970 C.3   205  TRP205      0.1605
     34  C         74.1710   71.3120    9.4070 C.2   205  TRP205      0.2264
     35  O         73.9770   72.5140    9.5930 O.2   205  TRP205     -0.2867
     36  CB        73.5330   71.7270    7.0300 C.3   205  TRP205      0.0550
     37  CG        73.6440   71.3480    5.5660 C.ar  205  TRP205      0.0003
     38  CD1       74.3490   70.2970    5.0380 C.ar  205  TRP205      0.0946
     39  CD2       73.0050   71.9980    4.4580 C.ar  205  TRP205      0.0152
     40  NE1       74.2000   70.2660    3.6740 N.ar  205  TRP205     -0.2442
     41  CE2       73.3820   71.3010    3.2900 C.ar  205  TRP205      0.0810
     42  CE3       72.1530   73.1070    4.3400 C.ar  205  TRP205      0.0012
     43  CZ2       72.9370   71.6740    2.0130 C.ar  205  TRP205      0.0191
     44  CZ3       71.7180   73.4890    3.0680 C.ar  205  TRP205      0.0001
     45  CH2       72.1080   72.7680    1.9230 C.ar  205  TRP205      0.0015
     46  N         83.3300   74.9130   -3.3560 N.3   231  LEU231     -0.1231
     47  CA        84.3030   73.8880   -2.9750 C.3   231  LEU231      0.1693
     48  C         83.9770   72.5470   -3.6170 C.2   231  LEU231      0.2591
     49  O         84.8750   71.8290   -4.0500 O.2   231  LEU231     -0.2718
     50  CB        84.3720   73.7400   -1.4470 C.3   231  LEU231      0.0284
     51  CG        85.2730   72.6280   -0.8920 C.3   231  LEU231      0.0019
     52  CD1       85.8240   73.0280    0.4770 C.3   231  LEU231      0.0001
     53  CD2       84.5260   71.2970   -0.7700 C.3   231  LEU231      0.0001
     54  N         82.6960   72.2000   -3.6610 N.am  232  GLU232     -0.1979
     55  CA        82.2910   70.9200   -4.2350 C.3   232  GLU232      0.1602
     56  C         82.5790   70.8580   -5.7450 C.2   232  GLU232      0.2287
     57  O         82.9710   69.8140   -6.2680 O.2   232  GLU232     -0.2864
     58  CB        80.8070   70.6690   -3.9440 C.3   232  GLU232      0.0415
     59  CG        80.5590   70.3610   -2.4660 C.3   232  GLU232      0.1163
     60  CD        79.0890   70.3680   -2.0880 C.2   232  GLU232      0.3649
     61  OE1       78.2690   70.7680   -2.9330 O.co2 232  GLU232     -0.2457
     62  OE2       78.7570   69.9920   -0.9410 O.co2 232  GLU232     -0.2457
     63  N         86.1620   70.2180   -6.1770 N.3   235  MET235     -0.1245
     64  CA        86.5110   68.8430   -5.8380 C.3   235  MET235      0.1570
     65  C         85.9720   67.8520   -6.8720 C.2   235  MET235      0.2261
     66  O         86.6140   66.8430   -7.1660 O.2   235  MET235     -0.2867
     67  CB        86.0140   68.4870   -4.4400 C.3   235  MET235      0.0387
     68  CG        86.8040   67.3320   -3.8340 C.3   235  MET235      0.0595
     69  SD        86.7710   67.2410   -2.0350 S.3   235  MET235     -0.1393
     70  CE        87.1890   68.9250   -1.6050 C.3   235  MET235      0.0692
     71  N         84.6390   60.5900   -5.9220 N.3   242  LEU242     -0.1231
     72  CA        84.0050   60.8730   -4.6330 C.3   242  LEU242      0.1693
     73  C         82.5340   61.2320   -4.7860 C.2   242  LEU242      0.2592
     74  O         81.8070   61.3710   -3.7920 O.2   242  LEU242     -0.2718
     75  CB        84.7210   62.0230   -3.9110 C.3   242  LEU242      0.0284
     76  CG        86.2350   61.9390   -3.7410 C.3   242  LEU242      0.0019
     77  CD1       86.7260   63.1430   -2.9700 C.3   242  LEU242      0.0001
     78  CD2       86.6290   60.6510   -3.0510 C.3   242  LEU242      0.0001
     79  N         82.0970   61.3940   -6.0310 N.am  243  PHE243     -0.1976
     80  CA        80.7690   61.9360   -6.2900 C.3   243  PHE243      0.1639
     81  C         79.7970   60.9370   -6.9250 C.2   243  PHE243      0.2290
     82  O         78.6270   61.2550   -7.1330 O.2   243  PHE243     -0.2864
     83  CB        80.9040   63.1900   -7.1520 C.3   243  PHE243      0.0560
     84  CG        81.5120   64.3440   -6.4120 C.ar  243  PHE243     -0.0200
     85  CD1       82.8890   64.4430   -6.2710 C.ar  243  PHE243     -0.0042
     86  CD2       80.7060   65.3050   -5.8130 C.ar  243  PHE243     -0.0042
     87  CE1       83.4500   65.4890   -5.5650 C.ar  243  PHE243     -0.0003
     88  CE2       81.2610   66.3590   -5.1080 C.ar  243  PHE243     -0.0003
     89  CZ        82.6360   66.4520   -4.9850 C.ar  243  PHE243     -0.0000
     90  N         79.8700   56.8460    2.5410 N.3   252  GLN252     -0.1231
     91  CA        80.2300   58.1920    2.1040 C.3   252  GLN252      0.1698
     92  C         81.7450   58.3170    1.8760 C.2   252  GLN252      0.2592
     93  O         82.5440   57.9100    2.7200 O.2   252  GLN252     -0.2718
     94  CB        79.7580   59.2160    3.1300 C.3   252  GLN252      0.0381
     95  CG        78.3520   58.9590    3.6410 C.3   252  GLN252      0.0905
     96  CD        78.0330   59.7710    4.8820 C.2   252  GLN252      0.2608
     97  OE1       77.7110   60.9550    4.7960 O.2   252  GLN252     -0.2717
     98  NE2       78.1290   59.1380    6.0460 N.am  252  GLN252     -0.0878
     99  N         82.1330   58.8680    0.7280 N.am  253  LEU253     -0.1966
    100  CA        83.5450   58.9730    0.3630 C.3   253  LEU253      0.1728
    101  C         84.0700   60.3930    0.5910 C.2   253  LEU253      0.2616
    102  O         83.4110   61.3630    0.2370 O.2   253  LEU253     -0.2715
    103  CB        83.7530   58.5610   -1.0990 C.3   253  LEU253      0.0311
    104  CG        83.5100   57.0970   -1.4730 C.3   253  LEU253      0.0022
    105  CD1       83.8650   56.8740   -2.9370 C.3   253  LEU253      0.0001
    106  CD2       84.3130   56.1580   -0.5690 C.3   253  LEU253      0.0001
    107  N         85.2550   60.5070    1.1850 N.am  254  VAL254     -0.1963
    108  CA        85.8500   61.8110    1.4870 C.3   254  VAL254      0.1727
    109  C         87.3470   61.7990    1.1670 C.2   254  VAL254      0.2616
    110  O         87.9270   60.7260    0.9850 O.2   254  VAL254     -0.2715
    111  CB        85.6410   62.2010    2.9750 C.3   254  VAL254      0.0290
    112  CG1       84.1850   62.5670    3.2460 C.3   254  VAL254      0.0023
    113  CG2       86.0960   61.0730    3.8950 C.3   254  VAL254      0.0023
    114  N         87.9760   62.9750    1.1160 N.am  255  THR255     -0.1951
    115  CA        89.3980   63.0370    0.7900 C.3   255  THR255      0.1897
    116  C         90.2110   64.1770    1.4430 C.2   255  THR255      0.2313
    117  O         89.6600   65.1530    1.9270 O.2   255  THR255     -0.2863
    118  CB        89.5960   63.1610   -0.7370 C.3   255  THR255      0.1794
    119  OG1       90.8900   62.6560   -1.0900 O.3   255  THR255     -0.2208
    120  CG2       89.4640   64.6240   -1.1890 C.3   255  THR255      0.0378
    121  N         76.8340   73.8940    7.2710 N.3   285  ARG285     -0.1245
    122  CA        77.3790   73.7240    5.9240 C.3   285  ARG285      0.1563
    123  C         78.8050   74.2910    5.7210 C.2   285  ARG285      0.2260
    124  O         79.2240   74.5330    4.5790 O.2   285  ARG285     -0.2867
    125  CB        76.4440   74.3500    4.8830 C.3   285  ARG285      0.0307
    126  CG        76.2780   73.4600    3.6540 C.3   285  ARG285      0.0489
    127  CD        75.7100   74.2240    2.4530 C.3   285  ARG285      0.2205
    128  NE        75.5920   73.3650    1.2730 N.pl3 285  ARG285     -0.0865
    129  CZ        74.9610   73.7230    0.1550 C.cat 285  ARG285      0.5346
    130  NH1       74.4090   74.9270    0.0670 N.pl3 285  ARG285      0.1354
    131  NH2       74.8860   72.8860   -0.8710 N.pl3 285  ARG285      0.1354
    132  N         82.5140   73.6130    5.4020 N.3   287  TYR287     -0.1241
    133  CA        83.4770   72.5190    5.1900 C.3   287  TYR287      0.1605
    134  C         84.7140   72.6680    6.1090 C.2   287  TYR287      0.2264
    135  O         85.1560   73.7830    6.3850 O.2   287  TYR287     -0.2867
    136  CB        83.9090   72.4600    3.7100 C.3   287  TYR287      0.0534
    137  CG        83.0510   71.5270    2.8620 C.ar  287  TYR287     -0.0201
    138  CD1       83.2930   70.1550    2.8460 C.ar  287  TYR287     -0.0009
    139  CD2       81.9920   72.0180    2.1020 C.ar  287  TYR287     -0.0009
    140  CE1       82.5070   69.2860    2.0850 C.ar  287  TYR287      0.0417
    141  CE2       81.1980   71.1680    1.3390 C.ar  287  TYR287      0.0417
    142  CZ        81.4580   69.8010    1.3390 C.ar  287  TYR287      0.1957
    143  OH        80.6800   68.9480    0.5940 O.3   287  TYR287     -0.2866
    144  N         67.9250   69.3570   -0.3950 N.3   318  HIS318     -0.1226
    145  CA        69.1750   69.0870   -1.1100 C.3   318  HIS318      0.1752
    146  C         69.5280   67.5920   -1.1320 C.2   318  HIS318      0.2596
    147  O         69.9970   67.0840   -2.1530 O.2   318  HIS318     -0.2718
    148  CB        70.3120   69.9070   -0.4900 C.3   318  HIS318      0.0759
    149  CG        71.5860   69.8620   -1.2710 C.ar  318  HIS318      0.0818
    150  ND1       71.8150   70.6670   -2.3670 N.ar  318  HIS318     -0.2268
    151  CD2       72.6990   69.1010   -1.1200 C.ar  318  HIS318      0.1154
    152  CE1       73.0170   70.4100   -2.8530 C.ar  318  HIS318      0.1986
    153  NE2       73.5720   69.4610   -2.1160 N.ar  318  HIS318     -0.2212
    154  N         69.2940   66.8740   -0.0280 N.am  319  TYR319     -0.1976
    155  CA        69.4830   65.4120   -0.0180 C.3   319  TYR319      0.1639
    156  C         68.5750   64.7150   -1.0420 C.2   319  TYR319      0.2290
    157  O         68.9720   63.7250   -1.6730 O.2   319  TYR319     -0.2864
    158  CB        69.1920   64.8100    1.3660 C.3   319  TYR319      0.0560
    159  CG        70.2430   65.0230    2.4390 C.ar  319  TYR319     -0.0198
    160  CD1       71.4680   65.6270    2.1490 C.ar  319  TYR319     -0.0009
    161  CD2       70.0010   64.6270    3.7510 C.ar  319  TYR319     -0.0009
    162  CE1       72.4270   65.8110    3.1350 C.ar  319  TYR319      0.0417
    163  CE2       70.9510   64.8070    4.7440 C.ar  319  TYR319      0.0417
    164  CZ        72.1630   65.4030    4.4300 C.ar  319  TYR319      0.1957
    165  OH        73.1130   65.5820    5.4050 O.3   319  TYR319     -0.2866
    166  N         69.9120   64.9140   -4.5200 N.3   322  LEU322     -0.1245
    167  CA        71.0910   64.0600   -4.6460 C.3   322  LEU322      0.1561
    168  C         70.8230   62.5950   -4.3770 C.2   322  LEU322      0.2260
    169  O         71.7480   61.7820   -4.4360 O.2   322  LEU322     -0.2867
    170  CB        72.1860   64.5310   -3.6750 C.3   322  LEU322      0.0270
    171  CG        73.2490   65.5500   -4.1060 C.3   322  LEU322      0.0019
    172  CD1       72.6420   66.7610   -4.7820 C.3   322  LEU322      0.0001
    173  CD2       74.0420   65.9720   -2.8770 C.3   322  LEU322      0.0001
    174  N         70.3810   61.2500   -1.4770 N.3   324  ARG324     -0.1245
    175  CA        71.1410   60.8310   -0.2920 C.3   324  ARG324      0.1563
    176  C         70.2220   60.4320    0.8780 C.2   324  ARG324      0.2260
    177  O         69.1630   61.0270    1.0710 O.2   324  ARG324     -0.2867
    178  CB        72.0950   61.9530    0.1610 C.3   324  ARG324      0.0307
    179  CG        73.3320   62.1320   -0.7280 C.3   324  ARG324      0.0489
    180  CD        74.3500   63.1350   -0.1480 C.3   324  ARG324      0.2205
    181  NE        75.3390   62.5390    0.7570 N.pl3 324  ARG324     -0.0865
    182  CZ        75.2280   62.4980    2.0860 C.cat 324  ARG324      0.5346
    183  NH1       74.1660   63.0100    2.6950 N.pl3 324  ARG324      0.1354
    184  NH2       76.1830   61.9370    2.8170 N.pl3 324  ARG324      0.1354
@<TRIPOS>BOND
     1    66    65    2
     2    83    84    1
     3    83    80    1
     4    82    81    2
     5    81    80    1
     6    65    64    1
     7    84    85   ar
     8    84    86   ar
     9    80    79    1
    10    85    87   ar
    11    57    56    2
    12    63    64    1
    13    79    73   am
    14    71    72    1
    15    64    67    1
    16    86    88   ar
    17    56    55    1
    18    87    89   ar
    19    88    89   ar
    20    73    72    1
    21    73    74    2
    22   172   171    1
    23   167   166    1
    24   167   168    1
    25   167   170    1
    26    72    75    1
    27    67    68    1
    28   169   168    2
    29    55    58    1
    30    55    54    1
    31   171   170    1
    32   171   173    1
    33    49    48    2
    34    58    59    1
    35    75    76    1
    36    68    69    1
    37    76    78    1
    38    76    77    1
    39    54    48   am
    40    48    47    1
    41    46    47    1
    42    47    50    1
    43   105   104    1
    44    61    60   ar
    45   152   150   ar
    46   152   153   ar
    47    59    60    1
    48   150   149   ar
    49   147   146    2
    50   153   151   ar
    51    60    62   ar
    52    69    70    1
    53   157   156    2
    54   174   175    1
    55   104   103    1
    56   104   106    1
    57    50    51    1
    58   149   151   ar
    59   149   148    1
    60   120   118    1
    61   146   145    1
    62   146   154   am
    63   145   148    1
    64   145   144    1
    65   103   100    1
    66   119   118    1
    67   156   155    1
    68    51    53    1
    69    51    52    1
    70   131   129    1
    71   118   115    1
    72   179   180    1
    73   179   178    1
    74   175   178    1
    75   175   176    1
    76   180   181    1
    77   154   155    1
    78   155   158    1
    79   130   129    1
    80   129   128    2
    81   102   101    2
    82   100   101    1
    83   100    99    1
    84   101   107   am
    85   143   142    1
    86    99    92   am
    87   181   182    2
    88   115   114    1
    89   115   116    1
    90   176   177    2
    91   110   109    2
    92   114   109   am
    93   109   108    1
    94   107   108    1
    95   128   127    1
    96   141   142   ar
    97   141   139   ar
    98   142   140   ar
    99   158   159    1
   100   116   117    2
   101   108   111    1
   102    92    91    1
   103    92    93    2
   104    45    43   ar
   105    45    44   ar
   106     7     9   ar
   107     7     6   ar
   108    43    41   ar
   109   140   138   ar
   110   182   183    1
   111   182   184    1
   112     9    10   ar
   113   139   137   ar
   114    91    90    1
   115    91    94    1
   116   160   159   ar
   117   160   162   ar
   118   159   161   ar
   119   127   126    1
   120     6     5    1
   121     6     8   ar
   122     5     2    1
   123    10    12   ar
   124    10     8   ar
   125   138   137   ar
   126   137   136    1
   127   111   112    1
   128   111   113    1
   129    44    42   ar
   130    12    14   ar
   131     8    11   ar
   132    94    95    1
   133   162   164   ar
   134    41    40   ar
   135    41    39   ar
   136    22    20    1
   137     4     3    2
   138    95    96    1
   139   126   125    1
   140    40    38   ar
   141   136   133    1
   142    14    13   ar
   143   161   163   ar
   144    11    13   ar
   145     2     3    1
   146     2     1    1
   147    42    39   ar
   148   164   163   ar
   149   164   165    1
   150    39    37   ar
   151    20    19    1
   152   124   123    2
   153    97    96    2
   154    96    98   am
   155   125   122    1
   156    21    19    1
   157    38    37   ar
   158   133   132    1
   159   133   134    1
   160    37    36    1
   161    19    16    1
   162   123   122    1
   163    15    16    1
   164   122   121    1
   165   134   135    2
   166    16    17    1
   167    36    33    1
   168    18    17    2
   169    17    23   am
   170    26    25    2
   171    32    33    1
   172    33    34    1
   173    23    24    1
   174    25    24    1
   175    24    27    1
   176    34    35    2
   177    27    28    1
   178    31    29   ar
   179    28    29    1
   180    29    30   ar
