@<TRIPOS>MOLECULE
tmp/5fz7A00.pdb
 147 142 0 0 0
SMALL
GASTEIGER

@<TRIPOS>ATOM
      1  N         94.9570   54.3210    8.2950 N.3    65  GLN65      -0.1245
      2  CA        94.7380   55.3900    7.3470 C.3    65  GLN65       0.1566
      3  C         95.9540   55.6350    6.4630 C.2    65  GLN65       0.2260
      4  O         97.0530   55.8490    6.9700 O.2    65  GLN65      -0.2867
      5  CB        94.3660   56.6590    8.1250 C.3    65  GLN65       0.0367
      6  CG        94.2950   57.9140    7.3310 C.3    65  GLN65       0.0905
      7  CD        93.8240   59.1000    8.1670 C.2    65  GLN65       0.2608
      8  OE1       94.4130   59.4370    9.1960 O.2    65  GLN65      -0.2717
      9  NE2       92.7660   59.7420    7.7130 N.am   65  GLN65      -0.0878
     10  N         83.7590   57.0060    8.8370 N.3    76  VAL76      -0.1245
     11  CA        83.9810   55.9120    9.7900 C.3    76  VAL76       0.1561
     12  C         82.6930   55.2740   10.3170 C.2    76  VAL76       0.2260
     13  O         81.6290   55.9020   10.3280 O.2    76  VAL76      -0.2867
     14  CB        84.8460   56.3860   10.9940 C.3    76  VAL76       0.0252
     15  CG1       86.2530   56.7550   10.5170 C.3    76  VAL76       0.0019
     16  CG2       84.1860   57.5580   11.7150 C.3    76  VAL76       0.0019
     17  N         94.5300   55.6230   14.4150 N.3   129  TYR129     -0.1227
     18  CA        93.8130   56.5350   15.3000 C.3   129  TYR129      0.1736
     19  C         92.5800   55.8640   15.9010 C.2   129  TYR129      0.2596
     20  O         92.1910   54.7690   15.4900 O.2   129  TYR129     -0.2718
     21  CB        93.4010   57.8040   14.5480 C.3   129  TYR129      0.0548
     22  CG        92.4320   57.5330   13.4160 C.ar  129  TYR129     -0.0200
     23  CD1       92.8860   57.1220   12.1650 C.ar  129  TYR129     -0.0009
     24  CD2       91.0620   57.6620   13.6040 C.ar  129  TYR129     -0.0009
     25  CE1       92.0000   56.8550   11.1320 C.ar  129  TYR129      0.0417
     26  CE2       90.1730   57.3960   12.5780 C.ar  129  TYR129      0.0417
     27  CZ        90.6460   57.0030   11.3450 C.ar  129  TYR129      0.1957
     28  OH        89.7630   56.7450   10.3260 O.3   129  TYR129     -0.2866
     29  N         91.9570   56.5370   16.8610 N.am  130  GLY130     -0.1942
     30  CA        90.7390   56.0380   17.4690 C.3   130  GLY130      0.2014
     31  C         89.5710   56.9780   17.2520 C.2   130  GLY130      0.2638
     32  O         89.6820   58.1810   17.4860 O.2   130  GLY130     -0.2714
     33  N         88.4500   56.4300   16.7950 N.am  131  ALA131     -0.1977
     34  CA        87.2290   57.2130   16.6170 C.3   131  ALA131      0.1597
     35  C         86.0120   56.3500   16.9640 C.2   131  ALA131      0.2287
     36  O         85.7570   55.3630   16.3010 O.2   131  ALA131     -0.2864
     37  CB        87.1220   57.7460   15.1810 C.3   131  ALA131      0.0319
     38  N         87.9310   61.0960   19.9870 N.3   190  TYR190     -0.1227
     39  CA        89.0040   60.9680   18.9850 C.3   190  TYR190      0.1736
     40  C         90.4150   60.9220   19.5720 C.2   190  TYR190      0.2595
     41  O         90.8880   61.9150   20.1350 O.2   190  TYR190     -0.2718
     42  CB        88.9220   62.1260   17.9940 C.3   190  TYR190      0.0548
     43  CG        87.6160   62.2040   17.2120 C.ar  190  TYR190     -0.0200
     44  CD1       87.2550   61.2030   16.3030 C.ar  190  TYR190     -0.0009
     45  CD2       86.7540   63.2850   17.3710 C.ar  190  TYR190     -0.0009
     46  CE1       86.0730   61.2850   15.5750 C.ar  190  TYR190      0.0417
     47  CE2       85.5750   63.3740   16.6510 C.ar  190  TYR190      0.0417
     48  CZ        85.2380   62.3750   15.7550 C.ar  190  TYR190      0.1957
     49  OH        84.0590   62.4800   15.0560 O.3   190  TYR190     -0.2866
     50  N         91.0870   59.7820   19.4280 N.am  191  VAL191     -0.1966
     51  CA        92.4870   59.6410   19.8520 C.3   191  VAL191      0.1727
     52  C         93.4390   59.8600   18.6570 C.2   191  VAL191      0.2616
     53  O         93.4890   59.0320   17.7440 O.2   191  VAL191     -0.2715
     54  CB        92.7560   58.2500   20.4760 C.3   191  VAL191      0.0290
     55  CG1       94.2000   58.1360   20.9900 C.3   191  VAL191      0.0023
     56  CG2       91.8060   57.9930   21.6080 C.3   191  VAL191      0.0023
     57  N         94.1790   60.9710   18.6530 N.am  192  GLY192     -0.1955
     58  CA        95.0750   61.2800   17.5380 C.3   192  GLY192      0.1869
     59  C         96.5620   60.9250   17.7070 C.2   192  GLY192      0.2309
     60  O         97.0560   60.7850   18.8310 O.2   192  GLY192     -0.2863
     61  N         97.5980   61.9470   11.6530 N.3   196  SER196     -0.1202
     62  CA        96.2530   61.3610   11.5320 C.3   196  SER196      0.2020
     63  C         95.3330   62.5150   11.1510 C.2   196  SER196      0.2619
     64  O         95.4830   63.6310   11.6480 O.2   196  SER196     -0.2717
     65  CB        95.7860   60.6410   12.8120 C.3   196  SER196      0.2103
     66  OG        95.7280   61.5110   13.9270 O.3   196  SER196     -0.2182
     67  N         94.4080   62.2700   10.2360 N.am  197  SER197     -0.1937
     68  CA        93.6860   63.3920    9.6630 C.3   197  SER197      0.2055
     69  C         92.2200   63.0920    9.3970 C.2   197  SER197      0.2643
     70  O         91.8210   61.9430    9.2180 O.2   197  SER197     -0.2714
     71  CB        94.3750   63.8430    8.3690 C.3   197  SER197      0.2130
     72  OG        94.4850   62.7750    7.4510 O.3   197  SER197     -0.2179
     73  N         91.4140   64.1440    9.3880 N.am  198  PHE198     -0.1973
     74  CA        90.0020   63.9980    9.0480 C.3   198  PHE198      0.1639
     75  C         89.7720   64.7220    7.7160 C.2   198  PHE198      0.2290
     76  O         90.1910   65.8770    7.5460 O.2   198  PHE198     -0.2864
     77  CB        89.0630   64.4870   10.1940 C.3   198  PHE198      0.0560
     78  CG        89.4050   65.8530   10.7780 C.ar  198  PHE198     -0.0200
     79  CD1       90.4470   65.9970   11.7010 C.ar  198  PHE198     -0.0042
     80  CD2       88.6340   66.9640   10.4720 C.ar  198  PHE198     -0.0042
     81  CE1       90.7560   67.2370   12.2580 C.ar  198  PHE198     -0.0003
     82  CE2       88.9220   68.2080   11.0240 C.ar  198  PHE198     -0.0003
     83  CZ        89.9950   68.3470   11.9270 C.ar  198  PHE198     -0.0000
     84  N         84.6270   67.5490    4.9420 N.3   201  HIS201     -0.1241
     85  CA        83.2300   67.1310    5.1090 C.3   201  HIS201      0.1621
     86  C         82.3880   68.2460    5.7280 C.2   201  HIS201      0.2264
     87  O         82.9280   69.2100    6.2800 O.2   201  HIS201     -0.2867
     88  CB        83.1460   65.8790    5.9870 C.3   201  HIS201      0.0745
     89  CG        83.3980   66.1530    7.4400 C.ar  201  HIS201      0.0817
     90  ND1       84.6680   66.2810    7.9650 N.ar  201  HIS201     -0.2268
     91  CD2       82.5430   66.3420    8.4750 C.ar  201  HIS201      0.1154
     92  CE1       84.5850   66.5280    9.2620 C.ar  201  HIS201      0.1986
     93  NE2       83.3070   66.5720    9.5970 N.ar  201  HIS201     -0.2212
     94  N         83.9170   70.9840   19.0640 N.3   211  ASN211     -0.1240
     95  CA        85.0110   70.0450   19.3360 C.3   211  ASN211      0.1653
     96  C         85.8410   70.5590   20.5130 C.2   211  ASN211      0.2266
     97  O         86.2600   71.7300   20.5270 O.2   211  ASN211     -0.2867
     98  CB        85.8950   69.8710   18.0730 C.3   211  ASN211      0.1155
     99  CG        87.0660   68.8610   18.2750 C.2   211  ASN211      0.2627
    100  OD1       87.9560   69.0890   19.1010 O.2   211  ASN211     -0.2716
    101  ND2       87.0750   67.7630   17.4820 N.am  211  ASN211     -0.0877
    102  N         95.7120   70.3600   17.3640 N.3   219  LYS219     -0.1245
    103  CA        94.9340   69.8780   16.2340 C.3   219  LYS219      0.1561
    104  C         94.8300   71.0250   15.2460 C.2   219  LYS219      0.2260
    105  O         94.3870   72.1080   15.6010 O.2   219  LYS219     -0.2867
    106  CB        93.5340   69.4130   16.6820 C.3   219  LYS219      0.0271
    107  CG        92.6980   68.7410   15.5870 C.3   219  LYS219      0.0035
    108  CD        91.2450   68.4650   16.0190 C.3   219  LYS219      0.0206
    109  CE        91.1540   67.5170   17.2250 C.3   219  LYS219      0.1093
    110  NZ        91.5240   66.1010   16.9320 N.3   219  LYS219     -0.1314
    111  N         93.3130   72.8860   11.8950 N.3   221  TRP221     -0.1241
    112  CA        91.9950   72.9400   11.2440 C.3   221  TRP221      0.1605
    113  C         92.0160   73.7870    9.9910 C.2   221  TRP221      0.2264
    114  O         92.6940   74.8200    9.9650 O.2   221  TRP221     -0.2867
    115  CB        90.9360   73.5510   12.1780 C.3   221  TRP221      0.0550
    116  CG        90.4940   72.7000   13.3340 C.ar  221  TRP221      0.0003
    117  CD1       91.1790   72.4620   14.4990 C.ar  221  TRP221      0.0946
    118  CD2       89.2430   72.0130   13.4550 C.ar  221  TRP221      0.0152
    119  NE1       90.4360   71.6540   15.3300 N.ar  221  TRP221     -0.2442
    120  CE2       89.2400   71.3690   14.7170 C.ar  221  TRP221      0.0810
    121  CE3       88.1190   71.8820   12.6150 C.ar  221  TRP221      0.0012
    122  CZ2       88.1590   70.5830   15.1600 C.ar  221  TRP221      0.0191
    123  CZ3       87.0420   71.1090   13.0540 C.ar  221  TRP221      0.0001
    124  CH2       87.0700   70.4670   14.3210 C.ar  221  TRP221      0.0015
    125  N         85.0240   71.5030    6.5550 N.3   289  HIS289     -0.1241
    126  CA        86.2490   71.5220    7.3470 C.3   289  HIS289      0.1621
    127  C         87.0420   70.2170    7.1990 C.2   289  HIS289      0.2264
    128  O         86.4890   69.1920    6.7930 O.2   289  HIS289     -0.2867
    129  CB        85.9550   71.8020    8.8350 C.3   289  HIS289      0.0745
    130  CG        84.9270   70.8970    9.4500 C.ar  289  HIS289      0.0817
    131  ND1       83.5700   71.0920    9.2810 N.ar  289  HIS289     -0.2268
    132  CD2       85.0530   69.8110   10.2550 C.ar  289  HIS289      0.1154
    133  CE1       82.9080   70.1570    9.9430 C.ar  289  HIS289      0.1986
    134  NE2       83.7820   69.3650   10.5410 N.ar  289  HIS289     -0.2212
    135  N         96.1910   65.9490   13.2470 N.3   293  ASN293     -0.1240
    136  CA        96.7670   66.0590   14.5720 C.3   293  ASN293      0.1653
    137  C         98.3000   66.2170   14.5180 C.2   293  ASN293      0.2266
    138  O         98.9780   65.5950   13.6840 O.2   293  ASN293     -0.2867
    139  CB        96.3370   64.8410   15.3780 C.3   293  ASN293      0.1155
    140  CG        94.8110   64.7820   15.5410 C.2   293  ASN293      0.2627
    141  OD1       94.2010   65.7300   16.0390 O.2   293  ASN293     -0.2716
    142  ND2       94.1910   63.7050   15.0600 N.am  293  ASN293     -0.0877
    143  N         83.8220   65.5060   20.4870 N.3   301  ALA301     -0.1245
    144  CA        83.0310   66.3770   19.6210 C.3   301  ALA301      0.1562
    145  C         81.5520   65.9540   19.5710 C.2   301  ALA301      0.2260
    146  O         81.2260   64.7740   19.7450 O.2   301  ALA301     -0.2867
    147  CB        83.6350   66.3880   18.2060 C.3   301  ALA301      0.0290
@<TRIPOS>BOND
     1    84    85    1
     2    85    86    1
     3    85    88    1
     4    86    87    2
     5    88    89    1
     6     3     4    2
     7     3     2    1
     8   125   126    1
     9   128   127    2
    10   127   126    1
    11     6     5    1
    12     6     7    1
    13   126   129    1
    14     2     5    1
    15     2     1    1
    16    89    90   ar
    17    89    91   ar
    18    72    71    1
    19    76    75    2
    20     9     7   am
    21    75    74    1
    22    90    92   ar
    23     7     8    2
    24    71    68    1
    25    91    93   ar
    26   129   130    1
    27    10    11    1
    28    74    73    1
    29    74    77    1
    30    70    69    2
    31    92    93   ar
    32   131   130   ar
    33   131   133   ar
    34    73    69   am
    35    69    68    1
    36   130   132   ar
    37    68    67    1
    38    11    12    1
    39    11    14    1
    40   133   134   ar
    41   114   113    2
    42   113   112    1
    43    77    78    1
    44    67    63   am
    45   132   134   ar
    46    12    13    2
    47    28    27    1
    48    80    78   ar
    49    80    82   ar
    50    15    14    1
    51    78    79   ar
    52    14    16    1
    53    82    83   ar
    54    25    27   ar
    55    25    23   ar
    56    63    62    1
    57    63    64    2
    58   112   111    1
    59   112   115    1
    60    27    26   ar
    61    62    61    1
    62    62    65    1
    63    79    81   ar
    64    83    81   ar
    65    23    22   ar
    66   115   116    1
    67    26    24   ar
    68   121   123   ar
    69   121   118   ar
    70    65    66    1
    71   123   124   ar
    72   135   136    1
    73   116   118   ar
    74   116   117   ar
    75    22    24   ar
    76    22    21    1
    77   118   120   ar
    78   138   137    2
    79   124   122   ar
    80    17    18    1
    81   117   119   ar
    82   137   136    1
    83    21    18    1
    84   136   139    1
    85   120   122   ar
    86   120   119   ar
    87    49    48    1
    88   142   140   am
    89    37    34    1
    90   104   105    2
    91   104   103    1
    92    18    19    1
    93   139   140    1
    94    20    19    2
    95   140   141    2
    96    46    48   ar
    97    46    44   ar
    98   107   108    1
    99   107   106    1
   100    48    47   ar
   101    19    29   am
   102   108   109    1
   103   103   106    1
   104   103   102    1
   105    36    35    2
   106    44    43   ar
   107    34    33    1
   108    34    35    1
   109    47    45   ar
   110    33    31   am
   111    29    30    1
   112   110   109    1
   113    43    45   ar
   114    43    42    1
   115    31    30    1
   116    31    32    2
   117   101    99   am
   118    58    59    1
   119    58    57    1
   120    59    60    2
   121    53    52    2
   122    42    39    1
   123    98    99    1
   124    98    95    1
   125   147   144    1
   126    99   100    2
   127    57    52   am
   128    52    51    1
   129    39    40    1
   130    39    38    1
   131    94    95    1
   132    95    96    1
   133    50    40   am
   134    50    51    1
   135   145   144    1
   136   145   146    2
   137    40    41    2
   138   144   143    1
   139    51    54    1
   140    54    55    1
   141    54    56    1
   142    96    97    2
