@<TRIPOS>MOLECULE
tmp/5fz8A00.pdb
 108 103 0 0 0
SMALL
GASTEIGER

@<TRIPOS>ATOM
      1  N         87.4660   60.5690   20.2360 N.3   187  TYR187     -0.1241
      2  CA        88.5010   60.4230   19.2070 C.3   187  TYR187      0.1605
      3  C         89.9020   60.3960   19.8160 C.2   187  TYR187      0.2264
      4  O         90.3190   61.3710   20.4240 O.2   187  TYR187     -0.2867
      5  CB        88.4040   61.5680   18.2040 C.3   187  TYR187      0.0534
      6  CG        87.0560   61.6690   17.5180 C.ar  187  TYR187     -0.0201
      7  CD1       86.7810   60.9190   16.3800 C.ar  187  TYR187     -0.0009
      8  CD2       86.0660   62.5200   18.0040 C.ar  187  TYR187     -0.0009
      9  CE1       85.5600   61.0070   15.7430 C.ar  187  TYR187      0.0417
     10  CE2       84.8310   62.6150   17.3660 C.ar  187  TYR187      0.0417
     11  CZ        84.5880   61.8490   16.2370 C.ar  187  TYR187      0.1957
     12  OH        83.3710   61.9320   15.5910 O.3   187  TYR187     -0.2866
     13  N         93.7820   61.7340   10.3900 N.3   194  SER194     -0.1202
     14  CA        93.0480   62.8360    9.8150 C.3   194  SER194      0.2020
     15  C         91.5620   62.5690    9.6520 C.2   194  SER194      0.2618
     16  O         91.0990   61.4240    9.6350 O.2   194  SER194     -0.2717
     17  CB        93.6470   63.2000    8.4510 C.3   194  SER194      0.2103
     18  OG        93.7950   62.0330    7.6840 O.3   194  SER194     -0.2182
     19  N         90.8240   63.6550    9.5350 N.am  195  PHE195     -0.1975
     20  CA        89.4270   63.5470    9.1840 C.3   195  PHE195      0.1639
     21  C         89.2390   64.2210    7.8270 C.2   195  PHE195      0.2290
     22  O         89.6500   65.3650    7.6190 O.2   195  PHE195     -0.2864
     23  CB        88.5100   64.1320   10.2880 C.3   195  PHE195      0.0560
     24  CG        88.8970   65.5050   10.8110 C.ar  195  PHE195     -0.0200
     25  CD1       89.9610   65.6670   11.7040 C.ar  195  PHE195     -0.0042
     26  CD2       88.1240   66.6150   10.4960 C.ar  195  PHE195     -0.0042
     27  CE1       90.2780   66.9230   12.2180 C.ar  195  PHE195     -0.0003
     28  CE2       88.4220   67.8700   11.0130 C.ar  195  PHE195     -0.0003
     29  CZ        89.5080   68.0310   11.8680 C.ar  195  PHE195     -0.0000
     30  N         84.1440   66.8900    5.0420 N.3   198  HIS198     -0.1241
     31  CA        82.7530   66.4510    5.1800 C.3   198  HIS198      0.1621
     32  C         81.9070   67.5510    5.7740 C.2   198  HIS198      0.2264
     33  O         82.4340   68.5320    6.3270 O.2   198  HIS198     -0.2867
     34  CB        82.6660   65.2060    6.0510 C.3   198  HIS198      0.0745
     35  CG        82.9760   65.4770    7.4890 C.ar  198  HIS198      0.0817
     36  ND1       84.2660   65.6520    7.9520 N.ar  198  HIS198     -0.2268
     37  CD2       82.1630   65.6500    8.5590 C.ar  198  HIS198      0.1154
     38  CE1       84.2340   65.8980    9.2530 C.ar  198  HIS198      0.1986
     39  NE2       82.9710   65.8990    9.6460 N.ar  198  HIS198     -0.2212
     40  N         78.1770   67.7800    8.3360 N.3   200  GLU200     -0.1245
     41  CA        77.4630   66.9250    9.2880 C.3   200  GLU200      0.1567
     42  C         76.1470   66.4540    8.6840 C.2   200  GLU200      0.2260
     43  O         75.5740   67.1390    7.8450 O.2   200  GLU200     -0.2867
     44  CB        77.1910   67.6570   10.5950 C.3   200  GLU200      0.0388
     45  CG        78.4470   68.1300   11.2990 C.3   200  GLU200      0.1160
     46  CD        79.4800   67.0340   11.4800 C.2   200  GLU200      0.3649
     47  OE1       79.1630   65.9700   12.0490 O.co2 200  GLU200     -0.2457
     48  OE2       80.6250   67.2470   11.0350 O.co2 200  GLU200     -0.2457
     49  N         78.2780   71.0480   14.7820 N.3   206  SER206     -0.1217
     50  CA        78.9520   70.1560   15.6970 C.3   206  SER206      0.1889
     51  C         79.8570   71.0220   16.5770 C.2   206  SER206      0.2288
     52  O         80.1300   72.1920   16.2680 O.2   206  SER206     -0.2866
     53  CB        79.7520   69.0460   14.9900 C.3   206  SER206      0.2089
     54  OG        80.8980   69.5810   14.3340 O.3   206  SER206     -0.2183
     55  N         83.3560   70.3580   19.1900 N.3   208  ASN208     -0.1240
     56  CA        84.4240   69.4060   19.4600 C.3   208  ASN208      0.1653
     57  C         85.2720   70.0110   20.5780 C.2   208  ASN208      0.2266
     58  O         85.6430   71.1810   20.4980 O.2   208  ASN208     -0.2867
     59  CB        85.2810   69.1640   18.1850 C.3   208  ASN208      0.1155
     60  CG        86.4380   68.1760   18.3910 C.2   208  ASN208      0.2627
     61  OD1       87.3160   68.3690   19.2500 O.2   208  ASN208     -0.2716
     62  ND2       86.4590   67.1150   17.5660 N.am  208  ASN208     -0.0877
     63  N         94.9400   69.7780   17.4600 N.3   216  LYS216     -0.1245
     64  CA        94.2130   69.2540   16.3000 C.3   216  LYS216      0.1561
     65  C         94.1220   70.4050   15.3150 C.2   216  LYS216      0.2260
     66  O         93.6190   71.4760   15.6490 O.2   216  LYS216     -0.2867
     67  CB        92.8130   68.7140   16.7120 C.3   216  LYS216      0.0271
     68  CG        91.9820   68.1120   15.5530 C.3   216  LYS216      0.0035
     69  CD        90.5320   67.7100   15.9710 C.3   216  LYS216      0.0206
     70  CE        90.4730   66.7690   17.1930 C.3   216  LYS216      0.1093
     71  NZ        90.8960   65.3760   16.9270 N.3   216  LYS216     -0.1314
     72  N         92.6330   72.2490   12.0850 N.3   218  TRP218     -0.1241
     73  CA        91.3770   72.2880   11.3410 C.3   218  TRP218      0.1605
     74  C         91.4410   73.1440   10.0890 C.2   218  TRP218      0.2264
     75  O         92.1300   74.1630   10.0680 O.2   218  TRP218     -0.2867
     76  CB        90.2450   72.8610   12.2150 C.3   218  TRP218      0.0550
     77  CG        89.8790   72.0320   13.4030 C.ar  218  TRP218      0.0003
     78  CD1       90.6270   71.8270   14.5340 C.ar  218  TRP218      0.0946
     79  CD2       88.6390   71.3460   13.6100 C.ar  218  TRP218      0.0152
     80  NE1       89.9460   71.0110   15.4120 N.ar  218  TRP218     -0.2442
     81  CE2       88.7150   70.7180   14.8750 C.ar  218  TRP218      0.0810
     82  CE3       87.4770   71.1860   12.8360 C.ar  218  TRP218      0.0012
     83  CZ2       87.6670   69.9420   15.3920 C.ar  218  TRP218      0.0191
     84  CZ3       86.4310   70.4180   13.3520 C.ar  218  TRP218      0.0001
     85  CH2       86.5370   69.8020   14.6170 C.ar  218  TRP218      0.0015
     86  N         84.4930   70.7810    6.6740 N.3   286  HIS286     -0.1241
     87  CA        85.7290   70.8220    7.4590 C.3   286  HIS286      0.1621
     88  C         86.5350   69.5450    7.3320 C.2   286  HIS286      0.2264
     89  O         86.0170   68.4700    6.9980 O.2   286  HIS286     -0.2867
     90  CB        85.4390   71.1270    8.9500 C.3   286  HIS286      0.0745
     91  CG        84.4160   70.2230    9.5740 C.ar  286  HIS286      0.0817
     92  ND1       83.0660   70.3640    9.3310 N.ar  286  HIS286     -0.2268
     93  CD2       84.5410   69.1620   10.4140 C.ar  286  HIS286      0.1154
     94  CE1       82.3990   69.4450   10.0090 C.ar  286  HIS286      0.1986
     95  NE2       83.2670   68.6980   10.6690 N.ar  286  HIS286     -0.2212
     96  N         95.5160   65.4330   13.3020 N.3   290  ASN290     -0.1240
     97  CA        96.1050   65.6560   14.6140 C.3   290  ASN290      0.1653
     98  C         97.6170   65.8670   14.5600 C.2   290  ASN290      0.2266
     99  O         98.2960   65.3000   13.7150 O.2   290  ASN290     -0.2867
    100  CB        95.7470   64.4940   15.5160 C.3   290  ASN290      0.1155
    101  CG        94.2380   64.3950   15.7180 C.2   290  ASN290      0.2627
    102  OD1       93.6300   65.3000   16.2980 O.2   290  ASN290     -0.2716
    103  ND2       93.6320   63.3280   15.2090 N.am  290  ASN290     -0.0877
    104  N         83.2760   64.9210   20.6610 N.3   298  ALA298     -0.1245
    105  CA        82.4770   65.7790   19.8260 C.3   298  ALA298      0.1562
    106  C         81.0270   65.2850   19.7660 C.2   298  ALA298      0.2260
    107  O         80.7580   64.0900   19.9300 O.2   298  ALA298     -0.2867
    108  CB        83.0750   65.8580   18.3950 C.3   298  ALA298      0.0290
@<TRIPOS>BOND
     1    30    31    1
     2    31    32    1
     3    31    34    1
     4    32    33    2
     5    34    35    1
     6    86    87    1
     7    89    88    2
     8    88    87    1
     9    87    90    1
    10    35    36   ar
    11    35    37   ar
    12    22    21    2
    13    18    17    1
    14    21    20    1
    15    43    42    2
    16    36    38   ar
    17    40    41    1
    18    17    14    1
    19    37    39   ar
    20    42    41    1
    21    90    91    1
    22    20    19    1
    23    20    23    1
    24    38    39   ar
    25    41    44    1
    26    92    91   ar
    27    92    94   ar
    28    19    15   am
    29    91    93   ar
    30    16    15    2
    31    15    14    1
    32    14    13    1
    33    94    95   ar
    34    75    74    2
    35    74    73    1
    36    23    24    1
    37    93    95   ar
    38    26    24   ar
    39    26    28   ar
    40    44    45    1
    41    24    25   ar
    42    28    29   ar
    43    48    46   ar
    44    45    46    1
    45    73    72    1
    46    73    76    1
    47    46    47   ar
    48    25    27   ar
    49    29    27   ar
    50    76    77    1
    51    82    84   ar
    52    82    79   ar
    53    96    97    1
    54    84    85   ar
    55    77    79   ar
    56    77    78   ar
    57    79    81   ar
    58    99    98    2
    59    54    53    1
    60    78    80   ar
    61    98    97    1
    62    97   100    1
    63    85    83   ar
    64    49    50    1
    65    81    83   ar
    66    81    80   ar
    67    53    50    1
    68   103   101   am
    69    65    66    2
    70    65    64    1
    71   100   101    1
    72    68    69    1
    73    68    67    1
    74    12    11    1
    75    50    51    1
    76   101   102    2
    77     9    11   ar
    78     9     7   ar
    79    69    70    1
    80    11    10   ar
    81    52    51    2
    82    64    67    1
    83    64    63    1
    84     7     6   ar
    85    71    70    1
    86    10     8   ar
    87     6     8   ar
    88     6     5    1
    89    62    60   am
    90    59    60    1
    91    59    56    1
    92     5     2    1
    93    60    61    2
    94   108   105    1
    95    55    56    1
    96     2     3    1
    97     2     1    1
    98    56    57    1
    99   106   105    1
   100   106   107    2
   101     3     4    2
   102   105   104    1
   103    58    57    2
