@<TRIPOS>MOLECULE
tmp/5fz9A03.pdb
 96 95 0 0 0
SMALL
GASTEIGER

@<TRIPOS>ATOM
      1  N         77.9070   84.8100   15.9320 N.3    30  ARG30      -0.1245
      2  CA        77.4520   84.2850   14.6470 C.3    30  ARG30       0.1563
      3  C         77.6990   85.1860   13.4170 C.2    30  ARG30       0.2260
      4  O         78.0920   84.6870   12.3580 O.2    30  ARG30      -0.2867
      5  CB        75.9630   83.9520   14.7300 C.3    30  ARG30       0.0307
      6  CG        75.4800   83.0590   13.5940 C.3    30  ARG30       0.0489
      7  CD        74.0410   82.6230   13.8000 C.3    30  ARG30       0.2205
      8  NE        73.1100   83.6820   13.4270 N.pl3  30  ARG30      -0.0865
      9  CZ        72.5460   83.7900   12.2280 C.cat  30  ARG30       0.5346
     10  NH1       72.8080   82.8920   11.2870 N.pl3  30  ARG30       0.1354
     11  NH2       71.7160   84.7900   11.9720 N.pl3  30  ARG30       0.1354
     12  N         80.3320   83.0670   11.0210 N.3    34  GLU34      -0.1245
     13  CA        79.7100   82.4110    9.8730 C.3    34  GLU34       0.1567
     14  C         80.3490   82.8720    8.5540 C.2    34  GLU34       0.2260
     15  O         80.1650   82.2320    7.5170 O.2    34  GLU34      -0.2867
     16  CB        78.1920   82.6480    9.8650 C.3    34  GLU34       0.0388
     17  CG        77.7290   83.9510    9.2350 C.3    34  GLU34       0.1160
     18  CD        76.1980   84.0890    9.2080 C.2    34  GLU34       0.3649
     19  OE1       75.4800   83.0960    9.4840 O.co2  34  GLU34      -0.2457
     20  OE2       75.7180   85.1990    8.9000 O.co2  34  GLU34      -0.2457
     21  N         75.5710   72.3320   13.3300 N.3   207  TYR207     -0.1241
     22  CA        76.7880   72.7970   14.0110 C.3   207  TYR207      0.1605
     23  C         77.5940   71.6300   14.5620 C.2   207  TYR207      0.2264
     24  O         77.0500   70.5570   14.7760 O.2   207  TYR207     -0.2867
     25  CB        76.4640   73.7070   15.2040 C.3   207  TYR207      0.0534
     26  CG        75.8620   75.0640   14.9300 C.ar  207  TYR207     -0.0201
     27  CD1       74.5200   75.2020   14.5840 C.ar  207  TYR207     -0.0009
     28  CD2       76.6120   76.2190   15.1160 C.ar  207  TYR207     -0.0009
     29  CE1       73.9630   76.4590   14.3810 C.ar  207  TYR207      0.0417
     30  CE2       76.0650   77.4730   14.9140 C.ar  207  TYR207      0.0417
     31  CZ        74.7390   77.5900   14.5550 C.ar  207  TYR207      0.1957
     32  OH        74.1970   78.8460   14.3620 O.3   207  TYR207     -0.2866
     33  N         80.1970   75.9680   11.8350 N.3   283  PHE283     -0.1228
     34  CA        78.8420   76.4610   11.5500 C.3   283  PHE283      0.1721
     35  C         78.1380   75.6520   10.4400 C.2   283  PHE283      0.2437
     36  O         78.7850   74.8620    9.7460 O.2   283  PHE283     -0.2733
     37  CB        78.9180   77.9570   11.2120 C.3   283  PHE283      0.0547
     38  CG        79.0100   78.8190   12.4380 C.ar  283  PHE283     -0.0202
     39  CD1       80.1240   78.7470   13.2650 C.ar  283  PHE283     -0.0042
     40  CD2       77.9610   79.6550   12.8040 C.ar  283  PHE283     -0.0042
     41  CE1       80.1990   79.5130   14.4210 C.ar  283  PHE283     -0.0003
     42  CE2       78.0300   80.4210   13.9590 C.ar  283  PHE283     -0.0003
     43  CZ        79.1510   80.3500   14.7650 C.ar  283  PHE283     -0.0000
     44  N         76.8030   75.8060   10.2990 N.am  284  PRO284     -0.2729
     45  CA        76.0680   75.0270    9.2820 C.3   284  PRO284      0.1401
     46  C         76.6360   75.0840    7.8530 C.2   284  PRO284      0.2269
     47  O         76.8500   76.1760    7.3030 O.2   284  PRO284     -0.2865
     48  CB        74.6710   75.6550    9.3240 C.3   284  PRO284      0.0296
     49  CG        74.5180   76.0930   10.7600 C.3   284  PRO284      0.0237
     50  CD        75.8850   76.5840   11.1600 C.3   284  PRO284      0.0939
     51  N         68.3950   79.0920   15.0540 N.3   307  ASP307     -0.1225
     52  CA        68.9510   79.6830   13.8380 C.3   307  ASP307      0.1805
     53  C         69.0320   78.6600   12.6940 C.2   307  ASP307      0.2597
     54  O         68.8400   78.9970   11.5200 O.2   307  ASP307     -0.2718
     55  CB        70.3490   80.2540   14.1220 C.3   307  ASP307      0.1424
     56  CG        70.3340   81.3750   15.1590 C.2   307  ASP307      0.3668
     57  OD1       69.2870   82.0430   15.3040 O.co2 307  ASP307     -0.2456
     58  OD2       71.3720   81.5890   15.8300 O.co2 307  ASP307     -0.2456
     59  N         69.3130   77.4090   13.0520 N.am  308  TRP308     -0.1976
     60  CA        69.5730   76.3600   12.0740 C.3   308  TRP308      0.1640
     61  C         68.2990   75.8300   11.3850 C.2   308  TRP308      0.2290
     62  O         68.3860   75.3090   10.2720 O.2   308  TRP308     -0.2864
     63  CB        70.3280   75.2070   12.7550 C.3   308  TRP308      0.0576
     64  CG        70.2840   73.9090   12.0210 C.ar  308  TRP308      0.0006
     65  CD1       71.1570   73.4800   11.0500 C.ar  308  TRP308      0.0946
     66  CD2       69.3060   72.8670   12.1730 C.ar  308  TRP308      0.0152
     67  NE1       70.7890   72.2220   10.6060 N.ar  308  TRP308     -0.2442
     68  CE2       69.6570   71.8280   11.2740 C.ar  308  TRP308      0.0810
     69  CE3       68.1710   72.7080   12.9830 C.ar  308  TRP308      0.0012
     70  CZ2       68.9110   70.6440   11.1660 C.ar  308  TRP308      0.0191
     71  CZ3       67.4400   71.5310   12.8830 C.ar  308  TRP308      0.0001
     72  CH2       67.8130   70.5130   11.9800 C.ar  308  TRP308      0.0015
     73  N         65.6530   76.6590    9.4920 N.3   310  PRO310     -0.2102
     74  CA        65.3840   76.7670    8.0460 C.3   310  PRO310      0.1504
     75  C         66.4140   76.0520    7.1640 C.2   310  PRO310      0.2575
     76  O         66.0550   75.4950    6.1180 O.2   310  PRO310     -0.2718
     77  CB        65.4330   78.2780    7.7900 C.3   310  PRO310      0.0282
     78  CG        65.1480   78.8900    9.1050 C.3   310  PRO310      0.0208
     79  CD        65.7580   77.9880   10.1280 C.3   310  PRO310      0.0893
     80  N         67.6790   76.0590    7.5760 N.am  311  LEU311     -0.1980
     81  CA        68.7160   75.3710    6.8080 C.3   311  LEU311      0.1596
     82  C         68.5220   73.8750    6.8430 C.2   311  LEU311      0.2287
     83  O         68.8350   73.1700    5.8780 O.2   311  LEU311     -0.2864
     84  CB        70.1040   75.7120    7.3490 C.3   311  LEU311      0.0297
     85  CG        70.5160   77.1710    7.2230 C.3   311  LEU311      0.0022
     86  CD1       71.8470   77.3570    7.9320 C.3   311  LEU311      0.0001
     87  CD2       70.6180   77.5670    5.7520 C.3   311  LEU311      0.0001
     88  N         66.1470   73.0970    4.1200 N.3   314  GLN314     -0.1245
     89  CA        66.8530   73.2100    2.8470 C.3   314  GLN314      0.1566
     90  C         67.8160   72.0380    2.6310 C.2   314  GLN314      0.2260
     91  O         67.9730   71.5600    1.5080 O.2   314  GLN314     -0.2867
     92  CB        67.6020   74.5360    2.7760 C.3   314  GLN314      0.0367
     93  CG        66.7180   75.7630    2.9360 C.3   314  GLN314      0.0905
     94  CD        67.5260   77.0480    3.0100 C.2   314  GLN314      0.2608
     95  OE1       68.6710   77.0970    2.5630 O.2   314  GLN314     -0.2717
     96  NE2       66.9350   78.0930    3.5840 N.am  314  GLN314     -0.0878
@<TRIPOS>BOND
     1    91    90    2
     2    95    94    2
     3    90    89    1
     4    92    89    1
     5    92    93    1
     6    89    88    1
     7    93    94    1
     8    94    96   am
     9    87    85    1
    10    83    82    2
    11    76    75    2
    12    81    82    1
    13    81    84    1
    14    81    80    1
    15    75    80   am
    16    75    74    1
    17    85    84    1
    18    85    86    1
    19    47    46    2
    20    15    14    2
    21    77    74    1
    22    77    78    1
    23    46    45    1
    24    74    73    1
    25    14    13    1
    26    20    18   ar
    27    78    79    1
    28    18    17    1
    29    18    19   ar
    30    17    16    1
    31    45    48    1
    32    45    44    1
    33    48    49    1
    34    73    79    1
    35    36    35    2
    36    16    13    1
    37    13    12    1
    38    62    61    2
    39    44    35   am
    40    44    50    1
    41    35    34    1
    42    67    65   ar
    43    67    68   ar
    44    49    50    1
    45    65    64   ar
    46    70    68   ar
    47    70    72   ar
    48    37    34    1
    49    37    38    1
    50    68    66   ar
    51    10     9    1
    52    61    60    1
    53    54    53    2
    54    34    33    1
    55    11     9    1
    56    72    71   ar
    57    64    66   ar
    58    64    63    1
    59    60    63    1
    60    60    59    1
    61    66    69   ar
    62     9     8    2
    63     4     3    2
    64    38    40   ar
    65    38    39   ar
    66    53    59   am
    67    53    52    1
    68    40    42   ar
    69    71    69   ar
    70    39    41   ar
    71    21    22    1
    72     3     2    1
    73     8     7    1
    74     6     7    1
    75     6     5    1
    76    52    55    1
    77    52    51    1
    78    42    43   ar
    79    22    23    1
    80    22    25    1
    81    55    56    1
    82    32    31    1
    83    29    31   ar
    84    29    27   ar
    85    41    43   ar
    86    31    30   ar
    87    23    24    2
    88    27    26   ar
    89     2     5    1
    90     2     1    1
    91    30    28   ar
    92    26    28   ar
    93    26    25    1
    94    56    57   ar
    95    56    58   ar
