@<TRIPOS>MOLECULE
tmp/5fz9A02.pdb
 159 156 0 0 0
SMALL
GASTEIGER

@<TRIPOS>ATOM
      1  N         91.9900   52.5010   14.0560 N.3    63  ARG63      -0.1245
      2  CA        91.7920   52.5560   12.6140 C.3    63  ARG63       0.1563
      3  C         93.1110   52.9010   11.9190 C.2    63  ARG63       0.2260
      4  O         93.9220   53.6590   12.4600 O.2    63  ARG63      -0.2867
      5  CB        90.7140   53.5850   12.2650 C.3    63  ARG63       0.0307
      6  CG        89.3070   53.1150   12.6100 C.3    63  ARG63       0.0489
      7  CD        88.5250   54.1690   13.3780 C.3    63  ARG63       0.2205
      8  NE        87.3920   53.5870   14.0950 N.pl3  63  ARG63      -0.0865
      9  CZ        86.1190   53.7070   13.7230 C.cat  63  ARG63       0.5346
     10  NH1       85.8010   54.4090   12.6370 N.pl3  63  ARG63       0.1354
     11  NH2       85.1650   53.1340   14.4490 N.pl3  63  ARG63       0.1354
     12  N         84.0570   57.3130    5.4730 N.3    75  ARG75      -0.1231
     13  CA        83.9720   58.2840    6.5680 C.3    75  ARG75       0.1694
     14  C         83.8880   57.7700    8.0260 C.2    75  ARG75       0.2591
     15  O         84.6660   58.2260    8.8780 O.2    75  ARG75      -0.2718
     16  CB        82.7850   59.2150    6.3330 C.3    75  ARG75       0.0321
     17  CG        82.8970   60.4630    7.1870 C.3    75  ARG75       0.0489
     18  CD        81.9360   61.5610    6.7780 C.3    75  ARG75       0.2205
     19  NE        81.2460   62.1010    7.9460 N.pl3  75  ARG75      -0.0865
     20  CZ        80.1750   62.8830    7.8890 C.cat  75  ARG75       0.5346
     21  NH1       79.6730   63.2370    6.7130 N.pl3  75  ARG75       0.1354
     22  NH2       79.6180   63.3190    9.0110 N.pl3  75  ARG75       0.1354
     23  N         82.9490   56.8760    8.3380 N.am   76  VAL76      -0.1980
     24  CA        82.7350   56.4880    9.7450 C.3    76  VAL76       0.1595
     25  C         82.7320   54.9780    9.9980 C.2    76  VAL76       0.2287
     26  O         83.1850   54.1910    9.1620 O.2    76  VAL76      -0.2864
     27  CB        81.3940   57.0660   10.3080 C.3    76  VAL76       0.0276
     28  CG1       81.4200   58.5950   10.3710 C.3    76  VAL76       0.0022
     29  CG2       80.1970   56.5800    9.4920 C.3    76  VAL76       0.0022
     30  N         94.7350   55.7880   14.5350 N.3   128  TYR128     -0.1227
     31  CA        93.9970   56.7240   15.3910 C.3   128  TYR128      0.1736
     32  C         92.7610   56.0510   16.0010 C.2   128  TYR128      0.2596
     33  O         92.3870   54.9370   15.6200 O.2   128  TYR128     -0.2718
     34  CB        93.5750   57.9790   14.6010 C.3   128  TYR128      0.0548
     35  CG        92.5890   57.6770   13.4910 C.ar  128  TYR128     -0.0200
     36  CD1       93.0100   57.0940   12.2980 C.ar  128  TYR128     -0.0009
     37  CD2       91.2310   57.9410   13.6480 C.ar  128  TYR128     -0.0009
     38  CE1       92.1050   56.7960   11.2830 C.ar  128  TYR128      0.0417
     39  CE2       90.3240   57.6510   12.6410 C.ar  128  TYR128      0.0417
     40  CZ        90.7670   57.0770   11.4640 C.ar  128  TYR128      0.1957
     41  OH        89.8710   56.7790   10.4630 O.3   128  TYR128     -0.2866
     42  N         92.1320   56.7260   16.9540 N.am  129  GLY129     -0.1942
     43  CA        90.9030   56.2210   17.5410 C.3   129  GLY129      0.2014
     44  C         89.7440   57.1650   17.2910 C.2   129  GLY129      0.2638
     45  O         89.8910   58.3780   17.4150 O.2   129  GLY129     -0.2714
     46  N         88.5930   56.6080   16.9210 N.am  130  ALA130     -0.1977
     47  CA        87.3550   57.3740   16.7830 C.3   130  ALA130      0.1597
     48  C         86.1430   56.4940   17.1510 C.2   130  ALA130      0.2287
     49  O         85.9320   55.4650   16.5260 O.2   130  ALA130     -0.2864
     50  CB        87.2160   57.9220   15.3560 C.3   130  ALA130      0.0319
     51  N         81.4310   62.0010   20.4400 N.3   187  TRP187     -0.1241
     52  CA        82.4680   61.1070   19.9260 C.3   187  TRP187      0.1605
     53  C         83.8050   61.4530   20.5740 C.2   187  TRP187      0.2264
     54  O         84.0750   62.6280   20.8630 O.2   187  TRP187     -0.2867
     55  CB        82.6010   61.2190   18.4040 C.3   187  TRP187      0.0550
     56  CG        81.4680   60.6490   17.5990 C.ar  187  TRP187      0.0003
     57  CD1       80.1820   61.1090   17.5380 C.ar  187  TRP187      0.0946
     58  CD2       81.5440   59.5440   16.6840 C.ar  187  TRP187      0.0152
     59  NE1       79.4490   60.3420   16.6610 N.ar  187  TRP187     -0.2442
     60  CE2       80.2570   59.3780   16.1260 C.ar  187  TRP187      0.0810
     61  CE3       82.5710   58.6740   16.2940 C.ar  187  TRP187      0.0012
     62  CZ2       79.9710   58.3730   15.2000 C.ar  187  TRP187      0.0191
     63  CZ3       82.2850   57.6770   15.3750 C.ar  187  TRP187      0.0001
     64  CH2       80.9920   57.5350   14.8390 C.ar  187  TRP187      0.0015
     65  N         88.0400   61.1550   20.2420 N.3   189  TYR189     -0.1227
     66  CA        89.1200   61.0070   19.2470 C.3   189  TYR189      0.1736
     67  C         90.5260   60.9730   19.8610 C.2   189  TYR189      0.2595
     68  O         90.9390   61.9320   20.5190 O.2   189  TYR189     -0.2718
     69  CB        89.0540   62.1520   18.2380 C.3   189  TYR189      0.0548
     70  CG        87.7320   62.2710   17.4960 C.ar  189  TYR189     -0.0200
     71  CD1       87.4340   61.4350   16.4230 C.ar  189  TYR189     -0.0009
     72  CD2       86.7870   63.2200   17.8700 C.ar  189  TYR189     -0.0009
     73  CE1       86.2350   61.5450   15.7330 C.ar  189  TYR189      0.0417
     74  CE2       85.5810   63.3370   17.1840 C.ar  189  TYR189      0.0417
     75  CZ        85.3150   62.4970   16.1170 C.ar  189  TYR189      0.1957
     76  OH        84.1250   62.6120   15.4390 O.3   189  TYR189     -0.2866
     77  N         91.2540   59.8780   19.6350 N.am  190  VAL190     -0.1966
     78  CA        92.6470   59.7510   20.0680 C.3   190  VAL190      0.1727
     79  C         93.5960   59.9710   18.8670 C.2   190  VAL190      0.2616
     80  O         93.6300   59.1480   17.9430 O.2   190  VAL190     -0.2715
     81  CB        92.9150   58.3720   20.7070 C.3   190  VAL190      0.0290
     82  CG1       94.3490   58.2790   21.2300 C.3   190  VAL190      0.0023
     83  CG2       91.9490   58.1260   21.8470 C.3   190  VAL190      0.0023
     84  N         94.3360   61.0860   18.8630 N.am  191  GLY191     -0.1955
     85  CA        95.2050   61.4160   17.7290 C.3   191  GLY191      0.1869
     86  C         96.6980   61.0790   17.8810 C.2   191  GLY191      0.2309
     87  O         97.1800   60.8550   18.9960 O.2   191  GLY191     -0.2863
     88  N         97.7870   62.0950   11.8770 N.3   195  SER195     -0.1202
     89  CA        96.4620   61.4610   11.7280 C.3   195  SER195      0.2020
     90  C         95.4970   62.5800   11.3600 C.2   195  SER195      0.2619
     91  O         95.5740   63.6800   11.9140 O.2   195  SER195     -0.2717
     92  CB        96.0060   60.6860   12.9920 C.3   195  SER195      0.2103
     93  OG        95.6270   61.5400   14.0610 O.3   195  SER195     -0.2182
     94  N         94.6070   62.3280   10.4080 N.am  196  SER196     -0.1937
     95  CA        93.8770   63.4430    9.8380 C.3   196  SER196      0.2055
     96  C         92.3940   63.1710    9.6110 C.2   196  SER196      0.2643
     97  O         91.9490   62.0220    9.5050 O.2   196  SER196     -0.2714
     98  CB        94.5380   63.8610    8.5210 C.3   196  SER196      0.2130
     99  OG        94.8190   62.7290    7.7270 O.3   196  SER196     -0.2179
    100  N         91.6330   64.2550    9.5400 N.am  197  PHE197     -0.1973
    101  CA        90.1990   64.1710    9.2330 C.3   197  PHE197      0.1639
    102  C         89.9390   64.8480    7.8770 C.2   197  PHE197      0.2290
    103  O         90.3050   66.0110    7.6630 O.2   197  PHE197     -0.2864
    104  CB        89.3180   64.7510   10.3830 C.3   197  PHE197      0.0560
    105  CG        89.7570   66.0980   10.9370 C.ar  197  PHE197     -0.0200
    106  CD1       90.8660   66.1960   11.7860 C.ar  197  PHE197     -0.0042
    107  CD2       89.0000   67.2450   10.7010 C.ar  197  PHE197     -0.0042
    108  CE1       91.2590   67.4240   12.3310 C.ar  197  PHE197     -0.0003
    109  CE2       89.3750   68.4760   11.2480 C.ar  197  PHE197     -0.0003
    110  CZ        90.5160   68.5680   12.0640 C.ar  197  PHE197     -0.0000
    111  N         84.8280   67.5880    5.0090 N.3   200  HIS200     -0.1241
    112  CA        83.4140   67.1930    5.1180 C.3   200  HIS200      0.1621
    113  C         82.5560   68.2990    5.7290 C.2   200  HIS200      0.2264
    114  O         83.0680   69.3140    6.2250 O.2   200  HIS200     -0.2867
    115  CB        83.2770   65.9170    5.9600 C.3   200  HIS200      0.0745
    116  CG        83.3980   66.1700    7.4280 C.ar  200  HIS200      0.0817
    117  ND1       84.6160   66.3290    8.0550 N.ar  200  HIS200     -0.2268
    118  CD2       82.4550   66.3350    8.3870 C.ar  200  HIS200      0.1154
    119  CE1       84.4190   66.5640    9.3410 C.ar  200  HIS200      0.1986
    120  NE2       83.1160   66.5820    9.5650 N.ar  200  HIS200     -0.2212
    121  N         83.9750   71.0950   19.2860 N.3   210  ASN210     -0.1240
    122  CA        85.0910   70.1620   19.5770 C.3   210  ASN210      0.1653
    123  C         85.9100   70.7050   20.7510 C.2   210  ASN210      0.2266
    124  O         86.2790   71.8860   20.7740 O.2   210  ASN210     -0.2867
    125  CB        86.0070   69.9620   18.3260 C.3   210  ASN210      0.1155
    126  CG        87.1480   68.8930   18.5310 C.2   210  ASN210      0.2627
    127  OD1       88.0890   69.0840   19.3300 O.2   210  ASN210     -0.2716
    128  ND2       87.0880   67.8000   17.7440 N.am  210  ASN210     -0.0877
    129  N         95.8020   70.4340   17.6000 N.3   218  LYS218     -0.1245
    130  CA        95.0550   69.9510   16.4290 C.3   218  LYS218      0.1561
    131  C         94.9680   71.1030   15.4340 C.2   218  LYS218      0.2260
    132  O         94.5110   72.1890   15.7760 O.2   218  LYS218     -0.2867
    133  CB        93.6450   69.4470   16.8350 C.3   218  LYS218      0.0271
    134  CG        92.8710   68.7080   15.7140 C.3   218  LYS218      0.0035
    135  CD        91.3990   68.3970   16.0900 C.3   218  LYS218      0.0206
    136  CE        91.3000   67.4970   17.3210 C.3   218  LYS218      0.1093
    137  NZ        91.7970   66.0950   17.1090 N.3   218  LYS218     -0.1314
    138  N         93.4670   72.9970   12.1350 N.3   220  TRP220     -0.1241
    139  CA        92.1700   73.0310   11.4250 C.3   220  TRP220      0.1605
    140  C         92.2080   73.8870   10.1660 C.2   220  TRP220      0.2264
    141  O         92.8470   74.9430   10.1630 O.2   220  TRP220     -0.2867
    142  CB        91.0500   73.6010   12.3340 C.3   220  TRP220      0.0550
    143  CG        90.6040   72.7240   13.4860 C.ar  220  TRP220      0.0003
    144  CD1       91.2810   72.4830   14.6520 C.ar  220  TRP220      0.0946
    145  CD2       89.3520   72.0230   13.5950 C.ar  220  TRP220      0.0152
    146  NE1       90.5450   71.6440   15.4660 N.ar  220  TRP220     -0.2442
    147  CE2       89.3500   71.3610   14.8500 C.ar  220  TRP220      0.0810
    148  CE3       88.2360   71.8850   12.7490 C.ar  220  TRP220      0.0012
    149  CZ2       88.2700   70.5600   15.2890 C.ar  220  TRP220      0.0191
    150  CZ3       87.1470   71.0900   13.1890 C.ar  220  TRP220      0.0001
    151  CH2       87.1820   70.4390   14.4480 C.ar  220  TRP220      0.0015
    152  N         96.3580   66.0860   13.3290 N.3   292  ASN292     -0.1240
    153  CA        96.9560   66.2390   14.6430 C.3   292  ASN292      0.1653
    154  C         98.4890   66.4290   14.5880 C.2   292  ASN292      0.2266
    155  O         99.1750   65.8300   13.7480 O.2   292  ASN292     -0.2867
    156  CB        96.5720   65.0290   15.4920 C.3   292  ASN292      0.1155
    157  CG        95.0580   64.9480   15.7020 C.2   292  ASN292      0.2627
    158  OD1       94.4670   65.8440   16.3190 O.2   292  ASN292     -0.2716
    159  ND2       94.4250   63.9220   15.1410 N.am  292  ASN292     -0.0877
@<TRIPOS>BOND
     1   111   112    1
     2   112   113    1
     3   112   115    1
     4    12    13    1
     5   113   114    2
     6   115   116    1
     7    16    13    1
     8    16    17    1
     9    13    14    1
    10    21    20    1
    11    18    17    1
    12    18    19    1
    13   116   117   ar
    14   116   118   ar
    15   103   102    2
    16    99    98    1
    17   102   101    1
    18    20    19    2
    19    20    22    1
    20    14    23   am
    21    14    15    2
    22   117   119   ar
    23    23    24    1
    24   118   120   ar
    25    98    95    1
    26    26    25    2
    27   101   100    1
    28   101   104    1
    29   119   120   ar
    30    29    27    1
    31    97    96    2
    32   100    96   am
    33    96    95    1
    34    24    25    1
    35    24    27    1
    36    95    94    1
    37   141   140    2
    38   140   139    1
    39    27    28    1
    40   104   105    1
    41    94    90   am
    42    41    40    1
    43   107   105   ar
    44   107   109   ar
    45   105   106   ar
    46   109   110   ar
    47    38    40   ar
    48    38    36   ar
    49    90    89    1
    50    90    91    2
    51   139   138    1
    52   139   142    1
    53    40    39   ar
    54    89    88    1
    55    89    92    1
    56   106   108   ar
    57     3     4    2
    58     3     2    1
    59   110   108   ar
    60     5     6    1
    61     5     2    1
    62    36    35   ar
    63   142   143    1
    64     6     7    1
    65     2     1    1
    66    10     9    1
    67    39    37   ar
    68   148   150   ar
    69   148   145   ar
    70    92    93    1
    71   150   151   ar
    72   152   153    1
    73     7     8    1
    74   143   145   ar
    75   143   144   ar
    76    35    37   ar
    77    35    34    1
    78   145   147   ar
    79     9     8    2
    80     9    11    1
    81   155   154    2
    82   151   149   ar
    83    30    31    1
    84   154   153    1
    85    34    31    1
    86   153   156    1
    87   144   146   ar
    88    64    62   ar
    89    64    63   ar
    90   147   149   ar
    91   147   146   ar
    92   159   157   am
    93    62    60   ar
    94    50    47    1
    95    63    61   ar
    96    31    32    1
    97   131   132    2
    98   131   130    1
    99    76    75    1
   100   156   157    1
   101    33    32    2
   102   157   158    2
   103   134   135    1
   104   134   133    1
   105    73    75   ar
   106    73    71   ar
   107    32    42   am
   108   135   136    1
   109    75    74   ar
   110    60    59   ar
   111    60    58   ar
   112    61    58   ar
   113    71    70   ar
   114   130   133    1
   115   130   129    1
   116    49    48    2
   117    59    57   ar
   118    58    56   ar
   119    47    46    1
   120    47    48    1
   121    46    44   am
   122    42    43    1
   123   137   136    1
   124    74    72   ar
   125    44    45    2
   126    44    43    1
   127    70    72   ar
   128    70    69    1
   129    57    56   ar
   130    56    55    1
   131    85    86    1
   132    85    84    1
   133   128   126   am
   134    86    87    2
   135    80    79    2
   136    69    66    1
   137   125   126    1
   138   125   122    1
   139    55    52    1
   140   126   127    2
   141    84    79   am
   142    79    78    1
   143    66    67    1
   144    66    65    1
   145   121   122    1
   146   122   123    1
   147    77    67   am
   148    77    78    1
   149    67    68    2
   150    52    51    1
   151    52    53    1
   152    78    81    1
   153    53    54    2
   154    81    82    1
   155    81    83    1
   156   123   124    2
