@<TRIPOS>MOLECULE
tmp/5fzaA00.pdb
 100 94 0 0 0
SMALL
GASTEIGER

@<TRIPOS>ATOM
      1  N         52.7110   72.0410    5.9240 N.3   359  ILE359     -0.1245
      2  CA        51.2970   71.8500    5.6350 C.3   359  ILE359      0.1561
      3  C         50.9670   72.3640    4.2370 C.2   359  ILE359      0.2260
      4  O         50.3230   71.6690    3.4580 O.2   359  ILE359     -0.2867
      5  CB        50.4200   72.5440    6.7040 C.3   359  ILE359      0.0252
      6  CG1       50.5360   71.7970    8.0360 C.3   359  ILE359      0.0019
      7  CG2       48.9610   72.6260    6.2600 C.3   359  ILE359      0.0019
      8  CD1       49.9100   72.5460    9.2010 C.3   359  ILE359      0.0001
      9  N         52.3110   69.9990    1.7210 N.3   362  GLU362     -0.1231
     10  CA        51.6380   68.7060    1.7500 C.3   362  GLU362      0.1699
     11  C         50.3010   68.8390    1.0310 C.2   362  GLU362      0.2592
     12  O         49.8790   67.9450    0.3020 O.2   362  GLU362     -0.2718
     13  CB        51.4380   68.2180    3.1850 C.3   362  GLU362      0.0402
     14  CG        50.7040   66.8610    3.3200 C.3   362  GLU362      0.1161
     15  CD        51.4810   65.6690    2.7660 C.2   362  GLU362      0.3649
     16  OE1       52.6780   65.8110    2.4510 O.co2 362  GLU362     -0.2457
     17  OE2       50.8960   64.5700    2.6580 O.co2 362  GLU362     -0.2457
     18  N         49.6570   69.9810    1.2210 N.am  363  LYS363     -0.1980
     19  CA        48.4000   70.2480    0.5470 C.3   363  LYS363      0.1596
     20  C         48.5840   70.1930   -0.9580 C.2   363  LYS363      0.2287
     21  O         47.8010   69.5540   -1.6670 O.2   363  LYS363     -0.2864
     22  CB        47.8400   71.6010    0.9770 C.3   363  LYS363      0.0298
     23  CG        46.4310   71.8590    0.4810 C.3   363  LYS363      0.0038
     24  CD        45.9180   73.2020    0.9770 C.3   363  LYS363      0.0206
     25  CE        46.3430   73.4360    2.4150 C.3   363  LYS363      0.1093
     26  NZ        45.3320   74.2050    3.2040 N.3   363  LYS363     -0.1314
     27  N         49.1860   66.5740   -2.1440 N.3   366  ARG366     -0.1231
     28  CA        48.0040   65.7130   -2.1070 C.3   366  ARG366      0.1694
     29  C         47.0480   66.0730   -3.2390 C.2   366  ARG366      0.2591
     30  O         46.4500   65.1940   -3.8510 O.2   366  ARG366     -0.2718
     31  CB        47.3110   65.8010   -0.7500 C.3   366  ARG366      0.0321
     32  CG        48.0310   64.9150    0.2950 C.3   366  ARG366      0.0489
     33  CD        47.2460   64.6980    1.5660 C.3   366  ARG366      0.2205
     34  NE        48.1480   64.4760    2.6990 N.pl3 366  ARG366     -0.0865
     35  CZ        47.7530   64.1520    3.9180 C.cat 366  ARG366      0.5346
     36  NH1       46.4570   63.9730    4.1640 N.pl3 366  ARG366      0.1354
     37  NH2       48.6490   63.9910    4.8900 N.pl3 366  ARG366      0.1354
     38  N         46.9410   67.3600   -3.5440 N.am  367  GLU367     -0.1979
     39  CA        46.1210   67.7810   -4.6730 C.3   367  GLU367      0.1602
     40  C         46.6740   67.2100   -5.9740 C.2   367  GLU367      0.2287
     41  O         45.9170   66.7110   -6.8210 O.2   367  GLU367     -0.2864
     42  CB        46.0380   69.3110   -4.7370 C.3   367  GLU367      0.0415
     43  CG        45.2480   69.9220   -3.5780 C.3   367  GLU367      0.1163
     44  CD        45.0920   71.4330   -3.6930 C.2   367  GLU367      0.3649
     45  OE1       45.4190   71.9850   -4.7700 O.co2 367  GLU367     -0.2457
     46  OE2       44.6350   72.0650   -2.7090 O.co2 367  GLU367     -0.2457
     47  N         45.9170   63.4390   -6.2500 N.3   370  ARG370     -0.1245
     48  CA        44.4850   63.2790   -6.5460 C.3   370  ARG370      0.1563
     49  C         44.2130   63.4880   -8.0450 C.2   370  ARG370      0.2260
     50  O         43.4990   62.7120   -8.6810 O.2   370  ARG370     -0.2867
     51  CB        43.6420   64.2590   -5.7190 C.3   370  ARG370      0.0307
     52  CG        42.1150   64.1610   -5.9910 C.3   370  ARG370      0.0489
     53  CD        41.6260   62.7230   -5.8020 C.3   370  ARG370      0.2205
     54  NE        40.2210   62.5560   -6.1600 N.pl3 370  ARG370     -0.0865
     55  CZ        39.7960   62.2630   -7.3860 C.cat 370  ARG370      0.5346
     56  NH1       40.6700   62.1090   -8.3790 N.pl3 370  ARG370      0.1354
     57  NH2       38.4950   62.1340   -7.6240 N.pl3 370  ARG370      0.1354
     58  N         54.4380   62.0060    6.3740 N.3   401  MET401     -0.1245
     59  CA        53.1700   62.7080    6.1400 C.3   401  MET401      0.1570
     60  C         52.2650   61.8520    5.2660 C.2   401  MET401      0.2261
     61  O         51.0740   61.7020    5.5490 O.2   401  MET401     -0.2867
     62  CB        53.3930   64.0870    5.5020 C.3   401  MET401      0.0387
     63  CG        53.9320   65.1110    6.4950 C.3   401  MET401      0.0595
     64  SD        52.7640   65.5060    7.8410 S.3   401  MET401     -0.1393
     65  CE        51.7120   66.4950    6.8510 C.3   401  MET401      0.0692
     66  N         47.9930   62.3000    8.7990 N.3   436  TYR436     -0.1227
     67  CA        47.0590   63.2980    9.3200 C.3   436  TYR436      0.1736
     68  C         46.1470   63.8330    8.2390 C.2   436  TYR436      0.2596
     69  O         46.5710   63.9390    7.0920 O.2   436  TYR436     -0.2718
     70  CB        47.8080   64.4900    9.9060 C.3   436  TYR436      0.0548
     71  CG        48.7110   64.1760   11.0500 C.ar  436  TYR436     -0.0200
     72  CD1       48.1870   63.7770   12.2820 C.ar  436  TYR436     -0.0009
     73  CD2       50.0940   64.3040   10.9170 C.ar  436  TYR436     -0.0009
     74  CE1       49.0100   63.4890   13.3470 C.ar  436  TYR436      0.0417
     75  CE2       50.9360   64.0280   11.9890 C.ar  436  TYR436      0.0417
     76  CZ        50.3890   63.6250   13.1960 C.ar  436  TYR436      0.1957
     77  OH        51.2120   63.3410   14.2570 O.3   436  TYR436     -0.2866
     78  N         44.9180   64.2040    8.6070 N.am  437  THR437     -0.1939
     79  CA        44.1060   65.0960    7.7760 C.3   437  THR437      0.2028
     80  C         44.4680   66.5300    8.1430 C.2   437  THR437      0.2642
     81  O         45.1160   66.7540    9.1580 O.2   437  THR437     -0.2714
     82  CB        42.5910   64.9140    8.0160 C.3   437  THR437      0.1808
     83  OG1       42.3040   65.3080    9.3610 O.3   437  THR437     -0.2208
     84  CG2       42.1660   63.4550    7.8100 C.3   437  THR437      0.0379
     85  N         44.0140   67.5070    7.3620 N.am  438  LEU438     -0.1977
     86  CA        44.1690   68.9100    7.7620 C.3   438  LEU438      0.1596
     87  C         43.5850   69.1960    9.1370 C.2   438  LEU438      0.2287
     88  O         44.1750   69.9280    9.9310 O.2   438  LEU438     -0.2864
     89  CB        43.5140   69.8330    6.7480 C.3   438  LEU438      0.0297
     90  CG        44.3350   70.0800    5.4910 C.3   438  LEU438      0.0022
     91  CD1       43.4740   70.7850    4.4560 C.3   438  LEU438      0.0001
     92  CD2       45.5730   70.8990    5.8320 C.3   438  LEU438      0.0001
     93  N         45.7200   68.5010   12.0570 N.3   441  LEU441     -0.1245
     94  CA        46.9170   69.3310   12.1780 C.3   441  LEU441      0.1561
     95  C         46.6490   70.7050   12.8060 C.2   441  LEU441      0.2260
     96  O         47.4640   71.2180   13.5750 O.2   441  LEU441     -0.2867
     97  CB        47.5790   69.4860   10.8060 C.3   441  LEU441      0.0270
     98  CG        48.3840   68.2510   10.3530 C.3   441  LEU441      0.0019
     99  CD1       49.3300   68.5730    9.2400 C.3   441  LEU441      0.0001
    100  CD2       49.1600   67.6610   11.5210 C.3   441  LEU441      0.0001
@<TRIPOS>BOND
     1    50    49    2
     2    56    55    1
     3    49    48    1
     4    57    55    1
     5    55    54    2
     6    41    40    2
     7    48    47    1
     8    48    51    1
     9    54    53    1
    10    52    53    1
    11    52    51    1
    12    40    39    1
    13    45    44   ar
    14    42    39    1
    15    42    43    1
    16    39    38    1
    17    30    29    2
    18    44    43    1
    19    44    46   ar
    20    38    29   am
    21    29    28    1
    22    27    28    1
    23    28    31    1
    24    21    20    2
    25    20    19    1
    26    31    32    1
    27    32    33    1
    28    12    11    2
    29    23    22    1
    30    23    24    1
    31    19    22    1
    32    19    18    1
    33    24    25    1
    34    11    18   am
    35    11    10    1
    36    33    34    1
    37     9    10    1
    38    10    13    1
    39    25    26    1
    40    16    15   ar
    41    17    15   ar
    42    34    35    2
    43    15    14    1
    44    13    14    1
    45     4     3    2
    46    35    36    1
    47    35    37    1
    48     3     2    1
    49    91    90    1
    50    60    61    2
    51    60    59    1
    52    90    92    1
    53    90    89    1
    54    62    59    1
    55    62    63    1
    56     2     1    1
    57     2     5    1
    58    59    58    1
    59     7     5    1
    60    63    64    1
    61     5     6    1
    62    89    86    1
    63    65    64    1
    64    69    68    2
    65    85    86    1
    66    85    80   am
    67    86    87    1
    68    79    82    1
    69    79    80    1
    70    79    78    1
    71    84    82    1
    72    82    83    1
    73     6     8    1
    74    80    81    2
    75    68    78   am
    76    68    67    1
    77    66    67    1
    78    87    88    2
    79    99    98    1
    80    67    70    1
    81    70    71    1
    82    98    97    1
    83    98   100    1
    84    97    94    1
    85    73    71   ar
    86    73    75   ar
    87    71    72   ar
    88    75    76   ar
    89    93    94    1
    90    94    95    1
    91    72    74   ar
    92    95    96    2
    93    76    74   ar
    94    76    77    1
