@<TRIPOS>MOLECULE
tmp/5fzbA01.pdb
 147 140 0 0 0
SMALL
GASTEIGER

@<TRIPOS>ATOM
      1  N         83.9490   57.5220    5.4060 N.3    75  ARG75      -0.1231
      2  CA        83.6170   58.0640    6.7330 C.3    75  ARG75       0.1694
      3  C         83.3920   56.9410    7.7500 C.2    75  ARG75       0.2591
      4  O         82.8750   55.8730    7.4130 O.2    75  ARG75      -0.2718
      5  CB        82.3690   58.9600    6.6740 C.3    75  ARG75       0.0321
      6  CG        82.5770   60.3190    6.0140 C.3    75  ARG75       0.0489
      7  CD        81.3260   61.2170    6.1130 C.3    75  ARG75       0.2205
      8  NE        81.1370   61.8100    7.4430 N.pl3  75  ARG75      -0.0865
      9  CZ        80.0810   62.5440    7.8060 C.cat  75  ARG75       0.5346
     10  NH1       79.0970   62.7850    6.9430 N.pl3  75  ARG75       0.1354
     11  NH2       80.0040   63.0380    9.0380 N.pl3  75  ARG75       0.1354
     12  N         83.7760   57.1940    8.9970 N.am   76  LEU76      -0.1980
     13  CA        83.7190   56.1800   10.0570 C.3    76  LEU76       0.1596
     14  C         82.2970   55.8300   10.4840 C.2    76  LEU76       0.2287
     15  O         81.3620   56.6140   10.2850 O.2    76  LEU76      -0.2864
     16  CB        84.5150   56.6610   11.2720 C.3    76  LEU76       0.0297
     17  CG        85.7960   57.3580   10.8170 C.3    76  LEU76       0.0022
     18  CD1       86.4180   58.1600   11.9460 C.3    76  LEU76       0.0001
     19  CD2       86.7750   56.3440   10.2300 C.3    76  LEU76       0.0001
     20  N         94.6570   55.6600   14.4720 N.3   128  TYR128     -0.1227
     21  CA        93.9060   56.5990   15.3110 C.3   128  TYR128      0.1736
     22  C         92.6900   55.9370   15.9480 C.2   128  TYR128      0.2596
     23  O         92.3130   54.8140   15.5930 O.2   128  TYR128     -0.2718
     24  CB        93.4480   57.8190   14.5010 C.3   128  TYR128      0.0548
     25  CG        92.5010   57.4700   13.3680 C.ar  128  TYR128     -0.0200
     26  CD1       92.9770   56.8990   12.1890 C.ar  128  TYR128     -0.0009
     27  CD2       91.1300   57.6980   13.4790 C.ar  128  TYR128     -0.0009
     28  CE1       92.1150   56.5710   11.1510 C.ar  128  TYR128      0.0417
     29  CE2       90.2640   57.3760   12.4400 C.ar  128  TYR128      0.0417
     30  CZ        90.7640   56.8080   11.2840 C.ar  128  TYR128      0.1957
     31  OH        89.9150   56.4780   10.2530 O.3   128  TYR128     -0.2866
     32  N         92.0790   56.6420   16.8930 N.am  129  GLY129     -0.1957
     33  CA        90.8640   56.1670   17.5240 C.3   129  GLY129      0.1869
     34  C         89.6980   57.0860   17.2220 C.2   129  GLY129      0.2309
     35  O         89.8290   58.3160   17.2610 O.2   129  GLY129     -0.2863
     36  N         87.9490   61.0570   20.1590 N.3   189  TYR189     -0.1241
     37  CA        89.0260   60.9320   19.1560 C.3   189  TYR189      0.1605
     38  C         90.4370   60.9030   19.7520 C.2   189  TYR189      0.2264
     39  O         90.8640   61.8720   20.3920 O.2   189  TYR189     -0.2867
     40  CB        88.9450   62.0850   18.1590 C.3   189  TYR189      0.0534
     41  CG        87.6550   62.1680   17.3540 C.ar  189  TYR189     -0.0201
     42  CD1       87.3830   61.2530   16.3340 C.ar  189  TYR189     -0.0009
     43  CD2       86.7240   63.1800   17.5930 C.ar  189  TYR189     -0.0009
     44  CE1       86.2150   61.3370   15.5760 C.ar  189  TYR189      0.0417
     45  CE2       85.5530   63.2700   16.8420 C.ar  189  TYR189      0.0417
     46  CZ        85.3070   62.3460   15.8350 C.ar  189  TYR189      0.1957
     47  OH        84.1540   62.4330   15.0930 O.3   189  TYR189     -0.2866
     48  N         94.2320   61.0090   18.7450 N.3   191  GLY191     -0.1225
     49  CA        95.1160   61.3330   17.6220 C.3   191  GLY191      0.1811
     50  C         96.6060   61.0060   17.7870 C.2   191  GLY191      0.2280
     51  O         97.0930   60.7650   18.9020 O.2   191  GLY191     -0.2866
     52  N         94.4420   62.2210   10.4390 N.3   196  SER196     -0.1202
     53  CA        93.7930   63.2530    9.6540 C.3   196  SER196      0.2020
     54  C         92.2740   63.0620    9.5010 C.2   196  SER196      0.2618
     55  O         91.8030   61.9360    9.3990 O.2   196  SER196     -0.2717
     56  CB        94.4580   63.2780    8.2700 C.3   196  SER196      0.2103
     57  OG        94.0650   64.4180    7.5330 O.3   196  SER196     -0.2182
     58  N         91.5060   64.1500    9.4530 N.am  197  PHE197     -0.1975
     59  CA        90.0930   64.0160    9.0720 C.3   197  PHE197      0.1639
     60  C         89.8190   64.7480    7.7470 C.2   197  PHE197      0.2290
     61  O         90.2070   65.9150    7.5690 O.2   197  PHE197     -0.2864
     62  CB        89.1460   64.4840   10.2100 C.3   197  PHE197      0.0560
     63  CG        89.4150   65.8780   10.7440 C.ar  197  PHE197     -0.0200
     64  CD1       90.4140   66.0990   11.6930 C.ar  197  PHE197     -0.0042
     65  CD2       88.6190   66.9500   10.3580 C.ar  197  PHE197     -0.0042
     66  CE1       90.6610   67.3790   12.2050 C.ar  197  PHE197     -0.0003
     67  CE2       88.8410   68.2220   10.8760 C.ar  197  PHE197     -0.0003
     68  CZ        89.8740   68.4380   11.7990 C.ar  197  PHE197     -0.0000
     69  N         84.6590   67.5350    4.9210 N.3   200  HIS200     -0.1241
     70  CA        83.2470   67.1310    5.0180 C.3   200  HIS200      0.1621
     71  C         82.4240   68.2290    5.6670 C.2   200  HIS200      0.2264
     72  O         82.9700   69.1920    6.1950 O.2   200  HIS200     -0.2867
     73  CB        83.1120   65.8410    5.8360 C.3   200  HIS200      0.0745
     74  CG        83.3220   66.0650    7.2960 C.ar  200  HIS200      0.0817
     75  ND1       84.5690   66.3150    7.8300 N.ar  200  HIS200     -0.2268
     76  CD2       82.4480   66.1350    8.3270 C.ar  200  HIS200      0.1154
     77  CE1       84.4560   66.5140    9.1320 C.ar  200  HIS200      0.1986
     78  NE2       83.1780   66.4050    9.4590 N.ar  200  HIS200     -0.2212
     79  N         78.6800   68.4360    8.3130 N.3   202  GLU202     -0.1245
     80  CA        77.9150   67.5710    9.2210 C.3   202  GLU202      0.1567
     81  C         76.5810   67.1620    8.6120 C.2   202  GLU202      0.2260
     82  O         75.9970   67.9150    7.8270 O.2   202  GLU202     -0.2867
     83  CB        77.6630   68.2670   10.5570 C.3   202  GLU202      0.0388
     84  CG        78.9080   68.8280   11.2000 C.3   202  GLU202      0.1160
     85  CD        79.9690   67.7800   11.4270 C.2   202  GLU202      0.3649
     86  OE1       79.6500   66.6910   11.9560 O.co2 202  GLU202     -0.2457
     87  OE2       81.1280   68.0430   11.0420 O.co2 202  GLU202     -0.2457
     88  N         78.7450   71.8050   14.8500 N.3   208  SER208     -0.1217
     89  CA        79.4570   70.9180   15.7670 C.3   208  SER208      0.1889
     90  C         80.4070   71.7330   16.6660 C.2   208  SER208      0.2288
     91  O         80.6980   72.8890   16.3860 O.2   208  SER208     -0.2866
     92  CB        80.2350   69.8370   15.0270 C.3   208  SER208      0.2089
     93  OG        81.3320   70.4000   14.3460 O.3   208  SER208     -0.2183
     94  N         83.9440   71.0060   19.3050 N.3   210  ASN210     -0.1240
     95  CA        85.0280   70.0490   19.5510 C.3   210  ASN210      0.1653
     96  C         85.9010   70.5770   20.6860 C.2   210  ASN210      0.2266
     97  O         86.3600   71.7380   20.6470 O.2   210  ASN210     -0.2867
     98  CB        85.8590   69.8430   18.2520 C.3   210  ASN210      0.1155
     99  CG        87.0120   68.8060   18.4120 C.2   210  ASN210      0.2627
    100  OD1       87.9590   69.0080   19.2000 O.2   210  ASN210     -0.2716
    101  ND2       86.9500   67.7140   17.6240 N.am  210  ASN210     -0.0877
    102  N         95.8410   70.3980   17.4330 N.3   218  LYS218     -0.1245
    103  CA        95.0810   69.8820   16.3030 C.3   218  LYS218      0.1561
    104  C         94.9450   71.0190   15.3060 C.2   218  LYS218      0.2260
    105  O         94.4640   72.0890   15.6640 O.2   218  LYS218     -0.2867
    106  CB        93.6970   69.3690   16.7530 C.3   218  LYS218      0.0271
    107  CG        92.8880   68.6650   15.6470 C.3   218  LYS218      0.0035
    108  CD        91.4390   68.3690   16.0470 C.3   218  LYS218      0.0206
    109  CE        91.3250   67.5120   17.3150 C.3   218  LYS218      0.1093
    110  NZ        91.7900   66.0960   17.1550 N.3   218  LYS218     -0.1314
    111  N         93.3610   72.8790   12.0120 N.3   220  TRP220     -0.1241
    112  CA        92.0600   72.9020   11.3320 C.3   220  TRP220      0.1605
    113  C         92.0860   73.7690   10.0890 C.2   220  TRP220      0.2264
    114  O         92.7740   74.8050   10.0650 O.2   220  TRP220     -0.2867
    115  CB        90.9520   73.4650   12.2470 C.3   220  TRP220      0.0550
    116  CG        90.5240   72.6030   13.4040 C.ar  220  TRP220      0.0003
    117  CD1       91.2180   72.3720   14.5540 C.ar  220  TRP220      0.0946
    118  CD2       89.2710   71.9080   13.5430 C.ar  220  TRP220      0.0152
    119  NE1       90.4970   71.5470   15.3910 N.ar  220  TRP220     -0.2442
    120  CE2       89.2950   71.2530   14.7990 C.ar  220  TRP220      0.0810
    121  CE3       88.1310   71.7730   12.7210 C.ar  220  TRP220      0.0012
    122  CZ2       88.2210   70.4610   15.2660 C.ar  220  TRP220      0.0191
    123  CZ3       87.0630   70.9870   13.1800 C.ar  220  TRP220      0.0001
    124  CH2       87.1190   70.3400   14.4470 C.ar  220  TRP220      0.0015
    125  N         85.1060   71.4090    6.5140 N.3   288  HIS288     -0.1241
    126  CA        86.3270   71.4380    7.3150 C.3   288  HIS288      0.1621
    127  C         87.1130   70.1370    7.2240 C.2   288  HIS288      0.2264
    128  O         86.5660   69.0910    6.8670 O.2   288  HIS288     -0.2867
    129  CB        86.0270   71.7600    8.8020 C.3   288  HIS288      0.0745
    130  CG        85.0450   70.8260    9.4530 C.ar  288  HIS288      0.0817
    131  ND1       83.6860   70.9260    9.2650 N.ar  288  HIS288     -0.2268
    132  CD2       85.2360   69.7910   10.3140 C.ar  288  HIS288      0.1154
    133  CE1       83.0730   69.9830    9.9710 C.ar  288  HIS288      0.1986
    134  NE2       83.9870   69.2860   10.6120 N.ar  288  HIS288     -0.2212
    135  N         96.2980   65.9850   13.2690 N.3   292  ASN292     -0.1240
    136  CA        96.9160   66.1310   14.5710 C.3   292  ASN292      0.1653
    137  C         98.4370   66.3480   14.4930 C.2   292  ASN292      0.2266
    138  O         99.1240   65.7850   13.6220 O.2   292  ASN292     -0.2867
    139  CB        96.5730   64.9060   15.3990 C.3   292  ASN292      0.1155
    140  CG        95.0650   64.7920   15.6230 C.2   292  ASN292      0.2627
    141  OD1       94.4550   65.6990   16.1930 O.2   292  ASN292     -0.2716
    142  ND2       94.4540   63.7240   15.1050 N.am  292  ASN292     -0.0877
    143  N         90.4840   64.2400   22.0220 N.3   298  ALA298     -0.1245
    144  CA        89.4370   65.2200   21.7820 C.3   298  ALA298      0.1562
    145  C         88.0650   64.5740   21.9160 C.2   298  ALA298      0.2260
    146  O         87.9370   63.3400   21.8740 O.2   298  ALA298     -0.2867
    147  CB        89.5940   65.8570   20.3930 C.3   298  ALA298      0.0290
@<TRIPOS>BOND
     1    69    70    1
     2    70    71    1
     3    70    73    1
     4     1     2    1
     5    71    72    2
     6    73    74    1
     7     6     7    1
     8     6     5    1
     9     7     8    1
    10   125   126    1
    11     5     2    1
    12     2     3    1
    13   128   127    2
    14    10     9    1
    15   127   126    1
    16    74    75   ar
    17    74    76   ar
    18   126   129    1
    19     4     3    2
    20     8     9    2
    21    57    56    1
    22    61    60    2
    23    60    59    1
    24     3    12   am
    25     9    11    1
    26    82    81    2
    27    75    77   ar
    28    56    53    1
    29    79    80    1
    30    76    78   ar
    31    81    80    1
    32   129   130    1
    33    12    13    1
    34    59    58    1
    35    59    62    1
    36    77    78   ar
    37    80    83    1
    38   131   130   ar
    39   131   133   ar
    40    55    54    2
    41    58    54   am
    42   130   132   ar
    43    54    53    1
    44    53    52    1
    45   133   134   ar
    46    13    14    1
    47    13    16    1
    48   114   113    2
    49   113   112    1
    50    62    63    1
    51    19    17    1
    52    31    30    1
    53    15    14    2
    54   132   134   ar
    55    65    63   ar
    56    65    67   ar
    57    83    84    1
    58    63    64   ar
    59    17    16    1
    60    17    18    1
    61    67    68   ar
    62    87    85   ar
    63    28    30   ar
    64    28    26   ar
    65    84    85    1
    66    30    29   ar
    67   112   111    1
    68   112   115    1
    69    85    86   ar
    70    64    66   ar
    71    68    66   ar
    72    26    25   ar
    73   115   116    1
    74    29    27   ar
    75   121   123   ar
    76   121   118   ar
    77   123   124   ar
    78   135   136    1
    79    25    27   ar
    80    25    24    1
    81   116   118   ar
    82   116   117   ar
    83   118   120   ar
    84   138   137    2
    85    93    92    1
    86   124   122   ar
    87    20    21    1
    88   137   136    1
    89    24    21    1
    90   117   119   ar
    91   136   139    1
    92   120   122   ar
    93   120   119   ar
    94    88    89    1
    95    92    89    1
    96    47    46    1
    97   142   140   am
    98   104   105    2
    99   104   103    1
   100    21    22    1
   101   139   140    1
   102    44    46   ar
   103    44    42   ar
   104    23    22    2
   105   140   141    2
   106   107   108    1
   107   107   106    1
   108    89    90    1
   109    46    45   ar
   110    22    32   am
   111   108   109    1
   112   103   106    1
   113   103   102    1
   114    42    41   ar
   115    91    90    2
   116    45    43   ar
   117    32    33    1
   118   110   109    1
   119    34    35    2
   120    34    33    1
   121    41    43   ar
   122    41    40    1
   123    49    50    1
   124    49    48    1
   125   101    99   am
   126    50    51    2
   127    40    37    1
   128    98    99    1
   129    98    95    1
   130    99   100    2
   131    37    38    1
   132    37    36    1
   133    94    95    1
   134    95    96    1
   135    38    39    2
   136   147   144    1
   137    97    96    2
   138   144   145    1
   139   144   143    1
   140   146   145    2
