@<TRIPOS>MOLECULE
tmp/5fzeA00.pdb
 200 193 0 0 0
SMALL
GASTEIGER

@<TRIPOS>ATOM
      1  N         90.4970   52.1330   13.8200 N.3    63  ARG63      -0.1245
      2  CA        90.2710   52.1540   12.3930 C.3    63  ARG63       0.1563
      3  C         91.5840   52.5010   11.7170 C.2    63  ARG63       0.2260
      4  O         92.4350   53.1720   12.2950 O.2    63  ARG63      -0.2867
      5  CB        89.1790   53.1590   12.0480 C.3    63  ARG63       0.0307
      6  CG        87.8380   52.7450   12.6320 C.3    63  ARG63       0.0489
      7  CD        86.9600   53.9310   12.9660 C.3    63  ARG63       0.2205
      8  NE        85.9090   53.5780   13.9250 N.pl3  63  ARG63      -0.0865
      9  CZ        84.7510   53.0260   13.5840 C.cat  63  ARG63       0.5346
     10  NH1       84.5090   52.7470   12.3090 N.pl3  63  ARG63       0.1354
     11  NH2       83.8450   52.7380   14.5100 N.pl3  63  ARG63       0.1354
     12  N         82.5730   56.7670    5.3270 N.3    75  ARG75      -0.1231
     13  CA        82.3350   57.6190    6.4890 C.3    75  ARG75       0.1694
     14  C         82.4050   56.9090    7.8540 C.2    75  ARG75       0.2591
     15  O         82.9470   57.4660    8.8100 O.2    75  ARG75      -0.2718
     16  CB        80.9810   58.3120    6.3300 C.3    75  ARG75       0.0321
     17  CG        80.8930   59.6400    7.0450 C.3    75  ARG75       0.0489
     18  CD        79.8530   60.5410    6.3960 C.3    75  ARG75       0.2205
     19  NE        79.6910   61.7900    7.1360 N.pl3  75  ARG75      -0.0865
     20  CZ        78.7210   62.0230    8.0170 C.cat  75  ARG75       0.5346
     21  NH1       77.8010   61.0940    8.2710 N.pl3  75  ARG75       0.1354
     22  NH2       78.6710   63.1940    8.6410 N.pl3  75  ARG75       0.1354
     23  N         81.8570   55.7020    7.9640 N.am   76  VAL76      -0.1980
     24  CA        81.9980   54.9320    9.2080 C.3    76  VAL76       0.1595
     25  C         82.4690   53.5030    8.8870 C.2    76  VAL76       0.2287
     26  O         82.7620   53.1990    7.7270 O.2    76  VAL76      -0.2864
     27  CB        80.6790   54.8880   10.0240 C.3    76  VAL76       0.0276
     28  CG1       80.1420   56.2890   10.2530 C.3    76  VAL76       0.0022
     29  CG2       79.6340   54.0240    9.3240 C.3    76  VAL76       0.0022
     30  N         93.1860   55.4000   14.1860 N.3   128  TYR128     -0.1227
     31  CA        92.4710   56.3270   15.0570 C.3   128  TYR128      0.1736
     32  C         91.2640   55.6580   15.6860 C.2   128  TYR128      0.2596
     33  O         90.8480   54.5760   15.2630 O.2   128  TYR128     -0.2718
     34  CB        92.0250   57.5660   14.2810 C.3   128  TYR128      0.0548
     35  CG        91.0370   57.2460   13.1820 C.ar  128  TYR128     -0.0200
     36  CD1       91.4700   56.7380   11.9610 C.ar  128  TYR128     -0.0009
     37  CD2       89.6690   57.4390   13.3660 C.ar  128  TYR128     -0.0009
     38  CE1       90.5640   56.4270   10.9420 C.ar  128  TYR128      0.0417
     39  CE2       88.7570   57.1320   12.3530 C.ar  128  TYR128      0.0417
     40  CZ        89.2200   56.6280   11.1440 C.ar  128  TYR128      0.1957
     41  OH        88.3390   56.3210   10.1330 O.3   128  TYR128     -0.2866
     42  N         90.7020   56.3080   16.6980 N.am  129  GLY129     -0.1942
     43  CA        89.4600   55.8490   17.2870 C.3   129  GLY129      0.2014
     44  C         88.3150   56.7690   16.9290 C.2   129  GLY129      0.2638
     45  O         88.4730   57.9860   16.9210 O.2   129  GLY129     -0.2714
     46  N         87.1620   56.1830   16.6150 N.am  130  ALA130     -0.1977
     47  CA        85.9290   56.9420   16.4230 C.3   130  ALA130      0.1597
     48  C         84.7330   56.0830   16.8180 C.2   130  ALA130      0.2287
     49  O         84.5290   55.0240   16.2380 O.2   130  ALA130     -0.2864
     50  CB        85.7920   57.4180   14.9660 C.3   130  ALA130      0.0319
     51  N         80.2050   61.7990   19.8360 N.3   189  TRP189     -0.1241
     52  CA        81.1950   60.8500   19.3460 C.3   189  TRP189      0.1605
     53  C         82.5240   61.1250   20.0300 C.2   189  TRP189      0.2264
     54  O         82.8540   62.2750   20.2940 O.2   189  TRP189     -0.2867
     55  CB        81.3580   60.9520   17.8200 C.3   189  TRP189      0.0550
     56  CG        80.2510   60.3180   17.0510 C.ar  189  TRP189      0.0003
     57  CD1       78.9580   60.7450   16.9740 C.ar  189  TRP189      0.0946
     58  CD2       80.3360   59.1410   16.2390 C.ar  189  TRP189      0.0152
     59  NE1       78.2320   59.9040   16.1710 N.ar  189  TRP189     -0.2442
     60  CE2       79.0520   58.9080   15.7090 C.ar  189  TRP189      0.0810
     61  CE3       81.3720   58.2540   15.9180 C.ar  189  TRP189      0.0012
     62  CZ2       78.7740   57.8260   14.8710 C.ar  189  TRP189      0.0191
     63  CZ3       81.0950   57.1750   15.0850 C.ar  189  TRP189      0.0001
     64  CH2       79.8050   56.9730   14.5710 C.ar  189  TRP189      0.0015
     65  N         86.6930   60.7070   19.7210 N.3   191  TYR191     -0.1227
     66  CA        87.7280   60.5690   18.6940 C.3   191  TYR191      0.1736
     67  C         89.1090   60.5480   19.3240 C.2   191  TYR191      0.2595
     68  O         89.5180   61.5120   19.9730 O.2   191  TYR191     -0.2718
     69  CB        87.6380   61.7140   17.6870 C.3   191  TYR191      0.0548
     70  CG        86.3160   61.8100   16.9510 C.ar  191  TYR191     -0.0200
     71  CD1       86.0090   60.9460   15.9040 C.ar  191  TYR191     -0.0009
     72  CD2       85.3800   62.7790   17.2950 C.ar  191  TYR191     -0.0009
     73  CE1       84.8000   61.0340   15.2270 C.ar  191  TYR191      0.0417
     74  CE2       84.1720   62.8740   16.6260 C.ar  191  TYR191      0.0417
     75  CZ        83.8930   62.0090   15.5880 C.ar  191  TYR191      0.1957
     76  OH        82.6920   62.1190   14.9300 O.3   191  TYR191     -0.2866
     77  N         89.8100   59.4400   19.1510 N.am  192  VAL192     -0.1966
     78  CA        91.1840   59.3350   19.5830 C.3   192  VAL192      0.1727
     79  C         92.1020   59.5080   18.3590 C.2   192  VAL192      0.2616
     80  O         92.1090   58.6760   17.4440 O.2   192  VAL192     -0.2715
     81  CB        91.4470   57.9860   20.2800 C.3   192  VAL192      0.0290
     82  CG1       92.8830   57.9220   20.8030 C.3   192  VAL192      0.0023
     83  CG2       90.4650   57.7970   21.4460 C.3   192  VAL192      0.0023
     84  N         92.8650   60.5920   18.3430 N.am  193  GLY193     -0.1955
     85  CA        93.6700   60.9210   17.1830 C.3   193  GLY193      0.1869
     86  C         95.1470   60.6230   17.3770 C.2   193  GLY193      0.2309
     87  O         95.6200   60.3930   18.4990 O.2   193  GLY193     -0.2863
     88  N         96.2810   61.6080   11.5260 N.3   197  SER197     -0.1202
     89  CA        94.9760   60.9530   11.3680 C.3   197  SER197      0.2020
     90  C         93.9980   62.0600   11.0200 C.2   197  SER197      0.2619
     91  O         94.0600   63.1540   11.5660 O.2   197  SER197     -0.2717
     92  CB        94.5410   60.1600   12.6170 C.3   197  SER197      0.2103
     93  OG        94.0460   61.0020   13.6600 O.3   197  SER197     -0.2182
     94  N         93.1190   61.8170   10.0630 N.am  198  SER198     -0.1937
     95  CA        92.4050   62.9530    9.5180 C.3   198  SER198      0.2055
     96  C         90.9240   62.6850    9.2980 C.2   198  SER198      0.2643
     97  O         90.4850   61.5460    9.1670 O.2   198  SER198     -0.2714
     98  CB        93.0610   63.3860    8.1990 C.3   198  SER198      0.2130
     99  OG        92.9420   62.3620    7.2570 O.3   198  SER198     -0.2179
    100  N         90.1540   63.7580    9.2760 N.am  199  PHE199     -0.1959
    101  CA        88.7480   63.6450    8.9410 C.3   199  PHE199      0.1771
    102  C         88.5570   64.3090    7.6000 C.2   199  PHE199      0.2619
    103  O         88.9320   65.4640    7.4240 O.2   199  PHE199     -0.2715
    104  CB        87.8290   64.2630   10.0200 C.3   199  PHE199      0.0574
    105  CG        88.2810   65.6100   10.5660 C.ar  199  PHE199     -0.0200
    106  CD1       89.3570   65.7060   11.4420 C.ar  199  PHE199     -0.0042
    107  CD2       87.5720   66.7660   10.2660 C.ar  199  PHE199     -0.0042
    108  CE1       89.7530   66.9380   11.9720 C.ar  199  PHE199     -0.0003
    109  CE2       87.9510   67.9960   10.7940 C.ar  199  PHE199     -0.0003
    110  CZ        89.0530   68.0860   11.6480 C.ar  199  PHE199     -0.0000
    111  N         87.9950   63.5600    6.6580 N.am  200  CYS200     -0.1968
    112  CA        87.7780   64.0520    5.2950 C.3   200  CYS200      0.1712
    113  C         86.7470   65.1550    5.2080 C.2   200  CYS200      0.2296
    114  O         85.9670   65.3530    6.1330 O.2   200  CYS200     -0.2864
    115  CB        87.3520   62.9020    4.3820 C.3   200  CYS200      0.0983
    116  SG        88.5520   61.5330    4.3110 S.3   200  CYS200     -0.0798
    117  N         83.5190   67.0320    4.7370 N.3   202  HIS202     -0.1241
    118  CA        82.1240   66.6560    4.8730 C.3   202  HIS202      0.1621
    119  C         81.3240   67.7860    5.4900 C.2   202  HIS202      0.2264
    120  O         81.8840   68.7230    6.0890 O.2   202  HIS202     -0.2867
    121  CB        81.9920   65.4020    5.7390 C.3   202  HIS202      0.0745
    122  CG        82.2320   65.6640    7.1910 C.ar  202  HIS202      0.0817
    123  ND1       83.4950   65.8510    7.7130 N.ar  202  HIS202     -0.2268
    124  CD2       81.3700   65.8050    8.2270 C.ar  202  HIS202      0.1154
    125  CE1       83.4020   66.0840    9.0110 C.ar  202  HIS202      0.1986
    126  NE2       82.1230   66.0590    9.3490 N.ar  202  HIS202     -0.2212
    127  N         77.6470   68.0110    8.1030 N.3   204  GLU204     -0.1245
    128  CA        76.9210   67.1490    9.0340 C.3   204  GLU204      0.1567
    129  C         75.6000   66.6810    8.4240 C.2   204  GLU204      0.2260
    130  O         75.0190   67.3580    7.5730 O.2   204  GLU204     -0.2867
    131  CB        76.6430   67.8780   10.3470 C.3   204  GLU204      0.0388
    132  CG        77.8750   68.4560   11.0010 C.3   204  GLU204      0.1160
    133  CD        78.9830   67.4400   11.2020 C.2   204  GLU204      0.3649
    134  OE1       78.7100   66.2800   11.5770 O.co2 204  GLU204     -0.2457
    135  OE2       80.1460   67.8200   11.0010 O.co2 204  GLU204     -0.2457
    136  N         77.7100   71.4720   14.4150 N.3   210  SER210     -0.1217
    137  CA        78.4180   70.5690   15.3190 C.3   210  SER210      0.1889
    138  C         79.2710   71.3880   16.2960 C.2   210  SER210      0.2288
    139  O         79.6570   72.5300   16.0240 O.2   210  SER210     -0.2866
    140  CB        79.2760   69.5370   14.5710 C.3   210  SER210      0.2089
    141  OG        80.4390   70.1130   13.9860 O.3   210  SER210     -0.2183
    142  N         82.6270   70.7600   18.8700 N.3   212  ASN212     -0.1240
    143  CA        83.7310   69.8280   18.9400 C.3   212  ASN212      0.1653
    144  C         84.6780   70.2940   20.0470 C.2   212  ASN212      0.2266
    145  O         85.1510   71.4260   20.0010 O.2   212  ASN212     -0.2867
    146  CB        84.4350   69.7630   17.5700 C.3   212  ASN212      0.1155
    147  CG        83.4530   69.5280   16.3950 C.2   212  ASN212      0.2627
    148  OD1       83.3230   68.4080   15.8990 O.2   212  ASN212     -0.2716
    149  ND2       82.7910   70.5920   15.9360 N.am  212  ASN212     -0.0877
    150  N         94.3750   69.8500   17.1380 N.3   220  LYS220     -0.1245
    151  CA        93.6610   69.3620   15.9640 C.3   220  LYS220      0.1561
    152  C         93.6100   70.5040   14.9780 C.2   220  LYS220      0.2260
    153  O         93.2190   71.6190   15.3340 O.2   220  LYS220     -0.2867
    154  CB        92.2520   68.8760   16.3440 C.3   220  LYS220      0.0271
    155  CG        91.4320   68.2740   15.1880 C.3   220  LYS220      0.0035
    156  CD        89.9980   67.8910   15.6380 C.3   220  LYS220      0.0206
    157  CE        89.9660   66.9350   16.8700 C.3   220  LYS220      0.1093
    158  NZ        90.4020   65.5520   16.5150 N.3   220  LYS220     -0.1314
    159  N         92.1210   72.3560   11.6990 N.3   222  TRP222     -0.1241
    160  CA        90.8380   72.3850   10.9900 C.3   222  TRP222      0.1605
    161  C         90.8970   73.2250    9.7380 C.2   222  TRP222      0.2264
    162  O         91.5910   74.2400    9.7160 O.2   222  TRP222     -0.2867
    163  CB        89.7450   72.9770   11.8850 C.3   222  TRP222      0.0550
    164  CG        89.3280   72.1380   13.0650 C.ar  222  TRP222      0.0003
    165  CD1       90.0340   71.9170   14.2240 C.ar  222  TRP222      0.0946
    166  CD2       88.0800   71.4540   13.2140 C.ar  222  TRP222      0.0152
    167  NE1       89.2950   71.1250   15.0850 N.ar  222  TRP222     -0.2442
    168  CE2       88.0940   70.8260   14.4890 C.ar  222  TRP222      0.0810
    169  CE3       86.9550   71.2950   12.3850 C.ar  222  TRP222      0.0012
    170  CZ2       87.0240   70.0470   14.9540 C.ar  222  TRP222      0.0191
    171  CZ3       85.8830   70.5280   12.8480 C.ar  222  TRP222      0.0001
    172  CH2       85.9280   69.9150   14.1270 C.ar  222  TRP222      0.0015
    173  N         83.9530   70.9600    6.3010 N.3   290  HIS290     -0.1241
    174  CA        85.1670   71.0230    7.0960 C.3   290  HIS290      0.1621
    175  C         85.9440   69.7380    6.9810 C.2   290  HIS290      0.2264
    176  O         85.3800   68.7060    6.6330 O.2   290  HIS290     -0.2867
    177  CB        84.8640   71.3180    8.5720 C.3   290  HIS290      0.0745
    178  CG        83.8340   70.4170    9.1790 C.ar  290  HIS290      0.0817
    179  ND1       82.4850   70.5670    8.9360 N.ar  290  HIS290     -0.2268
    180  CD2       83.9500   69.3750   10.0370 C.ar  290  HIS290      0.1154
    181  CE1       81.8140   69.6520    9.6130 C.ar  290  HIS290      0.1986
    182  NE2       82.6770   68.9170   10.2900 N.ar  290  HIS290     -0.2212
    183  N         94.9740   65.5230   12.9020 N.3   294  ASN294     -0.1240
    184  CA        95.5470   65.7030   14.2140 C.3   294  ASN294      0.1653
    185  C         97.0680   65.8850   14.1670 C.2   294  ASN294      0.2266
    186  O         97.7550   65.2310   13.3870 O.2   294  ASN294     -0.2867
    187  CB        95.1460   64.5130   15.0790 C.3   294  ASN294      0.1155
    188  CG        93.6470   64.4420   15.2550 C.2   294  ASN294      0.2627
    189  OD1       93.0580   65.3120   15.9060 O.2   294  ASN294     -0.2716
    190  ND2       93.0160   63.4540   14.6330 N.am  294  ASN294     -0.0877
    191  N         89.2000   63.8640   21.5150 N.3   300  ALA300     -0.1245
    192  CA        88.1860   64.8560   21.2400 C.3   300  ALA300      0.1562
    193  C         86.7980   64.2480   21.4040 C.2   300  ALA300      0.2260
    194  O         86.6180   63.0270   21.3600 O.2   300  ALA300     -0.2867
    195  CB        88.3470   65.4220   19.8080 C.3   300  ALA300      0.0290
    196  N         82.6190   65.2850   20.1830 N.3   302  ALA302     -0.1245
    197  CA        81.8230   66.1430   19.3190 C.3   302  ALA302      0.1562
    198  C         80.3510   65.7220   19.3010 C.2   302  ALA302      0.2260
    199  O         80.0370   64.5500   19.4700 O.2   302  ALA302     -0.2867
    200  CB        82.3890   66.1140   17.8920 C.3   302  ALA302      0.0290
@<TRIPOS>BOND
     1   116   115    1
     2   115   112    1
     3   117   118    1
     4   118   119    1
     5   118   121    1
     6   113   112    1
     7   113   114    2
     8   112   111    1
     9    12    13    1
    10   119   120    2
    11   121   122    1
    12   173   174    1
    13    16    13    1
    14    16    17    1
    15    18    17    1
    16    18    19    1
    17    13    14    1
    18   176   175    2
    19   111   102   am
    20   175   174    1
    21   174   177    1
    22    19    20    2
    23   122   123   ar
    24   122   124   ar
    25    99    98    1
    26   103   102    2
    27   130   129    2
    28   102   101    1
    29   123   125   ar
    30    26    25    2
    31    14    23   am
    32    14    15    2
    33    23    24    1
    34    20    21    1
    35    20    22    1
    36   127   128    1
    37    98    95    1
    38   124   126   ar
    39   129   128    1
    40   177   178    1
    41    25    24    1
    42   179   178   ar
    43   179   181   ar
    44   101   100    1
    45   101   104    1
    46   125   126   ar
    47   128   131    1
    48    97    96    2
    49   178   180   ar
    50    24    27    1
    51   100    96   am
    52    96    95    1
    53    29    27    1
    54    95    94    1
    55   181   182   ar
    56   162   161    2
    57   161   160    1
    58   104   105    1
    59    27    28    1
    60   180   182   ar
    61    94    90   am
    62    41    40    1
    63   107   105   ar
    64   107   109   ar
    65   131   132    1
    66   105   106   ar
    67   109   110   ar
    68    38    40   ar
    69    38    36   ar
    70   160   159    1
    71   160   163    1
    72   135   133   ar
    73   132   133    1
    74    90    89    1
    75    90    91    2
    76    40    39   ar
    77   133   134   ar
    78    89    88    1
    79    89    92    1
    80   106   108   ar
    81   110   108   ar
    82     3     4    2
    83     3     2    1
    84   163   164    1
    85    36    35   ar
    86     5     2    1
    87     5     6    1
    88    10     9    1
    89    39    37   ar
    90   169   171   ar
    91   169   166   ar
    92     2     1    1
    93    92    93    1
    94     6     7    1
    95   171   172   ar
    96   183   184    1
    97     7     8    1
    98   164   166   ar
    99   164   165   ar
   100    35    37   ar
   101    35    34    1
   102   166   168   ar
   103   186   185    2
   104     9     8    2
   105     9    11    1
   106   141   140    1
   107   172   170   ar
   108   185   184    1
   109    30    31    1
   110   184   187    1
   111   165   167   ar
   112    34    31    1
   113   136   137    1
   114   168   170   ar
   115   168   167   ar
   116   140   137    1
   117    64    62   ar
   118    64    63   ar
   119   190   188   am
   120    62    60   ar
   121    76    75    1
   122    50    47    1
   123   152   153    2
   124   152   151    1
   125    31    32    1
   126   187   188    1
   127    63    61   ar
   128   155   156    1
   129   155   154    1
   130    73    75   ar
   131    73    71   ar
   132   188   189    2
   133    33    32    2
   134   137   138    1
   135    75    74   ar
   136   156   157    1
   137    32    42   am
   138    60    59   ar
   139    60    58   ar
   140   148   147    2
   141    71    70   ar
   142    61    58   ar
   143   149   147   am
   144   151   154    1
   145   151   150    1
   146   139   138    2
   147    59    57   ar
   148    49    48    2
   149    58    56   ar
   150   147   146    1
   151    47    46    1
   152    47    48    1
   153   158   157    1
   154    46    44   am
   155    74    72   ar
   156    42    43    1
   157    45    44    2
   158    44    43    1
   159    70    72   ar
   160    70    69    1
   161    57    56   ar
   162    56    55    1
   163    85    86    1
   164    85    84    1
   165    86    87    2
   166    80    79    2
   167   146   143    1
   168    69    66    1
   169    55    52    1
   170   200   197    1
   171    84    79   am
   172    79    78    1
   173    66    67    1
   174    66    65    1
   175   142   143    1
   176   143   144    1
   177    77    67   am
   178    77    78    1
   179   198   197    1
   180   198   199    2
   181   197   196    1
   182    67    68    2
   183    52    51    1
   184    52    53    1
   185    78    81    1
   186   195   192    1
   187   145   144    2
   188    53    54    2
   189    81    82    1
   190    81    83    1
   191   192   193    1
   192   192   191    1
   193   194   193    2
