@<TRIPOS>MOLECULE
tmp/5fzfA01.pdb
 196 189 0 0 0
SMALL
GASTEIGER

@<TRIPOS>ATOM
      1  N         90.3800   52.1240   13.7000 N.3    63  ARG63      -0.1245
      2  CA        90.1830   52.1360   12.2650 C.3    63  ARG63       0.1563
      3  C         91.5040   52.4720   11.6040 C.2    63  ARG63       0.2260
      4  O         92.3550   53.1360   12.1960 O.2    63  ARG63      -0.2867
      5  CB        89.1210   53.1500   11.8680 C.3    63  ARG63       0.0307
      6  CG        87.8110   52.9790   12.6240 C.3    63  ARG63       0.0489
      7  CD        86.6480   53.5030   11.8130 C.3    63  ARG63       0.2205
      8  NE        85.4510   53.6560   12.6350 N.pl3  63  ARG63      -0.0865
      9  CZ        84.4230   54.4320   12.3050 C.cat  63  ARG63       0.5346
     10  NH1       84.4520   55.1260   11.1660 N.pl3  63  ARG63       0.1354
     11  NH2       83.3720   54.5210   13.1100 N.pl3  63  ARG63       0.1354
     12  N         85.2180   56.2250    3.2950 N.3    74  THR74      -0.1203
     13  CA        83.8630   56.3110    3.8530 C.3    74  THR74       0.1994
     14  C         83.8890   56.6500    5.3390 C.2    74  THR74       0.2617
     15  O         84.7870   56.2010    6.0480 O.2    74  THR74      -0.2717
     16  CB        83.0840   54.9940    3.6870 C.3    74  THR74       0.1784
     17  OG1       83.8790   53.9100    4.1830 O.3    74  THR74      -0.2211
     18  CG2       82.7600   54.7470    2.2360 C.3    74  THR74       0.0376
     19  N         82.8850   57.4000    5.8050 N.am   75  ARG75      -0.1979
     20  CA        82.7680   57.8040    7.2190 C.3    75  ARG75       0.1597
     21  C         82.5110   56.6540    8.2140 C.2    75  ARG75       0.2287
     22  O         82.9460   56.7290    9.3620 O.2    75  ARG75      -0.2864
     23  CB        81.6480   58.8380    7.3980 C.3    75  ARG75       0.0334
     24  CG        81.6590   60.0040    6.4250 C.3    75  ARG75       0.0492
     25  CD        82.1380   61.2900    7.0440 C.3    75  ARG75       0.2205
     26  NE        81.3830   61.7180    8.2220 N.pl3  75  ARG75      -0.0865
     27  CZ        81.8780   62.5750    9.1110 C.cat  75  ARG75       0.5346
     28  NH1       83.1030   63.0500    8.9200 N.pl3  75  ARG75       0.1354
     29  NH2       81.1800   62.9510   10.1830 N.pl3  75  ARG75       0.1354
     30  N         93.1630   55.3230   14.0910 N.3   128  TYR128     -0.1227
     31  CA        92.4380   56.2490   14.9470 C.3   128  TYR128      0.1736
     32  C         91.2290   55.5640   15.5730 C.2   128  TYR128      0.2596
     33  O         90.8530   54.4540   15.1740 O.2   128  TYR128     -0.2718
     34  CB        92.0020   57.4840   14.1530 C.3   128  TYR128      0.0548
     35  CG        91.0430   57.1750   13.0170 C.ar  128  TYR128     -0.0200
     36  CD1       91.5110   56.7210   11.7800 C.ar  128  TYR128     -0.0009
     37  CD2       89.6770   57.3400   13.1780 C.ar  128  TYR128     -0.0009
     38  CE1       90.6300   56.4280   10.7320 C.ar  128  TYR128      0.0417
     39  CE2       88.7950   57.0570   12.1470 C.ar  128  TYR128      0.0417
     40  CZ        89.2740   56.6000   10.9290 C.ar  128  TYR128      0.1957
     41  OH        88.3860   56.3280    9.9160 O.3   128  TYR128     -0.2866
     42  N         90.6320   56.2240   16.5640 N.am  129  GLY129     -0.1942
     43  CA        89.3890   55.7550   17.1480 C.3   129  GLY129      0.2014
     44  C         88.2490   56.6890   16.8080 C.2   129  GLY129      0.2638
     45  O         88.4170   57.9070   16.7940 O.2   129  GLY129     -0.2714
     46  N         87.0830   56.1150   16.5380 N.am  130  ALA130     -0.1977
     47  CA        85.8790   56.8890   16.2370 C.3   130  ALA130      0.1597
     48  C         84.6300   56.0790   16.5850 C.2   130  ALA130      0.2287
     49  O         84.3490   55.0800   15.9340 O.2   130  ALA130     -0.2864
     50  CB        85.8540   57.2980   14.7650 C.3   130  ALA130      0.0319
     51  N         80.0680   61.8320   19.7060 N.3   189  TRP189     -0.1241
     52  CA        81.0340   60.8980   19.1710 C.3   189  TRP189      0.1605
     53  C         82.3810   61.1820   19.8040 C.2   189  TRP189      0.2264
     54  O         82.7010   62.3420   20.0900 O.2   189  TRP189     -0.2867
     55  CB        81.1130   61.0250   17.6450 C.3   189  TRP189      0.0550
     56  CG        79.8870   60.5120   16.9760 C.ar  189  TRP189      0.0003
     57  CD1       78.6570   61.1040   16.9470 C.ar  189  TRP189      0.0946
     58  CD2       79.7620   59.2910   16.2560 C.ar  189  TRP189      0.0152
     59  NE1       77.7730   60.3210   16.2450 N.ar  189  TRP189     -0.2442
     60  CE2       78.4290   59.2030   15.8080 C.ar  189  TRP189      0.0810
     61  CE3       80.6520   58.2590   15.9390 C.ar  189  TRP189      0.0012
     62  CZ2       77.9620   58.1210   15.0670 C.ar  189  TRP189      0.0191
     63  CZ3       80.1880   57.1860   15.2060 C.ar  189  TRP189      0.0001
     64  CH2       78.8570   57.1260   14.7750 C.ar  189  TRP189      0.0015
     65  N         86.5810   60.7520   19.4620 N.3   191  TYR191     -0.1227
     66  CA        87.6370   60.5680   18.4640 C.3   191  TYR191      0.1736
     67  C         89.0180   60.5730   19.0920 C.2   191  TYR191      0.2595
     68  O         89.4390   61.5770   19.6660 O.2   191  TYR191     -0.2718
     69  CB        87.5620   61.6610   17.3910 C.3   191  TYR191      0.0548
     70  CG        86.2360   61.7370   16.6540 C.ar  191  TYR191     -0.0200
     71  CD1       85.8280   60.7190   15.8080 C.ar  191  TYR191     -0.0009
     72  CD2       85.4040   62.8410   16.7960 C.ar  191  TYR191     -0.0009
     73  CE1       84.6120   60.7870   15.1280 C.ar  191  TYR191      0.0417
     74  CE2       84.1970   62.9220   16.1190 C.ar  191  TYR191      0.0417
     75  CZ        83.8070   61.8940   15.2860 C.ar  191  TYR191      0.1957
     76  OH        82.6020   61.9920   14.6250 O.3   191  TYR191     -0.2866
     77  N         89.7150   59.4500   18.9710 N.am  192  VAL192     -0.1966
     78  CA        91.0910   59.3430   19.4140 C.3   192  VAL192      0.1727
     79  C         92.0470   59.5020   18.2210 C.2   192  VAL192      0.2616
     80  O         92.0600   58.6700   17.2980 O.2   192  VAL192     -0.2715
     81  CB        91.3380   57.9930   20.1200 C.3   192  VAL192      0.0290
     82  CG1       92.7810   57.9130   20.6220 C.3   192  VAL192      0.0023
     83  CG2       90.3630   57.8310   21.3050 C.3   192  VAL192      0.0023
     84  N         92.8380   60.5700   18.2310 N.am  193  GLY193     -0.1955
     85  CA        93.6560   60.8930   17.0740 C.3   193  GLY193      0.1869
     86  C         95.1290   60.5790   17.2660 C.2   193  GLY193      0.2309
     87  O         95.5850   60.3770   18.3910 O.2   193  GLY193     -0.2863
     88  N         96.2850   61.5170   11.3680 N.3   197  SER197     -0.1202
     89  CA        94.9730   60.8660   11.2260 C.3   197  SER197      0.2020
     90  C         94.0280   61.9970   10.8580 C.2   197  SER197      0.2619
     91  O         94.1340   63.0950   11.3800 O.2   197  SER197     -0.2717
     92  CB        94.5430   60.0900   12.4910 C.3   197  SER197      0.2103
     93  OG        94.1440   60.9300   13.5710 O.3   197  SER197     -0.2182
     94  N         93.1190   61.7520    9.9270 N.am  198  SER198     -0.1937
     95  CA        92.4380   62.8840    9.3310 C.3   198  SER198      0.2055
     96  C         90.9770   62.6190    9.0660 C.2   198  SER198      0.2643
     97  O         90.5380   61.4720    8.9730 O.2   198  SER198     -0.2714
     98  CB        93.1420   63.2830    8.0280 C.3   198  SER198      0.2130
     99  OG        93.1480   62.2070    7.1170 O.3   198  SER198     -0.2179
    100  N         90.2220   63.7000    8.9540 N.am  199  PHE199     -0.1973
    101  CA        88.8160   63.5940    8.6010 C.3   199  PHE199      0.1639
    102  C         88.6120   64.3120    7.2780 C.2   199  PHE199      0.2290
    103  O         88.9630   65.4850    7.1270 O.2   199  PHE199     -0.2864
    104  CB        87.8740   64.1350    9.7130 C.3   199  PHE199      0.0560
    105  CG        88.2350   65.5040   10.2720 C.ar  199  PHE199     -0.0200
    106  CD1       89.2810   65.6540   11.1740 C.ar  199  PHE199     -0.0042
    107  CD2       87.4760   66.6220    9.9460 C.ar  199  PHE199     -0.0042
    108  CE1       89.5930   66.9030   11.7240 C.ar  199  PHE199     -0.0003
    109  CE2       87.7750   67.8770   10.4970 C.ar  199  PHE199     -0.0003
    110  CZ        88.8330   68.0120   11.3930 C.ar  199  PHE199     -0.0000
    111  N         83.4920   67.0980    4.4510 N.3   202  HIS202     -0.1241
    112  CA        82.1060   66.6790    4.6430 C.3   202  HIS202      0.1621
    113  C         81.2980   67.7970    5.2570 C.2   202  HIS202      0.2264
    114  O         81.8510   68.7650    5.7810 O.2   202  HIS202     -0.2867
    115  CB        82.0410   65.4550    5.5410 C.3   202  HIS202      0.0745
    116  CG        82.3710   65.7610    6.9670 C.ar  202  HIS202      0.0817
    117  ND1       83.6610   65.9870    7.3950 N.ar  202  HIS202     -0.2268
    118  CD2       81.5800   65.9070    8.0570 C.ar  202  HIS202      0.1154
    119  CE1       83.6510   66.2560    8.6890 C.ar  202  HIS202      0.1986
    120  NE2       82.4020   66.2040    9.1170 N.ar  202  HIS202     -0.2212
    121  N         77.6110   68.0640    7.9200 N.3   204  GLU204     -0.1245
    122  CA        76.9050   67.2180    8.8790 C.3   204  GLU204      0.1567
    123  C         75.5920   66.7100    8.2990 C.2   204  GLU204      0.2260
    124  O         74.9960   67.3590    7.4280 O.2   204  GLU204     -0.2867
    125  CB        76.6110   67.9700   10.1790 C.3   204  GLU204      0.0388
    126  CG        77.8250   68.5490   10.8830 C.3   204  GLU204      0.1160
    127  CD        78.9600   67.5430   11.0090 C.2   204  GLU204      0.3649
    128  OE1       78.7450   66.3990   11.4740 O.co2 204  GLU204     -0.2457
    129  OE2       80.0800   67.9130   10.6370 O.co2 204  GLU204     -0.2457
    130  N         77.8280   71.3330   14.1660 N.3   210  SER210     -0.1217
    131  CA        78.5090   70.4310   15.0860 C.3   210  SER210      0.1889
    132  C         79.2820   71.2770   16.1260 C.2   210  SER210      0.2288
    133  O         79.7250   72.3930   15.8380 O.2   210  SER210     -0.2866
    134  CB        79.4430   69.4460   14.3540 C.3   210  SER210      0.2089
    135  OG        80.5710   70.0980   13.7640 O.3   210  SER210     -0.2183
    136  N         82.4790   70.7990   18.7720 N.3   212  ASN212     -0.1240
    137  CA        83.5890   69.8890   18.9110 C.3   212  ASN212      0.1653
    138  C         84.5030   70.3620   20.0360 C.2   212  ASN212      0.2266
    139  O         84.9070   71.5150   20.0430 O.2   212  ASN212     -0.2867
    140  CB        84.3560   69.8050   17.5820 C.3   212  ASN212      0.1155
    141  CG        83.4310   69.5280   16.3860 C.2   212  ASN212      0.2627
    142  OD1       83.2700   68.3860   15.9780 O.2   212  ASN212     -0.2716
    143  ND2       82.8270   70.5800   15.8270 N.am  212  ASN212     -0.0877
    144  N         94.2200   69.7330   17.0360 N.3   220  LYS220     -0.1245
    145  CA        93.5090   69.2720   15.8550 C.3   220  LYS220      0.1561
    146  C         93.4580   70.4420   14.8870 C.2   220  LYS220      0.2260
    147  O         92.9950   71.5240   15.2420 O.2   220  LYS220     -0.2867
    148  CB        92.0950   68.7770   16.2180 C.3   220  LYS220      0.0271
    149  CG        91.2790   68.2170   15.0390 C.3   220  LYS220      0.0035
    150  CD        89.8400   67.8450   15.4690 C.3   220  LYS220      0.0206
    151  CE        89.8290   66.8120   16.6050 C.3   220  LYS220      0.1093
    152  NZ        90.1830   65.4320   16.0830 N.3   220  LYS220     -0.1314
    153  N         92.0140   72.3120   11.5930 N.3   222  TRP222     -0.1241
    154  CA        90.7530   72.3620   10.8430 C.3   222  TRP222      0.1605
    155  C         90.8560   73.2310    9.6080 C.2   222  TRP222      0.2264
    156  O         91.5580   74.2490    9.6390 O.2   222  TRP222     -0.2867
    157  CB        89.6340   72.9500   11.7100 C.3   222  TRP222      0.0550
    158  CG        89.2460   72.1320   12.9120 C.ar  222  TRP222      0.0003
    159  CD1       89.9690   71.9390   14.0620 C.ar  222  TRP222      0.0946
    160  CD2       88.0140   71.4260   13.0840 C.ar  222  TRP222      0.0152
    161  NE1       89.2570   71.1440   14.9380 N.ar  222  TRP222     -0.2442
    162  CE2       88.0510   70.8220   14.3650 C.ar  222  TRP222      0.0810
    163  CE3       86.8790   71.2520   12.2780 C.ar  222  TRP222      0.0012
    164  CZ2       86.9950   70.0380   14.8600 C.ar  222  TRP222      0.0191
    165  CZ3       85.8250   70.4760   12.7680 C.ar  222  TRP222      0.0001
    166  CH2       85.8940   69.8820   14.0550 C.ar  222  TRP222      0.0015
    167  N         81.1070   74.1400   13.8370 N.3   284  THR284     -0.1218
    168  CA        80.8300   74.2120   12.3930 C.3   284  THR284      0.1862
    169  C         79.3630   74.5530   12.1790 C.2   284  THR284      0.2287
    170  O         78.4980   74.0610   12.9040 O.2   284  THR284     -0.2866
    171  CB        81.1510   72.8900   11.6440 C.3   284  THR284      0.1770
    172  OG1       80.1560   71.9030   11.9510 O.3   284  THR284     -0.2211
    173  CG2       82.5230   72.3570   12.0520 C.3   284  THR284      0.0375
    174  N         84.0030   71.0020    6.0390 N.3   290  HIS290     -0.1241
    175  CA        85.2190   71.0670    6.8330 C.3   290  HIS290      0.1621
    176  C         85.9780   69.7660    6.7430 C.2   290  HIS290      0.2264
    177  O         85.4050   68.7290    6.4150 O.2   290  HIS290     -0.2867
    178  CB        84.9160   71.3890    8.2970 C.3   290  HIS290      0.0745
    179  CG        83.8770   70.5030    8.9090 C.ar  290  HIS290      0.0817
    180  ND1       82.5260   70.6870    8.6900 N.ar  290  HIS290     -0.2268
    181  CD2       83.9810   69.4420    9.7450 C.ar  290  HIS290      0.1154
    182  CE1       81.8460   69.7760    9.3610 C.ar  290  HIS290      0.1986
    183  NE2       82.7030   69.0130   10.0170 N.ar  290  HIS290     -0.2212
    184  N         94.9620   65.4890   12.7310 N.3   294  ASN294     -0.1240
    185  CA        95.4790   65.6900   14.0660 C.3   294  ASN294      0.1653
    186  C         96.9960   65.8500   14.0580 C.2   294  ASN294      0.2266
    187  O         97.6830   65.1800   13.2900 O.2   294  ASN294     -0.2867
    188  CB        95.0470   64.5230   14.9460 C.3   294  ASN294      0.1155
    189  CG        93.5450   64.4740   15.0900 C.2   294  ASN294      0.2627
    190  OD1       92.9500   65.3810   15.6780 O.2   294  ASN294     -0.2716
    191  ND2       92.9220   63.4620   14.5150 N.am  294  ASN294     -0.0877
    192  N         82.5170   65.2830   20.0100 N.3   302  ALA302     -0.1245
    193  CA        81.7330   66.0880   19.0830 C.3   302  ALA302      0.1562
    194  C         80.2700   65.6870   19.1250 C.2   302  ALA302      0.2260
    195  O         79.9590   64.5230   19.3440 O.2   302  ALA302     -0.2867
    196  CB        82.2690   65.9230   17.6470 C.3   302  ALA302      0.0290
@<TRIPOS>BOND
     1    18    16    1
     2    12    13    1
     3    16    13    1
     4    16    17    1
     5    13    14    1
     6   111   112    1
     7   112   113    1
     8   112   115    1
     9   113   114    2
    10    14    19   am
    11    14    15    2
    12   115   116    1
    13    19    20    1
    14   174   175    1
    15   177   176    2
    16    24    25    1
    17    24    23    1
    18   176   175    1
    19   175   178    1
    20   116   117   ar
    21   116   118   ar
    22    25    26    1
    23    99    98    1
    24   103   102    2
    25    20    23    1
    26    20    21    1
    27   102   101    1
    28   117   119   ar
    29   124   123    2
    30   121   122    1
    31    98    95    1
    32   118   120   ar
    33    21    22    2
    34    26    27    2
    35   178   179    1
    36   123   122    1
    37   101   100    1
    38   101   104    1
    39   119   120   ar
    40   180   179   ar
    41   180   182   ar
    42   122   125    1
    43   179   181   ar
    44    28    27    1
    45   100    96   am
    46    97    96    2
    47    96    95    1
    48    27    29    1
    49    95    94    1
    50   182   183   ar
    51   155   156    2
    52   155   154    1
    53   104   105    1
    54   181   183   ar
    55    41    40    1
    56    94    90   am
    57   107   105   ar
    58   107   109   ar
    59   125   126    1
    60   105   106   ar
    61   109   110   ar
    62   129   127   ar
    63    38    40   ar
    64    38    36   ar
    65   154   153    1
    66   154   157    1
    67    90    89    1
    68    90    91    2
    69   126   127    1
    70    40    39   ar
    71   127   128   ar
    72    10     9    1
    73   106   108   ar
    74    89    88    1
    75    89    92    1
    76   110   108   ar
    77     3     4    2
    78     3     2    1
    79   171   172    1
    80   171   173    1
    81   171   168    1
    82   157   158    1
    83    36    35   ar
    84     7     6    1
    85     7     8    1
    86     5     2    1
    87     5     6    1
    88    39    37   ar
    89   169   168    1
    90   169   170    2
    91     2     1    1
    92   163   165   ar
    93   163   160   ar
    94     9     8    2
    95     9    11    1
    96   168   167    1
    97    92    93    1
    98   184   185    1
    99   165   166   ar
   100   158   160   ar
   101   158   159   ar
   102    35    37   ar
   103    35    34    1
   104   160   162   ar
   105   187   186    2
   106   135   134    1
   107   166   164   ar
   108   186   185    1
   109   159   161   ar
   110   185   188    1
   111    30    31    1
   112    34    31    1
   113   130   131    1
   114   134   131    1
   115   162   164   ar
   116   162   161   ar
   117   191   189   am
   118    76    75    1
   119    50    47    1
   120    64    62   ar
   121    64    63   ar
   122   146   147    2
   123   146   145    1
   124   188   189    1
   125    31    32    1
   126   149   150    1
   127   149   148    1
   128    62    60   ar
   129   131   132    1
   130   189   190    2
   131    73    75   ar
   132    73    71   ar
   133    33    32    2
   134    63    61   ar
   135    75    74   ar
   136   150   151    1
   137    32    42   am
   138    71    70   ar
   139    60    59   ar
   140    60    58   ar
   141   143   141   am
   142   133   132    2
   143   145   148    1
   144   145   144    1
   145    49    48    2
   146    61    58   ar
   147   142   141    2
   148   152   151    1
   149    74    72   ar
   150    47    46    1
   151    47    48    1
   152    59    57   ar
   153    58    56   ar
   154   141   140    1
   155    46    44   am
   156    42    43    1
   157    70    72   ar
   158    70    69    1
   159    45    44    2
   160    44    43    1
   161    57    56   ar
   162    56    55    1
   163    85    86    1
   164    85    84    1
   165    86    87    2
   166    80    79    2
   167    69    66    1
   168   140   137    1
   169    55    52    1
   170   196   193    1
   171    79    84   am
   172    79    78    1
   173    66    67    1
   174    66    65    1
   175   136   137    1
   176   137   138    1
   177    77    67   am
   178    77    78    1
   179   193   194    1
   180   193   192    1
   181    67    68    2
   182   194   195    2
   183    52    51    1
   184    52    53    1
   185    78    81    1
   186    53    54    2
   187   138   139    2
   188    81    82    1
   189    81    83    1
