@<TRIPOS>MOLECULE
tmp/5fzgA01.pdb
 181 175 0 0 0
SMALL
GASTEIGER

@<TRIPOS>ATOM
      1  N         90.5690   52.0410   13.7820 N.3    63  ARG63      -0.1245
      2  CA        90.4010   52.0450   12.3380 C.3    63  ARG63       0.1563
      3  C         91.7640   52.3290   11.7180 C.2    63  ARG63       0.2260
      4  O         92.6640   52.8340   12.3910 O.2    63  ARG63      -0.2867
      5  CB        89.3590   53.0820   11.8980 C.3    63  ARG63       0.0307
      6  CG        87.9130   52.7010   12.2480 C.3    63  ARG63       0.0489
      7  CD        86.8930   53.5460   11.4770 C.3    63  ARG63       0.2205
      8  NE        87.0470   53.4270   10.0270 N.pl3  63  ARG63      -0.0865
      9  CZ        86.4260   54.2080    9.1450 C.cat  63  ARG63       0.5346
     10  NH1       85.6120   55.1670    9.5660 N.pl3  63  ARG63       0.1354
     11  NH2       86.6230   54.0380    7.8430 N.pl3  63  ARG63       0.1354
     12  N         83.0300   57.5440    6.0120 N.3    75  ARG75      -0.1245
     13  CA        82.9250   57.9710    7.4250 C.3    75  ARG75       0.1563
     14  C         82.6500   56.8220    8.3920 C.2    75  ARG75       0.2260
     15  O         83.1580   56.8160    9.5140 O.2    75  ARG75      -0.2867
     16  CB        81.8260   59.0310    7.6300 C.3    75  ARG75       0.0307
     17  CG        81.9740   60.3230    6.8280 C.3    75  ARG75       0.0489
     18  CD        82.5430   61.4670    7.6260 C.3    75  ARG75       0.2205
     19  NE        81.7330   61.8730    8.7780 N.pl3  75  ARG75      -0.0865
     20  CZ        82.1640   62.7370    9.6960 C.cat  75  ARG75       0.5346
     21  NH1       83.3820   63.2580    9.5700 N.pl3  75  ARG75       0.1354
     22  NH2       81.4010   63.0820   10.7370 N.pl3  75  ARG75       0.1354
     23  N         93.3270   55.3250   14.2040 N.3   129  TYR129     -0.1227
     24  CA        92.6210   56.2440   15.0880 C.3   129  TYR129      0.1736
     25  C         91.4190   55.5600   15.7210 C.2   129  TYR129      0.2596
     26  O         91.0490   54.4470   15.3340 O.2   129  TYR129     -0.2718
     27  CB        92.1730   57.4920   14.3250 C.3   129  TYR129      0.0548
     28  CG        91.2240   57.1810   13.1870 C.ar  129  TYR129     -0.0200
     29  CD1       91.7020   56.7520   11.9530 C.ar  129  TYR129     -0.0009
     30  CD2       89.8480   57.2900   13.3550 C.ar  129  TYR129     -0.0009
     31  CE1       90.8300   56.4510   10.9070 C.ar  129  TYR129      0.0417
     32  CE2       88.9760   56.9930   12.3240 C.ar  129  TYR129      0.0417
     33  CZ        89.4710   56.5760   11.1030 C.ar  129  TYR129      0.1957
     34  OH        88.5950   56.2820   10.0870 O.3   129  TYR129     -0.2866
     35  N         90.8010   56.2320   16.6880 N.am  130  GLY130     -0.1942
     36  CA        89.5570   55.7460   17.2540 C.3   130  GLY130      0.2014
     37  C         88.4150   56.6900   16.9570 C.2   130  GLY130      0.2638
     38  O         88.5810   57.9130   16.9620 O.2   130  GLY130     -0.2714
     39  N         87.2450   56.1210   16.6880 N.am  131  ALA131     -0.1977
     40  CA        86.0450   56.9090   16.4500 C.3   131  ALA131      0.1597
     41  C         84.8050   56.0940   16.8230 C.2   131  ALA131      0.2287
     42  O         84.5350   55.0660   16.2070 O.2   131  ALA131     -0.2864
     43  CB        85.9730   57.3580   14.9790 C.3   131  ALA131      0.0319
     44  N         80.3050   61.8160   19.8330 N.3   188  TRP188     -0.1241
     45  CA        81.2960   60.8960   19.3020 C.3   188  TRP188      0.1605
     46  C         82.6350   61.1620   19.9650 C.2   188  TRP188      0.2264
     47  O         82.9540   62.3120   20.2520 O.2   188  TRP188     -0.2867
     48  CB        81.4110   61.0620   17.7870 C.3   188  TRP188      0.0550
     49  CG        80.2430   60.4920   17.0710 C.ar  188  TRP188      0.0003
     50  CD1       78.9850   61.0150   16.9930 C.ar  188  TRP188      0.0946
     51  CD2       80.2180   59.2680   16.3470 C.ar  188  TRP188      0.0152
     52  NE1       78.1780   60.1900   16.2480 N.ar  188  TRP188     -0.2442
     53  CE2       78.9120   59.1060   15.8440 C.ar  188  TRP188      0.0810
     54  CE3       81.1770   58.2870   16.0700 C.ar  188  TRP188      0.0012
     55  CZ2       78.5380   58.0020   15.0840 C.ar  188  TRP188      0.0191
     56  CZ3       80.8060   57.1920   15.3130 C.ar  188  TRP188      0.0001
     57  CH2       79.4980   57.0590   14.8280 C.ar  188  TRP188      0.0015
     58  N         86.7990   60.7270   19.6400 N.3   190  TYR190     -0.1227
     59  CA        87.8420   60.5680   18.6230 C.3   190  TYR190      0.1736
     60  C         89.2290   60.5470   19.2490 C.2   190  TYR190      0.2595
     61  O         89.6430   61.5170   19.8820 O.2   190  TYR190     -0.2718
     62  CB        87.7640   61.6980   17.5960 C.3   190  TYR190      0.0548
     63  CG        86.4330   61.8110   16.8630 C.ar  190  TYR190     -0.0200
     64  CD1       86.0390   60.8570   15.9370 C.ar  190  TYR190     -0.0009
     65  CD2       85.5870   62.8900   17.0850 C.ar  190  TYR190     -0.0009
     66  CE1       84.8110   60.9620   15.2540 C.ar  190  TYR190      0.0417
     67  CE2       84.3710   63.0050   16.4080 C.ar  190  TYR190      0.0417
     68  CZ        83.9970   62.0420   15.4920 C.ar  190  TYR190      0.1957
     69  OH        82.7930   62.1710   14.8300 O.3   190  TYR190     -0.2866
     70  N         89.9290   59.4340   19.0990 N.am  191  VAL191     -0.1966
     71  CA        91.2990   59.3380   19.5710 C.3   191  VAL191      0.1727
     72  C         92.2390   59.5090   18.3720 C.2   191  VAL191      0.2616
     73  O         92.2460   58.6790   17.4540 O.2   191  VAL191     -0.2715
     74  CB        91.5650   58.0050   20.2770 C.3   191  VAL191      0.0290
     75  CG1       93.0040   57.9710   20.8170 C.3   191  VAL191      0.0023
     76  CG2       90.5790   57.8290   21.4380 C.3   191  VAL191      0.0023
     77  N         93.0140   60.5910   18.3690 N.am  192  GLY192     -0.1955
     78  CA        93.8370   60.9110   17.2100 C.3   192  GLY192      0.1869
     79  C         95.3150   60.5930   17.4010 C.2   192  GLY192      0.2309
     80  O         95.7790   60.3560   18.5200 O.2   192  GLY192     -0.2863
     81  N         96.4590   61.5620   11.5200 N.3   196  SER196     -0.1202
     82  CA        95.1540   60.9110   11.3640 C.3   196  SER196      0.2020
     83  C         94.1990   62.0520   11.0150 C.2   196  SER196      0.2619
     84  O         94.2960   63.1500   11.5530 O.2   196  SER196     -0.2717
     85  CB        94.7410   60.0990   12.6090 C.3   196  SER196      0.2103
     86  OG        94.3260   60.9110   13.7040 O.3   196  SER196     -0.2182
     87  N         93.2850   61.8120   10.0920 N.am  197  SER197     -0.1937
     88  CA        92.6170   62.9490    9.5000 C.3   197  SER197      0.2055
     89  C         91.1520   62.6880    9.2260 C.2   197  SER197      0.2643
     90  O         90.7170   61.5460    9.0930 O.2   197  SER197     -0.2714
     91  CB        93.3390   63.3430    8.2050 C.3   197  SER197      0.2130
     92  OG        93.1780   62.3380    7.2320 O.3   197  SER197     -0.2179
     93  N         90.3900   63.7630    9.1480 N.am  198  PHE198     -0.1973
     94  CA        88.9770   63.6450    8.8310 C.3   198  PHE198      0.1639
     95  C         88.7470   64.3500    7.5050 C.2   198  PHE198      0.2290
     96  O         89.1220   65.5150    7.3170 O.2   198  PHE198     -0.2864
     97  CB        88.0630   64.1790    9.9690 C.3   198  PHE198      0.0560
     98  CG        88.4250   65.5500   10.5120 C.ar  198  PHE198     -0.0200
     99  CD1       89.4780   65.7120   11.4050 C.ar  198  PHE198     -0.0042
    100  CD2       87.6630   66.6660   10.1800 C.ar  198  PHE198     -0.0042
    101  CE1       89.7860   66.9710   11.9420 C.ar  198  PHE198     -0.0003
    102  CE2       87.9600   67.9280   10.7180 C.ar  198  PHE198     -0.0003
    103  CZ        89.0320   68.0760   11.5930 C.ar  198  PHE198     -0.0000
    104  N         83.6550   67.1680    4.7020 N.3   201  HIS201     -0.1241
    105  CA        82.2750   66.7370    4.8730 C.3   201  HIS201      0.1621
    106  C         81.4510   67.8590    5.4630 C.2   201  HIS201      0.2264
    107  O         81.9880   68.8310    6.0100 O.2   201  HIS201     -0.2867
    108  CB        82.2050   65.5050    5.7860 C.3   201  HIS201      0.0745
    109  CG        82.4800   65.8210    7.2210 C.ar  201  HIS201      0.0817
    110  ND1       83.7500   66.0910    7.6920 N.ar  201  HIS201     -0.2268
    111  CD2       81.6510   65.9420    8.2860 C.ar  201  HIS201      0.1154
    112  CE1       83.6910   66.3560    8.9850 C.ar  201  HIS201      0.1986
    113  NE2       82.4280   66.2700    9.3710 N.ar  201  HIS201     -0.2212
    114  N         77.7620   68.1070    8.0810 N.3   203  GLU203     -0.1245
    115  CA        77.0180   67.2690    9.0110 C.3   203  GLU203      0.1567
    116  C         75.6910   66.8060    8.4100 C.2   203  GLU203      0.2260
    117  O         75.1080   67.4900    7.5570 O.2   203  GLU203     -0.2867
    118  CB        76.7460   68.0200   10.3070 C.3   203  GLU203      0.0388
    119  CG        77.9840   68.5870   10.9690 C.3   203  GLU203      0.1160
    120  CD        79.0740   67.5550   11.1840 C.2   203  GLU203      0.3649
    121  OE1       78.8020   66.4350   11.6580 O.co2 203  GLU203     -0.2457
    122  OE2       80.2270   67.8850   10.8750 O.co2 203  GLU203     -0.2457
    123  N         82.7440   70.7680   18.8730 N.3   211  ASN211     -0.1240
    124  CA        83.8210   69.8090   18.9620 C.3   211  ASN211      0.1653
    125  C         84.7860   70.2870   20.0620 C.2   211  ASN211      0.2266
    126  O         85.2790   71.4100   19.9950 O.2   211  ASN211     -0.2867
    127  CB        84.5200   69.6790   17.5840 C.3   211  ASN211      0.1155
    128  CG        83.5190   69.5930   16.3890 C.2   211  ASN211      0.2627
    129  OD1       82.8670   70.5780   16.0190 O.2   211  ASN211     -0.2716
    130  ND2       83.4380   68.4200   15.7700 N.am  211  ASN211     -0.0877
    131  N         94.4700   69.8110   17.1730 N.3   219  LYS219     -0.1245
    132  CA        93.7760   69.3400   15.9790 C.3   219  LYS219      0.1561
    133  C         93.7160   70.4950   15.0010 C.2   219  LYS219      0.2260
    134  O         93.2780   71.5920   15.3510 O.2   219  LYS219     -0.2867
    135  CB        92.3660   68.8190   16.3470 C.3   219  LYS219      0.0271
    136  CG        91.5650   68.2290   15.1700 C.3   219  LYS219      0.0035
    137  CD        90.1160   67.8670   15.5860 C.3   219  LYS219      0.0206
    138  CE        90.0670   66.8850   16.7840 C.3   219  LYS219      0.1093
    139  NZ        90.5160   65.5010   16.3920 N.3   219  LYS219     -0.1314
    140  N         92.2560   72.3720   11.7530 N.3   221  TRP221     -0.1241
    141  CA        90.9880   72.4190   11.0050 C.3   221  TRP221      0.1605
    142  C         91.0550   73.2910    9.7660 C.2   221  TRP221      0.2264
    143  O         91.7330   74.3200    9.7790 O.2   221  TRP221     -0.2867
    144  CB        89.8620   72.9850   11.8820 C.3   221  TRP221      0.0550
    145  CG        89.4650   72.1580   13.0670 C.ar  221  TRP221      0.0003
    146  CD1       90.1890   71.9490   14.2110 C.ar  221  TRP221      0.0946
    147  CD2       88.2130   71.4770   13.2500 C.ar  221  TRP221      0.0152
    148  NE1       89.4680   71.1610   15.0900 N.ar  221  TRP221     -0.2442
    149  CE2       88.2530   70.8620   14.5250 C.ar  221  TRP221      0.0810
    150  CE3       87.0670   71.3170   12.4500 C.ar  221  TRP221      0.0012
    151  CZ2       87.1870   70.0900   15.0240 C.ar  221  TRP221      0.0191
    152  CZ3       86.0020   70.5560   12.9470 C.ar  221  TRP221      0.0001
    153  CH2       86.0720   69.9520   14.2250 C.ar  221  TRP221      0.0015
    154  N         84.0890   71.0280    6.3160 N.3   289  HIS289     -0.1241
    155  CA        85.3150   71.0800    7.1110 C.3   289  HIS289      0.1621
    156  C         86.0920   69.7880    7.0020 C.2   289  HIS289      0.2264
    157  O         85.5340   68.7470    6.6470 O.2   289  HIS289     -0.2867
    158  CB        85.0190   71.3910    8.5790 C.3   289  HIS289      0.0745
    159  CG        83.9650   70.5230    9.1890 C.ar  289  HIS289      0.0817
    160  ND1       82.6180   70.7250    8.9580 N.ar  289  HIS289     -0.2268
    161  CD2       84.0480   69.4820   10.0530 C.ar  289  HIS289      0.1154
    162  CE1       81.9190   69.8370    9.6430 C.ar  289  HIS289      0.1986
    163  NE2       82.7600   69.0700   10.3160 N.ar  289  HIS289     -0.2212
    164  N         95.1750   65.5180   12.8880 N.3   293  ASN293     -0.1240
    165  CA        95.7180   65.6950   14.2130 C.3   293  ASN293      0.1653
    166  C         97.2370   65.8810   14.1850 C.2   293  ASN293      0.2266
    167  O         97.9240   65.2510   13.3910 O.2   293  ASN293     -0.2867
    168  CB        95.3090   64.5020   15.0740 C.3   293  ASN293      0.1155
    169  CG        93.8020   64.4430   15.2470 C.2   293  ASN293      0.2627
    170  OD1       93.2170   65.3550   15.8380 O.2   293  ASN293     -0.2716
    171  ND2       93.1660   63.4370   14.6670 N.am  293  ASN293     -0.0877
    172  N         89.2970   63.9150   21.5120 N.3   299  ALA299     -0.1245
    173  CA        88.2990   64.9320   21.2450 C.3   299  ALA299      0.1562
    174  C         86.9080   64.3260   21.3890 C.2   299  ALA299      0.2260
    175  O         86.7430   63.1110   21.3160 O.2   299  ALA299     -0.2867
    176  CB        88.4760   65.5180   19.8380 C.3   299  ALA299      0.0290
    177  N         82.7070   65.3130   20.1860 N.3   301  ALA301     -0.1245
    178  CA        81.9380   66.1610   19.2890 C.3   301  ALA301      0.1562
    179  C         80.4620   65.7680   19.2910 C.2   301  ALA301      0.2260
    180  O         80.1440   64.6070   19.4760 O.2   301  ALA301     -0.2867
    181  CB        82.4930   66.0700   17.8670 C.3   301  ALA301      0.0290
@<TRIPOS>BOND
     1   104   105    1
     2   105   106    1
     3   105   108    1
     4   106   107    2
     5   108   109    1
     6    12    13    1
     7   154   155    1
     8   157   156    2
     9    17    18    1
    10    17    16    1
    11   156   155    1
    12   155   158    1
    13   109   110   ar
    14   109   111   ar
    15    92    91    1
    16    96    95    2
    17    13    16    1
    18    13    14    1
    19    95    94    1
    20   117   116    2
    21    18    19    1
    22   110   112   ar
    23    11     9    1
    24   114   115    1
    25    91    88    1
    26   111   113   ar
    27    14    15    2
    28   116   115    1
    29   158   159    1
    30    19    20    2
    31    94    93    1
    32    94    97    1
    33   160   159   ar
    34   160   162   ar
    35   112   113   ar
    36   115   118    1
    37    90    89    2
    38     9    10    1
    39     9     8    2
    40    93    89   am
    41   159   161   ar
    42    89    88    1
    43    88    87    1
    44    21    20    1
    45   162   163   ar
    46    20    22    1
    47   142   143    2
    48   142   141    1
    49    97    98    1
    50     8     7    1
    51   161   163   ar
    52    34    33    1
    53    87    83   am
    54   100    98   ar
    55   100   102   ar
    56   118   119    1
    57    98    99   ar
    58   102   103   ar
    59   122   120   ar
    60    31    33   ar
    61    31    29   ar
    62   119   120    1
    63   141   140    1
    64   141   144    1
    65    83    82    1
    66    83    84    2
    67    33    32   ar
    68   120   121   ar
    69    82    81    1
    70    82    85    1
    71    99   101   ar
    72     7     6    1
    73   103   101   ar
    74     3     2    1
    75     3     4    2
    76   144   145    1
    77     5     6    1
    78     5     2    1
    79    29    28   ar
    80    32    30   ar
    81     2     1    1
    82   150   152   ar
    83   150   147   ar
    84    85    86    1
    85   164   165    1
    86   152   153   ar
    87   145   147   ar
    88   145   146   ar
    89    28    30   ar
    90    28    27    1
    91   147   149   ar
    92   167   166    2
    93   166   165    1
    94    23    24    1
    95   146   148   ar
    96   165   168    1
    97   153   151   ar
    98    27    24    1
    99   149   151   ar
   100   149   148   ar
   101   171   169   am
   102    57    55   ar
   103    57    56   ar
   104    69    68    1
   105    43    40    1
   106   133   134    2
   107   133   132    1
   108   168   169    1
   109    55    53   ar
   110    24    25    1
   111   136   137    1
   112   136   135    1
   113   169   170    2
   114    66    68   ar
   115    66    64   ar
   116    56    54   ar
   117    26    25    2
   118    68    67   ar
   119   137   138    1
   120    25    35   am
   121   130   128   am
   122    53    52   ar
   123    53    51   ar
   124    64    63   ar
   125   132   135    1
   126   132   131    1
   127   129   128    2
   128    54    51   ar
   129    42    41    2
   130    52    50   ar
   131    51    49   ar
   132   128   127    1
   133   139   138    1
   134    67    65   ar
   135    40    39    1
   136    40    41    1
   137    35    36    1
   138    39    37   am
   139    63    65   ar
   140    63    62    1
   141    37    38    2
   142    37    36    1
   143    50    49   ar
   144    49    48    1
   145    78    79    1
   146    78    77    1
   147    79    80    2
   148    73    72    2
   149   127   124    1
   150    62    59    1
   151    48    45    1
   152   181   178    1
   153    77    72   am
   154    72    71    1
   155    59    60    1
   156    59    58    1
   157   123   124    1
   158   124   125    1
   159    70    60   am
   160    70    71    1
   161    60    61    2
   162   178   179    1
   163   178   177    1
   164   179   180    2
   165    45    44    1
   166    45    46    1
   167    71    74    1
   168   176   173    1
   169    46    47    2
   170   126   125    2
   171    74    75    1
   172    74    76    1
   173   173   174    1
   174   173   172    1
   175   175   174    2
