@<TRIPOS>MOLECULE
tmp/5fzhA01.pdb
 112 107 0 0 0
SMALL
GASTEIGER

@<TRIPOS>ATOM
      1  N         84.4740   57.5740    9.1830 N.3    76  VAL76      -0.1245
      2  CA        84.4860   56.5590   10.2360 C.3    76  VAL76       0.1561
      3  C         83.0610   56.1540   10.6560 C.2    76  VAL76       0.2260
      4  O         82.1910   57.0090   10.8570 O.2    76  VAL76      -0.2867
      5  CB        85.2890   57.0610   11.4790 C.3    76  VAL76       0.0252
      6  CG1       85.1090   56.1180   12.6630 C.3    76  VAL76       0.0019
      7  CG2       86.7680   57.1920   11.1340 C.3    76  VAL76       0.0019
      8  N         95.1350   55.9520   14.6440 N.3   134  TYR134     -0.1241
      9  CA        94.3860   56.9060   15.4430 C.3   134  TYR134      0.1605
     10  C         93.1880   56.2090   16.0840 C.2   134  TYR134      0.2264
     11  O         92.8260   55.0800   15.7120 O.2   134  TYR134     -0.2867
     12  CB        93.9240   58.1090   14.6020 C.3   134  TYR134      0.0534
     13  CG        92.9420   57.7670   13.4970 C.ar  134  TYR134     -0.0201
     14  CD1       93.3770   57.2050   12.2930 C.ar  134  TYR134     -0.0009
     15  CD2       91.5710   57.9890   13.6600 C.ar  134  TYR134     -0.0009
     16  CE1       92.4700   56.8820   11.2780 C.ar  134  TYR134      0.0417
     17  CE2       90.6600   57.6690   12.6500 C.ar  134  TYR134      0.0417
     18  CZ        91.1160   57.1110   11.4680 C.ar  134  TYR134      0.1957
     19  OH        90.2270   56.7860   10.4780 O.3   134  TYR134     -0.2866
     20  N         89.0420   56.6420   17.0040 N.3   136  ALA136     -0.1245
     21  CA        87.8020   57.4210   16.8550 C.3   136  ALA136      0.1562
     22  C         86.6000   56.5540   17.2050 C.2   136  ALA136      0.2260
     23  O         86.4030   55.5150   16.5980 O.2   136  ALA136     -0.2867
     24  CB        87.6640   57.9830   15.4320 C.3   136  ALA136      0.0290
     25  N         88.4650   61.2510   20.1790 N.3   195  TYR195     -0.1241
     26  CA        89.5560   61.1370   19.1910 C.3   195  TYR195      0.1605
     27  C         90.9680   61.0850   19.8160 C.2   195  TYR195      0.2264
     28  O         91.3970   62.0600   20.4300 O.2   195  TYR195     -0.2867
     29  CB        89.4970   62.3300   18.2300 C.3   195  TYR195      0.0534
     30  CG        88.2000   62.4530   17.4430 C.ar  195  TYR195     -0.0201
     31  CD1       87.8070   61.4580   16.5500 C.ar  195  TYR195     -0.0009
     32  CD2       87.3800   63.5760   17.5820 C.ar  195  TYR195     -0.0009
     33  CE1       86.6200   61.5670   15.8120 C.ar  195  TYR195      0.0417
     34  CE2       86.1840   63.7020   16.8440 C.ar  195  TYR195      0.0417
     35  CZ        85.8210   62.6990   15.9640 C.ar  195  TYR195      0.1957
     36  OH        84.6510   62.8190   15.2410 O.3   195  TYR195     -0.2866
     37  N         94.7750   61.2080   18.9370 N.3   197  GLY197     -0.1225
     38  CA        95.6460   61.5050   17.7950 C.3   197  GLY197      0.1811
     39  C         97.1310   61.1470   17.9470 C.2   197  GLY197      0.2280
     40  O         97.6130   60.9280   19.0730 O.2   197  GLY197     -0.2866
     41  N         98.2170   62.2480   11.9690 N.3   201  SER201     -0.1202
     42  CA        96.8780   61.6440   11.8220 C.3   201  SER201      0.2020
     43  C         95.9240   62.7940   11.4950 C.2   201  SER201      0.2619
     44  O         96.0320   63.8900   12.0670 O.2   201  SER201     -0.2717
     45  CB        96.4440   60.8380   13.0680 C.3   201  SER201      0.2103
     46  OG        96.0860   61.6700   14.1600 O.3   201  SER201     -0.2182
     47  N         95.0020   62.5550   10.5670 N.am  202  SER202     -0.1937
     48  CA        94.2540   63.6640   10.0190 C.3   202  SER202      0.2055
     49  C         92.7660   63.3690    9.7890 C.2   202  SER202      0.2643
     50  O         92.3390   62.2160    9.7230 O.2   202  SER202     -0.2714
     51  CB        94.9100   64.0940    8.7010 C.3   202  SER202      0.2130
     52  OG        94.9560   63.0030    7.8060 O.3   202  SER202     -0.2179
     53  N         91.9790   64.4260    9.6560 N.am  203  PHE203     -0.1973
     54  CA        90.5720   64.2650    9.2800 C.3   203  PHE203      0.1639
     55  C         90.3190   64.9730    7.9460 C.2   203  PHE203      0.2290
     56  O         90.6570   66.1590    7.7740 O.2   203  PHE203     -0.2864
     57  CB        89.5940   64.7460   10.4020 C.3   203  PHE203      0.0560
     58  CG        89.9260   66.0860   11.0240 C.ar  203  PHE203     -0.0200
     59  CD1       90.9610   66.2010   11.9590 C.ar  203  PHE203     -0.0042
     60  CD2       89.1680   67.2200   10.7240 C.ar  203  PHE203     -0.0042
     61  CE1       91.2790   67.4350   12.5500 C.ar  203  PHE203     -0.0003
     62  CE2       89.4530   68.4470   11.3260 C.ar  203  PHE203     -0.0003
     63  CZ        90.5240   68.5590   12.2440 C.ar  203  PHE203     -0.0000
     64  N         85.1660   67.7910    5.3080 N.3   206  HIS206     -0.1241
     65  CA        83.7530   67.3360    5.4600 C.3   206  HIS206      0.1621
     66  C         82.9110   68.4340    6.0750 C.2   206  HIS206      0.2264
     67  O         83.4560   69.4130    6.6140 O.2   206  HIS206     -0.2867
     68  CB        83.6900   66.0830    6.3390 C.3   206  HIS206      0.0745
     69  CG        83.9450   66.3640    7.7920 C.ar  206  HIS206      0.0817
     70  ND1       85.2180   66.4540    8.3150 N.ar  206  HIS206     -0.2268
     71  CD2       83.0990   66.5320    8.8410 C.ar  206  HIS206      0.1154
     72  CE1       85.1510   66.7040    9.6140 C.ar  206  HIS206      0.1986
     73  NE2       83.8750   66.7560    9.9600 N.ar  206  HIS206     -0.2212
     74  N         84.5190   71.1890   19.2960 N.3   216  ASN216     -0.1240
     75  CA        85.5780   70.2260   19.5700 C.3   216  ASN216      0.1653
     76  C         86.4660   70.7570   20.7200 C.2   216  ASN216      0.2266
     77  O         86.9140   71.9130   20.6990 O.2   216  ASN216     -0.2867
     78  CB        86.3830   69.9840   18.2510 C.3   216  ASN216      0.1155
     79  CG        87.5780   69.0010   18.4200 C.2   216  ASN216      0.2627
     80  OD1       88.4190   69.1660   19.3140 O.2   216  ASN216     -0.2716
     81  ND2       87.6610   67.9830   17.5280 N.am  216  ASN216     -0.0877
     82  N         96.3380   70.6620   17.6270 N.3   224  LYS224     -0.1245
     83  CA        95.5910   70.1300   16.4910 C.3   224  LYS224      0.1561
     84  C         95.4910   71.2580   15.4940 C.2   224  LYS224      0.2260
     85  O         95.0240   72.3300   15.8420 O.2   224  LYS224     -0.2867
     86  CB        94.1750   69.6330   16.9380 C.3   224  LYS224      0.0271
     87  CG        93.3520   68.9260   15.8490 C.3   224  LYS224      0.0035
     88  CD        91.9270   68.5210   16.3050 C.3   224  LYS224      0.0206
     89  CE        91.9400   67.4650   17.4290 C.3   224  LYS224      0.1093
     90  NZ        92.3090   66.0560   17.0230 N.3   224  LYS224     -0.1314
     91  N         93.9180   73.1080   12.1720 N.3   226  TRP226     -0.1241
     92  CA        92.6160   73.1590   11.4810 C.3   226  TRP226      0.1605
     93  C         92.6380   74.0220   10.2370 C.2   226  TRP226      0.2264
     94  O         93.3280   75.0560   10.2170 O.2   226  TRP226     -0.2867
     95  CB        91.5180   73.7450   12.4110 C.3   226  TRP226      0.0550
     96  CG        91.0930   72.8710   13.5740 C.ar  226  TRP226      0.0003
     97  CD1       91.7880   72.6300   14.7300 C.ar  226  TRP226      0.0946
     98  CD2       89.8420   72.1840   13.7090 C.ar  226  TRP226      0.0152
     99  NE1       91.0680   71.7970   15.5550 N.ar  226  TRP226     -0.2442
    100  CE2       89.8630   71.5180   14.9610 C.ar  226  TRP226      0.0810
    101  CE3       88.7010   72.0680   12.8860 C.ar  226  TRP226      0.0012
    102  CZ2       88.7860   70.7280   15.4220 C.ar  226  TRP226      0.0191
    103  CZ3       87.6220   71.2830   13.3400 C.ar  226  TRP226      0.0001
    104  CH2       87.6800   70.6190   14.5970 C.ar  226  TRP226      0.0015
    105  N         96.8120   66.2410   13.4170 N.3   298  ASN298     -0.1240
    106  CA        97.3870   66.3860   14.7410 C.3   298  ASN298      0.1653
    107  C         98.9170   66.5740   14.6940 C.2   298  ASN298      0.2266
    108  O         99.6030   65.9290   13.8980 O.2   298  ASN298     -0.2867
    109  CB        97.0430   65.1630   15.5690 C.3   298  ASN298      0.1155
    110  CG        95.5580   65.0460   15.7980 C.2   298  ASN298      0.2627
    111  OD1       94.9540   65.9610   16.3490 O.2   298  ASN298     -0.2716
    112  ND2       94.9520   63.9560   15.3150 N.am  298  ASN298     -0.0877
@<TRIPOS>BOND
     1    64    65    1
     2    65    66    1
     3    65    68    1
     4    66    67    2
     5    68    69    1
     6    56    55    2
     7    69    70   ar
     8    69    71   ar
     9    52    51    1
    10    55    54    1
    11    70    72   ar
    12    51    48    1
    13    71    73   ar
    14     1     2    1
    15    54    53    1
    16    54    57    1
    17    72    73   ar
    18    53    49   am
    19    50    49    2
    20    49    48    1
    21    48    47    1
    22    94    93    2
    23     2     3    1
    24     2     5    1
    25    93    92    1
    26    57    58    1
    27    19    18    1
    28    47    43   am
    29     3     4    2
    30    60    58   ar
    31    60    62   ar
    32    58    59   ar
    33     7     5    1
    34    16    18   ar
    35    16    14   ar
    36    62    63   ar
    37    18    17   ar
    38     5     6    1
    39    92    91    1
    40    92    95    1
    41    43    42    1
    42    43    44    2
    43    42    41    1
    44    42    45    1
    45    59    61   ar
    46    63    61   ar
    47    14    13   ar
    48    95    96    1
    49    17    15   ar
    50   101   103   ar
    51   101    98   ar
    52    45    46    1
    53   103   104   ar
    54   105   106    1
    55    13    15   ar
    56    13    12    1
    57    96    98   ar
    58    96    97   ar
    59    98   100   ar
    60   108   107    2
    61   104   102   ar
    62    12     9    1
    63     8     9    1
    64   107   106    1
    65    97    99   ar
    66   106   109    1
    67   100   102   ar
    68   100    99   ar
    69    36    35    1
    70   112   110   am
    71    24    21    1
    72     9    10    1
    73    84    85    2
    74    84    83    1
    75   109   110    1
    76    11    10    2
    77   110   111    2
    78    33    35   ar
    79    33    31   ar
    80    87    88    1
    81    87    86    1
    82    35    34   ar
    83    88    89    1
    84    83    86    1
    85    83    82    1
    86    31    30   ar
    87    23    22    2
    88    34    32   ar
    89    21    20    1
    90    21    22    1
    91    90    89    1
    92    30    32   ar
    93    30    29    1
    94    81    79   am
    95    38    39    1
    96    38    37    1
    97    39    40    2
    98    29    26    1
    99    78    79    1
   100    78    75    1
   101    79    80    2
   102    26    27    1
   103    26    25    1
   104    74    75    1
   105    75    76    1
   106    27    28    2
   107    77    76    2
