@<TRIPOS>MOLECULE
tmp/5fziA00.pdb
 179 173 0 0 0
SMALL
GASTEIGER

@<TRIPOS>ATOM
      1  N         82.6650   56.5990    5.1550 N.3    75  ARG75      -0.1231
      2  CA        82.2670   57.2280    6.4030 C.3    75  ARG75       0.1694
      3  C         82.2860   56.2450    7.5750 C.2    75  ARG75       0.2591
      4  O         81.8810   55.0880    7.4380 O.2    75  ARG75      -0.2718
      5  CB        80.8750   57.8330    6.2480 C.3    75  ARG75       0.0321
      6  CG        80.2220   58.2590    7.5410 C.3    75  ARG75       0.0489
      7  CD        78.8540   58.8460    7.2530 C.3    75  ARG75       0.2205
      8  NE        78.2360   59.3920    8.4540 N.pl3  75  ARG75      -0.0865
      9  CZ        77.2140   60.2390    8.4420 C.cat  75  ARG75       0.5346
     10  NH1       76.7090   60.6500    7.2840 N.pl3  75  ARG75       0.1354
     11  NH2       76.7120   60.6850    9.5870 N.pl3  75  ARG75       0.1354
     12  N         82.7860   56.7130    8.7130 N.am   76  VAL76      -0.1980
     13  CA        82.8220   55.9140    9.9310 C.3    76  VAL76       0.1595
     14  C         81.4360   55.3860   10.2870 C.2    76  VAL76       0.2287
     15  O         80.4650   56.1410   10.3150 O.2    76  VAL76      -0.2864
     16  CB        83.3770   56.7320   11.1290 C.3    76  VAL76       0.0276
     17  CG1       83.3400   55.9010   12.3930 C.3    76  VAL76       0.0022
     18  CG2       84.7980   57.2100   10.8410 C.3    76  VAL76       0.0022
     19  N         93.1890   55.3380   14.3120 N.3   134  TYR134     -0.1227
     20  CA        92.4880   56.3040   15.1530 C.3   134  TYR134      0.1736
     21  C         91.3030   55.6230   15.8040 C.2   134  TYR134      0.2596
     22  O         90.9870   54.4830   15.4710 O.2   134  TYR134     -0.2718
     23  CB        92.0240   57.5160   14.3440 C.3   134  TYR134      0.0548
     24  CG        91.0690   57.1630   13.2310 C.ar  134  TYR134     -0.0200
     25  CD1       91.5340   56.6460   12.0220 C.ar  134  TYR134     -0.0009
     26  CD2       89.6980   57.3350   13.3860 C.ar  134  TYR134     -0.0009
     27  CE1       90.6500   56.3130   10.9910 C.ar  134  TYR134      0.0417
     28  CE2       88.8120   56.9970   12.3690 C.ar  134  TYR134      0.0417
     29  CZ        89.2960   56.4910   11.1730 C.ar  134  TYR134      0.1957
     30  OH        88.4150   56.1600   10.1620 O.3   134  TYR134     -0.2866
     31  N         90.6500   56.3220   16.7260 N.am  135  GLY135     -0.1942
     32  CA        89.4660   55.7880   17.3690 C.3   135  GLY135      0.2014
     33  C         88.3060   56.6910   17.0380 C.2   135  GLY135      0.2638
     34  O         88.4490   57.9120   16.9750 O.2   135  GLY135     -0.2714
     35  N         87.1460   56.0980   16.7980 N.am  136  ALA136     -0.1977
     36  CA        85.9340   56.8770   16.5650 C.3   136  ALA136      0.1597
     37  C         84.7290   56.0350   16.9520 C.2   136  ALA136      0.2287
     38  O         84.4920   54.9890   16.3660 O.2   136  ALA136     -0.2864
     39  CB        85.8310   57.3280   15.1040 C.3   136  ALA136      0.0319
     40  N         86.6480   60.7720   19.7490 N.3   196  TYR196     -0.1241
     41  CA        87.6670   60.6680   18.7090 C.3   196  TYR196      0.1605
     42  C         89.0460   60.6350   19.3170 C.2   196  TYR196      0.2264
     43  O         89.4620   61.6120   19.9490 O.2   196  TYR196     -0.2867
     44  CB        87.5670   61.8530   17.7440 C.3   196  TYR196      0.0534
     45  CG        86.2880   61.8720   16.9260 C.ar  196  TYR196     -0.0201
     46  CD1       85.9900   60.8390   16.0370 C.ar  196  TYR196     -0.0009
     47  CD2       85.3890   62.9280   17.0320 C.ar  196  TYR196     -0.0009
     48  CE1       84.8190   60.8580   15.2800 C.ar  196  TYR196      0.0417
     49  CE2       84.2210   62.9530   16.2770 C.ar  196  TYR196      0.0417
     50  CZ        83.9490   61.9220   15.4150 C.ar  196  TYR196      0.1957
     51  OH        82.8040   61.9470   14.6750 O.3   196  TYR196     -0.2866
     52  N         93.0410   61.7450   10.0510 N.3   203  SER203     -0.1202
     53  CA        92.3170   62.8630    9.4890 C.3   203  SER203      0.2020
     54  C         90.8380   62.5920    9.3150 C.2   203  SER203      0.2619
     55  O         90.3890   61.4380    9.2830 O.2   203  SER203     -0.2717
     56  CB        92.9400   63.2640    8.1400 C.3   203  SER203      0.2103
     57  OG        93.1010   62.1350    7.3240 O.3   203  SER203     -0.2182
     58  N         90.0860   63.6760    9.2380 N.am  204  PHE204     -0.1961
     59  CA        88.6880   63.5740    8.8950 C.3   204  PHE204      0.1771
     60  C         88.4910   64.2840    7.5560 C.2   204  PHE204      0.2619
     61  O         88.8760   65.4390    7.3870 O.2   204  PHE204     -0.2715
     62  CB        87.7720   64.1290   10.0250 C.3   204  PHE204      0.0574
     63  CG        88.1740   65.4890   10.5880 C.ar  204  PHE204     -0.0200
     64  CD1       89.2380   65.6170   11.4730 C.ar  204  PHE204     -0.0042
     65  CD2       87.4360   66.6220   10.2800 C.ar  204  PHE204     -0.0042
     66  CE1       89.5860   66.8620   12.0020 C.ar  204  PHE204     -0.0003
     67  CE2       87.7700   67.8690   10.8190 C.ar  204  PHE204     -0.0003
     68  CZ        88.8400   67.9910   11.6770 C.ar  204  PHE204     -0.0000
     69  N         87.9310   63.5460    6.5970 N.am  205  CYS205     -0.1968
     70  CA        87.6940   64.0140    5.2360 C.3   205  CYS205      0.1712
     71  C         86.6290   65.0880    5.1680 C.2   205  CYS205      0.2296
     72  O         85.8850   65.3070    6.1240 O.2   205  CYS205     -0.2864
     73  CB        87.2970   62.8390    4.3310 C.3   205  CYS205      0.0983
     74  SG        88.5100   61.4660    4.2570 S.3   205  CYS205     -0.0798
     75  N         83.3410   67.0010    4.6790 N.3   207  HIS207     -0.1226
     76  CA        81.9340   66.6210    4.8130 C.3   207  HIS207      0.1752
     77  C         81.1400   67.7610    5.3990 C.2   207  HIS207      0.2596
     78  O         81.6980   68.7210    5.9490 O.2   207  HIS207     -0.2718
     79  CB        81.7780   65.3890    5.7140 C.3   207  HIS207      0.0759
     80  CG        82.0700   65.6690    7.1550 C.ar  207  HIS207      0.0818
     81  ND1       83.3550   65.7510    7.6520 N.ar  207  HIS207     -0.2268
     82  CD2       81.2450   65.9280    8.1970 C.ar  207  HIS207      0.1154
     83  CE1       83.3050   66.0260    8.9440 C.ar  207  HIS207      0.1986
     84  NE2       82.0360   66.1280    9.3010 N.ar  207  HIS207     -0.2212
     85  N         79.8220   67.6340    5.3120 N.am  208  ILE208     -0.1966
     86  CA        78.9210   68.4410    6.1210 C.3   208  ILE208      0.1727
     87  C         78.1320   67.4910    7.0210 C.2   208  ILE208      0.2616
     88  O         78.1100   66.2800    6.7860 O.2   208  ILE208     -0.2715
     89  CB        77.9700   69.2840    5.2710 C.3   208  ILE208      0.0290
     90  CG1       77.2940   68.4170    4.2060 C.3   208  ILE208      0.0022
     91  CG2       78.7250   70.4240    4.6150 C.3   208  ILE208      0.0023
     92  CD1       76.3950   69.2140    3.2720 C.3   208  ILE208      0.0001
     93  N         77.4870   68.0270    8.0500 N.am  209  GLU209     -0.1963
     94  CA        76.7570   67.1650    8.9790 C.3   209  GLU209      0.1733
     95  C         75.4380   66.7020    8.3650 C.2   209  GLU209      0.2616
     96  O         74.8740   67.3870    7.4990 O.2   209  GLU209     -0.2715
     97  CB        76.4730   67.8920   10.2910 C.3   209  GLU209      0.0429
     98  CG        77.7120   68.4500   10.9570 C.3   209  GLU209      0.1163
     99  CD        78.8230   67.4090   11.0930 C.2   209  GLU209      0.3649
    100  OE1       78.5640   66.2640   11.5020 O.co2 209  GLU209     -0.2457
    101  OE2       79.9700   67.7480   10.7980 O.co2 209  GLU209     -0.2457
    102  N         74.9600   65.5470    8.8170 N.am  210  ASP210     -0.1971
    103  CA        73.6380   65.0570    8.4400 C.3   210  ASP210      0.1709
    104  C         72.5850   66.1190    8.6950 C.2   210  ASP210      0.2293
    105  O         72.6260   66.7990    9.7210 O.2   210  ASP210     -0.2864
    106  CB        73.2860   63.7840    9.2180 C.3   210  ASP210      0.1436
    107  CG        74.1430   62.5950    8.8240 C.2   210  ASP210      0.3671
    108  OD1       74.5740   62.5400    7.6570 O.co2 210  ASP210     -0.2456
    109  OD2       74.3670   61.7050    9.6770 O.co2 210  ASP210     -0.2456
    110  N         82.6160   70.6800   18.7270 N.3   217  ASN217     -0.1240
    111  CA        83.7250   69.7680   18.9990 C.3   217  ASN217      0.1653
    112  C         84.5340   70.3370   20.1550 C.2   217  ASN217      0.2266
    113  O         84.8580   71.5260   20.1620 O.2   217  ASN217     -0.2867
    114  CB        84.6320   69.5990   17.7530 C.3   217  ASN217      0.1155
    115  CG        85.7660   68.5480   17.9430 C.2   217  ASN217      0.2627
    116  OD1       86.7150   68.7500   18.7170 O.2   217  ASN217     -0.2716
    117  ND2       85.6930   67.4510   17.1760 N.am  217  ASN217     -0.0877
    118  N         94.2970   69.9350   17.0350 N.3   225  LYS225     -0.1245
    119  CA        93.5860   69.3980   15.8790 C.3   225  LYS225      0.1561
    120  C         93.4920   70.5300   14.8660 C.2   225  LYS225      0.2260
    121  O         93.0190   71.6240   15.1870 O.2   225  LYS225     -0.2867
    122  CB        92.1940   68.8630   16.2920 C.3   225  LYS225      0.0271
    123  CG        91.3780   68.2150   15.1560 C.3   225  LYS225      0.0035
    124  CD        89.9400   67.8080   15.6370 C.3   225  LYS225      0.0206
    125  CE        89.9480   66.8360   16.8310 C.3   225  LYS225      0.1093
    126  NZ        90.3210   65.4260   16.4860 N.3   225  LYS225     -0.1314
    127  N         92.0240   72.3460   11.5860 N.3   227  TRP227     -0.1241
    128  CA        90.7450   72.3730   10.8680 C.3   227  TRP227      0.1605
    129  C         90.8040   73.2200    9.6210 C.2   227  TRP227      0.2264
    130  O         91.4990   74.2390    9.6020 O.2   227  TRP227     -0.2867
    131  CB        89.6280   72.9570   11.7540 C.3   227  TRP227      0.0550
    132  CG        89.2150   72.1410   12.9530 C.ar  227  TRP227      0.0003
    133  CD1       89.9250   71.9420   14.1060 C.ar  227  TRP227      0.0946
    134  CD2       87.9600   71.4690   13.1340 C.ar  227  TRP227      0.0152
    135  NE1       89.1990   71.1660   14.9810 N.ar  227  TRP227     -0.2442
    136  CE2       87.9860   70.8700   14.4100 C.ar  227  TRP227      0.0810
    137  CE3       86.8240   71.3130   12.3370 C.ar  227  TRP227      0.0012
    138  CZ2       86.9070   70.1210   14.9150 C.ar  227  TRP227      0.0191
    139  CZ3       85.7520   70.5580   12.8370 C.ar  227  TRP227      0.0001
    140  CH2       85.8060   69.9760   14.1170 C.ar  227  TRP227      0.0015
    141  N         78.4720   55.9570    2.3620 N.3   259  GLN259     -0.1245
    142  CA        78.8250   57.3140    1.9510 C.3   259  GLN259      0.1566
    143  C         80.3360   57.4940    1.7710 C.2   259  GLN259      0.2260
    144  O         81.1220   57.0880    2.6240 O.2   259  GLN259     -0.2867
    145  CB        78.2970   58.3100    2.9770 C.3   259  GLN259      0.0367
    146  CG        78.0600   59.7070    2.4500 C.3   259  GLN259      0.0905
    147  CD        77.6690   60.6630    3.5620 C.2   259  GLN259      0.2608
    148  OE1       77.1170   60.2510    4.5920 O.2   259  GLN259     -0.2717
    149  NE2       77.9650   61.9440    3.3690 N.am  259  GLN259     -0.0878
    150  N         83.8190   59.8170    1.0990 N.3   261  VAL261     -0.1245
    151  CA        84.3840   61.1400    1.3690 C.3   261  VAL261      0.1561
    152  C         85.8830   61.1040    1.0640 C.2   261  VAL261      0.2260
    153  O         86.4430   60.0350    0.8790 O.2   261  VAL261     -0.2867
    154  CB        84.1490   61.5710    2.8380 C.3   261  VAL261      0.0252
    155  CG1       82.6630   61.8540    3.0960 C.3   261  VAL261      0.0019
    156  CG2       84.6810   60.5080    3.7980 C.3   261  VAL261      0.0019
    157  N         83.8210   70.9510    6.2230 N.3   295  HIS295     -0.1241
    158  CA        85.0140   71.0280    7.0600 C.3   295  HIS295      0.1621
    159  C         85.7920   69.7320    6.9330 C.2   295  HIS295      0.2264
    160  O         85.2350   68.6910    6.5610 O.2   295  HIS295     -0.2867
    161  CB        84.6650   71.3200    8.5390 C.3   295  HIS295      0.0745
    162  CG        83.6220   70.4060    9.1280 C.ar  295  HIS295      0.0817
    163  ND1       82.2710   70.5770    8.8920 N.ar  295  HIS295     -0.2268
    164  CD2       83.7240   69.3420    9.9630 C.ar  295  HIS295      0.1154
    165  CE1       81.5900   69.6460    9.5390 C.ar  295  HIS295      0.1986
    166  NE2       82.4450   68.8870   10.2040 N.ar  295  HIS295     -0.2212
    167  N         94.8890   65.5160   12.8300 N.3   299  ASN299     -0.1240
    168  CA        95.4490   65.7480   14.1480 C.3   299  ASN299      0.1653
    169  C         96.9480   65.9970   14.1020 C.2   299  ASN299      0.2266
    170  O         97.6560   65.3710   13.3180 O.2   299  ASN299     -0.2867
    171  CB        95.1320   64.5550   15.0270 C.3   299  ASN299      0.1155
    172  CG        93.6510   64.4140   15.2280 C.2   299  ASN299      0.2627
    173  OD1       93.0320   65.2910   15.8210 O.2   299  ASN299     -0.2716
    174  ND2       93.0650   63.3710   14.6790 N.am  299  ASN299     -0.0877
    175  N         82.5340   65.3390   20.1810 N.3   307  ALA307     -0.1245
    176  CA        81.7760   66.2070   19.3030 C.3   307  ALA307      0.1562
    177  C         80.3070   65.7750   19.2280 C.2   307  ALA307      0.2260
    178  O         80.0060   64.6000   19.3430 O.2   307  ALA307     -0.2867
    179  CB        82.3960   66.1950   17.9230 C.3   307  ALA307      0.0290
@<TRIPOS>BOND
     1   153   152    2
     2   152   151    1
     3   150   151    1
     4   151   154    1
     5   143   142    1
     6   143   144    2
     7   142   141    1
     8   142   145    1
     9   146   145    1
    10   146   147    1
    11   154   155    1
    12   154   156    1
    13    92    90    1
    14   149   147   am
    15   147   148    2
    16    90    89    1
    17    74    73    1
    18    73    70    1
    19    91    89    1
    20    75    76    1
    21    76    77    1
    22    76    79    1
    23     1     2    1
    24    71    70    1
    25    71    72    2
    26    70    69    1
    27    89    86    1
    28    85    77   am
    29    85    86    1
    30    77    78    2
    31    79    80    1
    32    86    87    1
    33   157   158    1
    34     5     2    1
    35     5     6    1
    36     2     3    1
    37   160   159    2
    38    69    60   am
    39    88    87    2
    40   159   158    1
    41    87    93   am
    42   158   161    1
    43    80    81   ar
    44    80    82   ar
    45     7     6    1
    46     7     8    1
    47    10     9    1
    48    57    56    1
    49    61    60    2
    50     4     3    2
    51    96    95    2
    52    60    59    1
    53     3    12   am
    54    81    83   ar
    55   108   107   ar
    56    93    94    1
    57    56    53    1
    58    82    84   ar
    59    95   102   am
    60    95    94    1
    61   103   104    1
    62   103   102    1
    63   103   106    1
    64     9     8    2
    65     9    11    1
    66   161   162    1
    67   104   105    2
    68    12    13    1
    69   107   106    1
    70   107   109   ar
    71   163   162   ar
    72   163   165   ar
    73    59    58    1
    74    59    62    1
    75    83    84   ar
    76    94    97    1
    77   162   164   ar
    78    58    54   am
    79    55    54    2
    80    54    53    1
    81    53    52    1
    82   165   166   ar
    83   130   129    2
    84   129   128    1
    85    13    14    1
    86    13    16    1
    87   164   166   ar
    88    62    63    1
    89    30    29    1
    90    65    63   ar
    91    65    67   ar
    92    14    15    2
    93    97    98    1
    94    63    64   ar
    95   101    99   ar
    96    67    68   ar
    97    18    16    1
    98   128   127    1
    99   128   131    1
   100    98    99    1
   101    27    29   ar
   102    27    25   ar
   103    99   100   ar
   104    16    17    1
   105    29    28   ar
   106    64    66   ar
   107    68    66   ar
   108   131   132    1
   109    25    24   ar
   110   137   139   ar
   111   137   134   ar
   112    28    26   ar
   113   167   168    1
   114   139   140   ar
   115   132   134   ar
   116   132   133   ar
   117   134   136   ar
   118    24    26   ar
   119    24    23    1
   120   170   169    2
   121   169   168    1
   122   133   135   ar
   123   140   138   ar
   124   168   171    1
   125    19    20    1
   126    23    20    1
   127   136   138   ar
   128   136   135   ar
   129    51    50    1
   130   174   172   am
   131   120   121    2
   132   120   119    1
   133   171   172    1
   134    39    36    1
   135    20    21    1
   136   123   124    1
   137   123   122    1
   138   172   173    2
   139    48    50   ar
   140    48    46   ar
   141    50    49   ar
   142    22    21    2
   143   124   125    1
   144    21    31   am
   145   119   122    1
   146   119   118    1
   147    46    45   ar
   148    49    47   ar
   149    38    37    2
   150   126   125    1
   151    36    35    1
   152    36    37    1
   153    31    32    1
   154    35    33   am
   155    45    47   ar
   156    45    44    1
   157    34    33    2
   158    33    32    1
   159   117   115   am
   160    44    41    1
   161   114   115    1
   162   114   111    1
   163   179   176    1
   164   115   116    2
   165    41    42    1
   166    41    40    1
   167   110   111    1
   168   111   112    1
   169   177   176    1
   170   177   178    2
   171   176   175    1
   172    42    43    2
   173   112   113    2
