@<TRIPOS>MOLECULE
tmp/5fzkA00.pdb
 163 157 0 0 0
SMALL
GASTEIGER

@<TRIPOS>ATOM
      1  N         92.2480   51.8720   10.5320 N.3    64  ILE64      -0.1231
      2  CA        93.4890   52.0920    9.7830 C.3    64  ILE64       0.1692
      3  C         93.2460   53.0480    8.6240 C.2    64  ILE64       0.2591
      4  O         92.2180   52.9830    7.9510 O.2    64  ILE64      -0.2718
      5  CB        94.0760   50.7760    9.2330 C.3    64  ILE64       0.0266
      6  CG1       94.2390   49.7590   10.3580 C.3    64  ILE64       0.0019
      7  CG2       95.4310   51.0230    8.5580 C.3    64  ILE64       0.0020
      8  CD1       94.9710   48.4950    9.9320 C.3    64  ILE64       0.0001
      9  N         94.1990   53.9350    8.3920 N.am   65  GLN65      -0.1979
     10  CA        94.0000   55.0160    7.4490 C.3    65  GLN65       0.1601
     11  C         95.2230   55.2110    6.5660 C.2    65  GLN65       0.2287
     12  O         96.3240   55.3910    7.0710 O.2    65  GLN65      -0.2864
     13  CB        93.6820   56.3050    8.2180 C.3    65  GLN65       0.0394
     14  CG        93.3120   57.4730    7.3680 C.3    65  GLN65       0.0908
     15  CD        92.8820   58.6750    8.1910 C.2    65  GLN65       0.2608
     16  OE1       93.5510   59.0630    9.1530 O.2    65  GLN65      -0.2717
     17  NE2       91.7640   59.2760    7.8080 N.am   65  GLN65      -0.0878
     18  N         87.7310   57.4310    0.8820 N.3    73  GLN73      -0.1231
     19  CA        87.6250   56.7890    2.1900 C.3    73  GLN73       0.1698
     20  C         86.1520   56.7200    2.5830 C.2    73  GLN73       0.2593
     21  O         85.3530   57.5640    2.1630 O.2    73  GLN73      -0.2718
     22  CB        88.4220   57.5540    3.2510 C.3    73  GLN73       0.0381
     23  CG        89.9090   57.6700    2.9620 C.3    73  GLN73       0.0905
     24  CD        90.6620   58.3800    4.0840 C.2    73  GLN73       0.2608
     25  OE1       90.5050   58.0550    5.2670 O.2    73  GLN73      -0.2717
     26  NE2       91.4610   59.3720    3.7180 N.am   73  GLN73      -0.0878
     27  N         85.7880   55.7130    3.3700 N.am   74  THR74      -0.1939
     28  CA        84.4190   55.6030    3.8640 C.3    74  THR74       0.2028
     29  C         84.3750   56.2850    5.2250 C.2    74  THR74       0.2642
     30  O         85.2620   56.0760    6.0540 O.2    74  THR74      -0.2714
     31  CB        83.9520   54.1330    3.9740 C.3    74  THR74       0.1808
     32  OG1       84.5110   53.5390    5.1500 O.3    74  THR74      -0.2208
     33  CG2       84.3920   53.3360    2.7510 C.3    74  THR74       0.0379
     34  N         83.3520   57.0950    5.4650 N.am   75  ARG75      -0.1977
     35  CA        83.4110   58.0310    6.5860 C.3    75  ARG75       0.1597
     36  C         83.2640   57.4010    7.9760 C.2    75  ARG75       0.2287
     37  O         83.9480   57.8120    8.9230 O.2    75  ARG75      -0.2864
     38  CB        82.3640   59.1200    6.4130 C.3    75  ARG75       0.0334
     39  CG        82.7650   60.3960    7.1240 C.3    75  ARG75       0.0492
     40  CD        81.6380   61.4210    7.1020 C.3    75  ARG75       0.2205
     41  NE        81.5480   62.1110    8.3830 N.pl3  75  ARG75      -0.0865
     42  CZ        80.4080   62.3880    9.0030 C.cat  75  ARG75       0.5346
     43  NH1       79.2470   62.0550    8.4420 N.pl3  75  ARG75       0.1354
     44  NH2       80.4390   63.0090   10.1780 N.pl3  75  ARG75       0.1354
     45  N         93.6620   55.3160   14.3240 N.3   128  TYR128     -0.1241
     46  CA        92.9400   56.2220   15.2070 C.3   128  TYR128      0.1605
     47  C         91.7120   55.5540   15.7940 C.2   128  TYR128      0.2264
     48  O         91.2990   54.4800   15.3620 O.2   128  TYR128     -0.2867
     49  CB        92.5270   57.4890   14.4600 C.3   128  TYR128      0.0534
     50  CG        91.5510   57.2100   13.3500 C.ar  128  TYR128     -0.0201
     51  CD1       91.9890   56.7100   12.1270 C.ar  128  TYR128     -0.0009
     52  CD2       90.1870   57.4210   13.5250 C.ar  128  TYR128     -0.0009
     53  CE1       91.0980   56.4300   11.1050 C.ar  128  TYR128      0.0417
     54  CE2       89.2880   57.1550   12.4990 C.ar  128  TYR128      0.0417
     55  CZ        89.7540   56.6590   11.2940 C.ar  128  TYR128      0.1957
     56  OH        88.8780   56.3860   10.2700 O.3   128  TYR128     -0.2866
     57  N         87.6250   56.0730   16.7520 N.3   130  ALA130     -0.1245
     58  CA        86.3910   56.8340   16.6140 C.3   130  ALA130      0.1562
     59  C         85.1970   55.9250   16.9260 C.2   130  ALA130      0.2260
     60  O         84.9300   55.0010   16.1770 O.2   130  ALA130     -0.2867
     61  CB        86.2750   57.4280   15.2100 C.3   130  ALA130      0.0290
     62  N         87.1260   60.5730   20.0230 N.3   189  TYR189     -0.1241
     63  CA        88.1800   60.4380   19.0030 C.3   189  TYR189      0.1605
     64  C         89.5770   60.3640   19.6110 C.2   189  TYR189      0.2264
     65  O         90.0170   61.3130   20.2580 O.2   189  TYR189     -0.2867
     66  CB        88.1150   61.6130   18.0320 C.3   189  TYR189      0.0534
     67  CG        86.7900   61.7330   17.3020 C.ar  189  TYR189     -0.0201
     68  CD1       86.4590   60.8490   16.2800 C.ar  189  TYR189     -0.0009
     69  CD2       85.8800   62.7290   17.6280 C.ar  189  TYR189     -0.0009
     70  CE1       85.2560   60.9430   15.6040 C.ar  189  TYR189      0.0417
     71  CE2       84.6630   62.8350   16.9510 C.ar  189  TYR189      0.0417
     72  CZ        84.3630   61.9370   15.9370 C.ar  189  TYR189      0.1957
     73  OH        83.1690   62.0330   15.2600 O.3   189  TYR189     -0.2866
     74  N         93.5900   61.7620   10.2160 N.3   196  SER196     -0.1202
     75  CA        92.8770   62.8990    9.6500 C.3   196  SER196      0.2020
     76  C         91.3880   62.6660    9.4460 C.2   196  SER196      0.2619
     77  O         90.9250   61.5260    9.3400 O.2   196  SER196     -0.2717
     78  CB        93.5130   63.2890    8.3130 C.3   196  SER196      0.2103
     79  OG        93.4880   62.1910    7.4460 O.3   196  SER196     -0.2182
     80  N         90.6370   63.7540    9.3830 N.am  197  PHE197     -0.1961
     81  CA        89.2180   63.6260    9.0510 C.3   197  PHE197      0.1771
     82  C         88.9880   64.2850    7.7040 C.2   197  PHE197      0.2619
     83  O         89.3600   65.4470    7.5080 O.2   197  PHE197     -0.2715
     84  CB        88.2970   64.2090   10.1500 C.3   197  PHE197      0.0574
     85  CG        88.7040   65.5680   10.6970 C.ar  197  PHE197     -0.0200
     86  CD1       89.7780   65.6950   11.5750 C.ar  197  PHE197     -0.0042
     87  CD2       87.9440   66.6970   10.4140 C.ar  197  PHE197     -0.0042
     88  CE1       90.1350   66.9370   12.1130 C.ar  197  PHE197     -0.0003
     89  CE2       88.2780   67.9350   10.9510 C.ar  197  PHE197     -0.0003
     90  CZ        89.3880   68.0560   11.8070 C.ar  197  PHE197     -0.0000
     91  N         88.4100   63.5280    6.7670 N.am  198  CYS198     -0.1968
     92  CA        88.1990   64.0250    5.4050 C.3   198  CYS198      0.1712
     93  C         87.1470   65.1160    5.3320 C.2   198  CYS198      0.2296
     94  O         86.3540   65.2660    6.2530 O.2   198  CYS198     -0.2864
     95  CB        87.7950   62.8830    4.4770 C.3   198  CYS198      0.0983
     96  SG        88.9800   61.5190    4.4170 S.3   198  CYS198     -0.0798
     97  N         83.8870   66.9420    4.9350 N.3   200  HIS200     -0.1241
     98  CA        82.4860   66.5270    5.0310 C.3   200  HIS200      0.1621
     99  C         81.6560   67.6310    5.6430 C.2   200  HIS200      0.2264
    100  O         82.1820   68.6300    6.1690 O.2   200  HIS200     -0.2867
    101  CB        82.3550   65.2580    5.8740 C.3   200  HIS200      0.0745
    102  CG        82.6060   65.5110    7.3250 C.ar  200  HIS200      0.0817
    103  ND1       83.8730   65.6830    7.8330 N.ar  200  HIS200     -0.2268
    104  CD2       81.7490   65.6980    8.3550 C.ar  200  HIS200      0.1154
    105  CE1       83.7890   65.9360    9.1310 C.ar  200  HIS200      0.1986
    106  NE2       82.5140   65.9520    9.4690 N.ar  200  HIS200     -0.2212
    107  N         77.9360   67.7940    8.2390 N.3   202  GLU202     -0.1245
    108  CA        77.2330   66.9290    9.1880 C.3   202  GLU202      0.1567
    109  C         75.9010   66.4760    8.6000 C.2   202  GLU202      0.2260
    110  O         75.3160   67.1720    7.7700 O.2   202  GLU202     -0.2867
    111  CB        76.9930   67.6450   10.5110 C.3   202  GLU202      0.0388
    112  CG        78.2360   68.2300   11.1510 C.3   202  GLU202      0.1160
    113  CD        79.3350   67.1990   11.3470 C.2   202  GLU202      0.3649
    114  OE1       79.0650   66.0910   11.8430 O.co2 202  GLU202     -0.2457
    115  OE2       80.4720   67.4870   10.9550 O.co2 202  GLU202     -0.2457
    116  N         83.0880   70.4470   19.0270 N.3   210  ASN210     -0.1240
    117  CA        84.1810   69.5200   19.3080 C.3   210  ASN210      0.1653
    118  C         85.0110   70.0840   20.4470 C.2   210  ASN210      0.2266
    119  O         85.4040   71.2510   20.4140 O.2   210  ASN210     -0.2867
    120  CB        85.0550   69.3010   18.0490 C.3   210  ASN210      0.1155
    121  CG        86.1730   68.2530   18.2520 C.2   210  ASN210      0.2627
    122  OD1       87.0950   68.4470   19.0580 O.2   210  ASN210     -0.2716
    123  ND2       86.1300   67.1720   17.4540 N.am  210  ASN210     -0.0877
    124  N         94.7620   69.8150   17.3590 N.3   218  LYS218     -0.1245
    125  CA        94.0310   69.3040   16.2000 C.3   218  LYS218      0.1561
    126  C         93.9360   70.4500   15.2150 C.2   218  LYS218      0.2260
    127  O         93.4590   71.5230   15.5670 O.2   218  LYS218     -0.2867
    128  CB        92.6290   68.7940   16.6010 C.3   218  LYS218      0.0271
    129  CG        91.8510   68.1130   15.4490 C.3   218  LYS218      0.0035
    130  CD        90.3850   67.7570   15.8130 C.3   218  LYS218      0.0206
    131  CE        90.2830   66.8800   17.0590 C.3   218  LYS218      0.1093
    132  NZ        90.7600   65.4760   16.8640 N.3   218  LYS218     -0.1314
    133  N         92.4370   72.3350   11.9520 N.3   220  TRP220     -0.1241
    134  CA        91.1560   72.3410   11.2360 C.3   220  TRP220      0.1605
    135  C         91.1920   73.2020    9.9950 C.2   220  TRP220      0.2264
    136  O         91.8350   74.2630   10.0020 O.2   220  TRP220     -0.2867
    137  CB        90.0380   72.8860   12.1380 C.3   220  TRP220      0.0550
    138  CG        89.6210   72.0340   13.2960 C.ar  220  TRP220      0.0003
    139  CD1       90.3000   71.8310   14.4700 C.ar  220  TRP220      0.0946
    140  CD2       88.3760   71.3480   13.4280 C.ar  220  TRP220      0.0152
    141  NE1       89.5680   71.0240   15.3060 N.ar  220  TRP220     -0.2442
    142  CE2       88.3710   70.7190   14.6920 C.ar  220  TRP220      0.0810
    143  CE3       87.2560   71.1920   12.5860 C.ar  220  TRP220      0.0012
    144  CZ2       87.3000   69.9390   15.1490 C.ar  220  TRP220      0.0191
    145  CZ3       86.1790   70.4180   13.0380 C.ar  220  TRP220      0.0001
    146  CH2       86.2140   69.8010   14.3080 C.ar  220  TRP220      0.0015
    147  N         84.3280   59.9330    1.1430 N.3   254  VAL254     -0.1245
    148  CA        84.9250   61.2320    1.4570 C.3   254  VAL254      0.1561
    149  C         86.4080   61.2380    1.1300 C.2   254  VAL254      0.2260
    150  O         86.9920   60.1810    0.9020 O.2   254  VAL254     -0.2867
    151  CB        84.7350   61.5960    2.9470 C.3   254  VAL254      0.0252
    152  CG1       83.2910   61.9760    3.2220 C.3   254  VAL254      0.0019
    153  CG2       85.1840   60.4510    3.8290 C.3   254  VAL254      0.0019
    154  N         84.3030   70.8850    6.5090 N.3   288  HIS288     -0.1241
    155  CA        85.5150   70.9590    7.3210 C.3   288  HIS288      0.1621
    156  C         86.3010   69.6830    7.1480 C.2   288  HIS288      0.2264
    157  O         85.7430   68.6530    6.7520 O.2   288  HIS288     -0.2867
    158  CB        85.2120   71.1960    8.8260 C.3   288  HIS288      0.0745
    159  CG        84.1930   70.2660    9.3990 C.ar  288  HIS288      0.0817
    160  ND1       82.8350   70.3990    9.1510 N.ar  288  HIS288     -0.2268
    161  CD2       84.3000   69.1990   10.2370 C.ar  288  HIS288      0.1154
    162  CE1       82.1690   69.4590    9.7820 C.ar  288  HIS288      0.1986
    163  NE2       83.0370   68.7140   10.4590 N.ar  288  HIS288     -0.2212
@<TRIPOS>BOND
     1    18    19    1
     2   150   149    2
     3   149   148    1
     4   147   148    1
     5   148   151    1
     6    21    20    2
     7    19    20    1
     8    19    22    1
     9    20    27   am
    10    33    31    1
    11   151   152    1
    12   151   153    1
    13    23    22    1
    14    23    24    1
    15    27    28    1
    16    26    24   am
    17    28    31    1
    18    28    29    1
    19    31    32    1
    20    24    25    2
    21    96    95    1
    22    95    92    1
    23    97    98    1
    24    98    99    1
    25    98   101    1
    26    29    34   am
    27    29    30    2
    28    93    92    1
    29    93    94    2
    30    92    91    1
    31    34    35    1
    32    99   100    2
    33   101   102    1
    34    38    35    1
    35    38    39    1
    36   154   155    1
    37    11    12    2
    38    11    10    1
    39    35    36    1
    40   157   156    2
    41    91    82   am
    42    40    39    1
    43    40    41    1
    44   156   155    1
    45   155   158    1
    46   102   103   ar
    47   102   104   ar
    48    14    15    1
    49    14    13    1
    50    79    78    1
    51    10    13    1
    52    10     9    1
    53    83    82    2
    54    82    81    1
    55   110   109    2
    56    17    15   am
    57   103   105   ar
    58     4     3    2
    59    36    37    2
    60    15    16    2
    61   107   108    1
    62    78    75    1
    63   104   106   ar
    64    41    42    2
    65     9     3   am
    66    43    42    1
    67     7     5    1
    68   109   108    1
    69     3     2    1
    70   158   159    1
    71    42    44    1
    72    81    80    1
    73    81    84    1
    74   105   106   ar
    75   160   159   ar
    76   160   162   ar
    77   108   111    1
    78     5     2    1
    79     5     6    1
    80    77    76    2
    81    80    76   am
    82   159   161   ar
    83    76    75    1
    84    75    74    1
    85   162   163   ar
    86     2     1    1
    87     8     6    1
    88   135   136    2
    89   135   134    1
    90    84    85    1
    91   161   163   ar
    92    56    55    1
    93    87    85   ar
    94    87    89   ar
    95   111   112    1
    96    85    86   ar
    97    89    90   ar
    98   115   113   ar
    99    53    55   ar
   100    53    51   ar
   101   112   113    1
   102   134   133    1
   103   134   137    1
   104    55    54   ar
   105   113   114   ar
   106    86    88   ar
   107    90    88   ar
   108    51    50   ar
   109   137   138    1
   110    54    52   ar
   111   143   145   ar
   112   143   140   ar
   113   145   146   ar
   114   138   140   ar
   115   138   139   ar
   116    50    52   ar
   117    50    49    1
   118   140   142   ar
   119   146   144   ar
   120    45    46    1
   121    49    46    1
   122   139   141   ar
   123   142   144   ar
   124   142   141   ar
   125    46    47    1
   126    61    58    1
   127   126   127    2
   128   126   125    1
   129    73    72    1
   130    48    47    2
   131   129   130    1
   132   129   128    1
   133    70    72   ar
   134    70    68   ar
   135   130   131    1
   136    72    71   ar
   137    60    59    2
   138   125   128    1
   139   125   124    1
   140    68    67   ar
   141    58    57    1
   142    58    59    1
   143   132   131    1
   144    71    69   ar
   145    67    69   ar
   146    67    66    1
   147   123   121   am
   148    66    63    1
   149   120   121    1
   150   120   117    1
   151   121   122    2
   152    63    64    1
   153    63    62    1
   154   116   117    1
   155   117   118    1
   156    64    65    2
   157   119   118    2
