@<TRIPOS>MOLECULE
tmp/5fzlA00.pdb
 137 132 0 0 0
SMALL
GASTEIGER

@<TRIPOS>ATOM
      1  N         93.4300   55.1100   14.1890 N.3   128  TYR128     -0.1241
      2  CA        92.7220   56.0300   15.0730 C.3   128  TYR128      0.1605
      3  C         91.5380   55.3430   15.7390 C.2   128  TYR128      0.2264
      4  O         91.1940   54.1960   15.4140 O.2   128  TYR128     -0.2867
      5  CB        92.2390   57.2690   14.3080 C.3   128  TYR128      0.0534
      6  CG        91.1760   56.9530   13.2860 C.ar  128  TYR128     -0.0201
      7  CD1       91.5060   56.3600   12.0640 C.ar  128  TYR128     -0.0009
      8  CD2       89.8390   57.2190   13.5480 C.ar  128  TYR128     -0.0009
      9  CE1       90.5400   56.0550   11.1350 C.ar  128  TYR128      0.0417
     10  CE2       88.8580   56.9260   12.6120 C.ar  128  TYR128      0.0417
     11  CZ        89.2170   56.3410   11.4130 C.ar  128  TYR128      0.1957
     12  OH        88.2430   56.0370   10.4980 O.3   128  TYR128     -0.2866
     13  N         86.8870   60.5490   19.6380 N.3   189  TYR189     -0.1227
     14  CA        87.9710   60.5000   18.6540 C.3   189  TYR189      0.1736
     15  C         89.3420   60.4440   19.3070 C.2   189  TYR189      0.2595
     16  O         89.7710   61.4090   19.9340 O.2   189  TYR189     -0.2718
     17  CB        87.9030   61.7170   17.7260 C.3   189  TYR189      0.0548
     18  CG        86.6690   61.7430   16.8450 C.ar  189  TYR189     -0.0200
     19  CD1       86.3900   60.6970   15.9610 C.ar  189  TYR189     -0.0009
     20  CD2       85.7800   62.8010   16.9030 C.ar  189  TYR189     -0.0009
     21  CE1       85.2590   60.7180   15.1550 C.ar  189  TYR189      0.0417
     22  CE2       84.6580   62.8310   16.1070 C.ar  189  TYR189      0.0417
     23  CZ        84.3990   61.7930   15.2390 C.ar  189  TYR189      0.1957
     24  OH        83.2710   61.8520   14.4590 O.3   189  TYR189     -0.2866
     25  N         90.0230   59.3140   19.1650 N.am  190  VAL190     -0.1966
     26  CA        91.4270   59.2020   19.5610 C.3   190  VAL190      0.1727
     27  C         92.3740   59.4030   18.3580 C.2   190  VAL190      0.2616
     28  O         92.4390   58.5550   17.4630 O.2   190  VAL190     -0.2715
     29  CB        91.7110   57.8430   20.1940 C.3   190  VAL190      0.0290
     30  CG1       93.1230   57.8110   20.7400 C.3   190  VAL190      0.0023
     31  CG2       90.6920   57.5560   21.2750 C.3   190  VAL190      0.0023
     32  N         93.1030   60.5210   18.3500 N.am  191  GLY191     -0.1955
     33  CA        93.9810   60.8660   17.2370 C.3   191  GLY191      0.1869
     34  C         95.4670   60.5470   17.4020 C.2   191  GLY191      0.2309
     35  O         95.9950   60.3890   18.5170 O.2   191  GLY191     -0.2863
     36  N         96.4470   61.4230   11.3820 N.3   195  SER195     -0.1202
     37  CA        95.1170   60.7980   11.2800 C.3   195  SER195      0.2020
     38  C         94.1510   61.9270   10.9640 C.2   195  SER195      0.2619
     39  O         94.3040   63.0440   11.4760 O.2   195  SER195     -0.2717
     40  CB        94.7160   60.0390   12.5510 C.3   195  SER195      0.2103
     41  OG        94.3490   60.9090   13.6140 O.3   195  SER195     -0.2182
     42  N         93.1980   61.6760   10.0770 N.am  196  SER196     -0.1937
     43  CA        92.4460   62.8070    9.5440 C.3   196  SER196      0.2055
     44  C         90.9750   62.4930    9.2980 C.2   196  SER196      0.2643
     45  O         90.5470   61.3390    9.3000 O.2   196  SER196     -0.2714
     46  CB        93.0820   63.3010    8.2340 C.3   196  SER196      0.2130
     47  OG        92.9020   62.3490    7.2030 O.3   196  SER196     -0.2179
     48  N         90.2050   63.5450    9.0790 N.am  197  PHE197     -0.1973
     49  CA        88.7970   63.3790    8.7850 C.3   197  PHE197      0.1639
     50  C         88.5350   64.1850    7.5290 C.2   197  PHE197      0.2290
     51  O         88.8670   65.3700    7.4640 O.2   197  PHE197     -0.2864
     52  CB        87.9030   63.8190    9.9660 C.3   197  PHE197      0.0560
     53  CG        88.1570   65.2290   10.4440 C.ar  197  PHE197     -0.0200
     54  CD1       89.1760   65.4970   11.3540 C.ar  197  PHE197     -0.0042
     55  CD2       87.3680   66.2770   10.0010 C.ar  197  PHE197     -0.0042
     56  CE1       89.4280   66.7960   11.7960 C.ar  197  PHE197     -0.0003
     57  CE2       87.6050   67.5760   10.4420 C.ar  197  PHE197     -0.0003
     58  CZ        88.6440   67.8370   11.3470 C.ar  197  PHE197     -0.0000
     59  N         83.4680   67.0830    4.6770 N.3   200  HIS200     -0.1241
     60  CA        82.0740   66.6930    4.8060 C.3   200  HIS200      0.1621
     61  C         81.2440   67.7980    5.4420 C.2   200  HIS200      0.2264
     62  O         81.7880   68.7360    6.0260 O.2   200  HIS200     -0.2867
     63  CB        81.9560   65.4170    5.6450 C.3   200  HIS200      0.0745
     64  CG        82.1510   65.6580    7.1000 C.ar  200  HIS200      0.0817
     65  ND1       83.4000   65.7490    7.6670 N.ar  200  HIS200     -0.2268
     66  CD2       81.2620   65.8960    8.0930 C.ar  200  HIS200      0.1154
     67  CE1       83.2760   66.0100    8.9550 C.ar  200  HIS200      0.1986
     68  NE2       81.9890   66.0950    9.2420 N.ar  200  HIS200     -0.2212
     69  N         77.5700   68.1060    8.0680 N.3   202  GLU202     -0.1245
     70  CA        76.8550   67.2550    9.0250 C.3   202  GLU202      0.1567
     71  C         75.5500   66.7620    8.4190 C.2   202  GLU202      0.2260
     72  O         74.9360   67.4430    7.5880 O.2   202  GLU202     -0.2867
     73  CB        76.5630   67.9970   10.3300 C.3   202  GLU202      0.0388
     74  CG        77.7940   68.5180   11.0540 C.3   202  GLU202      0.1160
     75  CD        78.8680   67.4680   11.1660 C.2   202  GLU202      0.3649
     76  OE1       78.5250   66.3060   11.4940 O.co2 202  GLU202     -0.2457
     77  OE2       80.0500   67.8100   10.8900 O.co2 202  GLU202     -0.2457
     78  N         77.8100   71.2790   14.5550 N.3   208  SER208     -0.1217
     79  CA        78.4870   70.3310   15.4270 C.3   208  SER208      0.1889
     80  C         79.3100   71.1650   16.3800 C.2   208  SER208      0.2288
     81  O         79.5590   72.3480   16.1160 O.2   208  SER208     -0.2866
     82  CB        79.3590   69.3270   14.6670 C.3   208  SER208      0.2089
     83  OG        80.5310   69.9380   14.1120 O.3   208  SER208     -0.2183
     84  N         82.8480   70.4470   18.8810 N.3   210  ASN210     -0.1240
     85  CA        83.9370   69.5060   19.0580 C.3   210  ASN210      0.1653
     86  C         84.8530   70.0150   20.1760 C.2   210  ASN210      0.2266
     87  O         85.2580   71.1900   20.1790 O.2   210  ASN210     -0.2867
     88  CB        84.7000   69.3230   17.7300 C.3   210  ASN210      0.1155
     89  CG        83.7620   69.1210   16.5100 C.2   210  ASN210      0.2627
     90  OD1       83.0610   70.0490   16.0870 O.2   210  ASN210     -0.2716
     91  ND2       83.7870   67.9150   15.9260 N.am  210  ASN210     -0.0877
     92  N         94.6030   69.8360   17.0720 N.3   218  LYS218     -0.1245
     93  CA        93.9030   69.2980   15.9100 C.3   218  LYS218      0.1561
     94  C         93.7940   70.4450   14.9260 C.2   218  LYS218      0.2260
     95  O         93.4280   71.5650   15.3000 O.2   218  LYS218     -0.2867
     96  CB        92.5170   68.7600   16.2890 C.3   218  LYS218      0.0271
     97  CG        91.8290   67.9160   15.2280 C.3   218  LYS218      0.0035
     98  CD        90.3220   67.6900   15.4940 C.3   218  LYS218      0.0206
     99  CE        90.0340   66.9400   16.8160 C.3   218  LYS218      0.1093
    100  NZ        90.2510   65.4600   16.8080 N.3   218  LYS218     -0.1314
    101  N         92.1590   72.2930   11.6890 N.3   220  TRP220     -0.1241
    102  CA        90.8670   72.3240   10.9930 C.3   220  TRP220      0.1605
    103  C         90.9340   73.1540    9.7370 C.2   220  TRP220      0.2264
    104  O         91.6160   74.1830    9.7000 O.2   220  TRP220     -0.2867
    105  CB        89.7570   72.9200   11.9000 C.3   220  TRP220      0.0550
    106  CG        89.3580   72.0360   13.0740 C.ar  220  TRP220      0.0003
    107  CD1       90.1020   71.7660   14.1890 C.ar  220  TRP220      0.0946
    108  CD2       88.1240   71.3310   13.2400 C.ar  220  TRP220      0.0152
    109  NE1       89.4210   70.9180   15.0280 N.ar  220  TRP220     -0.2442
    110  CE2       88.1980   70.6420   14.4760 C.ar  220  TRP220      0.0810
    111  CE3       86.9610   71.2110   12.4660 C.ar  220  TRP220      0.0012
    112  CZ2       87.1530   69.8400   14.9530 C.ar  220  TRP220      0.0191
    113  CZ3       85.9200   70.4220   12.9420 C.ar  220  TRP220      0.0001
    114  CH2       86.0270   69.7400   14.1700 C.ar  220  TRP220      0.0015
    115  N         84.0400   70.8640    6.3660 N.3   286  HIS286     -0.1241
    116  CA        85.2500   70.8970    7.1560 C.3   286  HIS286      0.1621
    117  C         86.0240   69.6040    7.0050 C.2   286  HIS286      0.2264
    118  O         85.5070   68.6030    6.5110 O.2   286  HIS286     -0.2867
    119  CB        84.9560   71.1900    8.6450 C.3   286  HIS286      0.0745
    120  CG        83.8630   70.3600    9.2380 C.ar  286  HIS286      0.0817
    121  ND1       82.5270   70.6530    9.0530 N.ar  286  HIS286     -0.2268
    122  CD2       83.9000   69.2520   10.0180 C.ar  286  HIS286      0.1154
    123  CE1       81.7900   69.7580    9.6910 C.ar  286  HIS286      0.1986
    124  NE2       82.5970   68.8960   10.2870 N.ar  286  HIS286     -0.2212
    125  N         95.1290   65.3840   12.8560 N.3   290  ASN290     -0.1240
    126  CA        95.7330   65.5640   14.1680 C.3   290  ASN290      0.1653
    127  C         97.2640   65.7880   14.1430 C.2   290  ASN290      0.2266
    128  O         97.9980   65.1410   13.3810 O.2   290  ASN290     -0.2867
    129  CB        95.3850   64.3530   15.0220 C.3   290  ASN290      0.1155
    130  CG        93.8940   64.2250   15.2390 C.2   290  ASN290      0.2627
    131  OD1       93.2600   65.1320   15.7880 O.2   290  ASN290     -0.2716
    132  ND2       93.3130   63.1200   14.7640 N.am  290  ASN290     -0.0877
    133  N         89.3460   63.6540   21.5590 N.3   296  ALA296     -0.1245
    134  CA        88.3310   64.6540   21.3060 C.3   296  ALA296      0.1562
    135  C         86.9670   64.0230   21.4310 C.2   296  ALA296      0.2260
    136  O         86.8040   62.7990   21.2810 O.2   296  ALA296     -0.2867
    137  CB        88.5110   65.2750   19.9390 C.3   296  ALA296      0.0290
@<TRIPOS>BOND
     1    59    60    1
     2    60    61    1
     3    60    63    1
     4    61    62    2
     5    63    64    1
     6   115   116    1
     7   118   117    2
     8   117   116    1
     9    64    65   ar
    10    64    66   ar
    11   116   119    1
    12    47    46    1
    13    51    50    2
    14    50    49    1
    15    72    71    2
    16    65    67   ar
    17    69    70    1
    18    66    68   ar
    19    46    43    1
    20    71    70    1
    21   119   120    1
    22    49    48    1
    23    49    52    1
    24    67    68   ar
    25    70    73    1
    26   121   120   ar
    27   121   123   ar
    28    48    44   am
    29   120   122   ar
    30    44    45    2
    31    44    43    1
    32    43    42    1
    33   123   124   ar
    34   104   103    2
    35   103   102    1
    36    52    53    1
    37    55    57   ar
    38    55    53   ar
    39   122   124   ar
    40    42    38   am
    41    73    74    1
    42    57    58   ar
    43    53    54   ar
    44    12    11    1
    45    77    75   ar
    46    38    37    1
    47    38    39    2
    48   102   101    1
    49   102   105    1
    50    74    75    1
    51     9    11   ar
    52     9     7   ar
    53    75    76   ar
    54    37    36    1
    55    37    40    1
    56    58    56   ar
    57    54    56   ar
    58    11    10   ar
    59   105   106    1
    60     7     6   ar
    61   111   113   ar
    62   111   108   ar
    63    40    41    1
    64    10     8   ar
    65   125   126    1
    66   113   114   ar
    67   106   108   ar
    68   106   107   ar
    69   108   110   ar
    70     6     8   ar
    71     6     5    1
    72   128   127    2
    73    83    82    1
    74   127   126    1
    75   126   129    1
    76   114   112   ar
    77   107   109   ar
    78     1     2    1
    79     5     2    1
    80    24    23    1
    81   110   112   ar
    82   110   109   ar
    83    78    79    1
    84    82    79    1
    85   132   130   am
    86    94    95    2
    87    94    93    1
    88   129   130    1
    89     2     3    1
    90    21    23   ar
    91    21    19   ar
    92    97    98    1
    93    97    96    1
    94   130   131    2
    95    23    22   ar
    96     4     3    2
    97    79    80    1
    98    98    99    1
    99    93    96    1
   100    93    92    1
   101    91    89   am
   102    19    18   ar
   103    90    89    2
   104    22    20   ar
   105    81    80    2
   106    89    88    1
   107   100    99    1
   108    18    20   ar
   109    18    17    1
   110    33    34    1
   111    33    32    1
   112    34    35    2
   113    28    27    2
   114    17    14    1
   115    88    85    1
   116    32    27   am
   117    27    26    1
   118    14    15    1
   119    14    13    1
   120    84    85    1
   121    85    86    1
   122    25    15   am
   123    25    26    1
   124    15    16    2
   125    26    29    1
   126   137   134    1
   127    86    87    2
   128    29    30    1
   129    29    31    1
   130   136   135    2
   131   134   135    1
   132   134   133    1
