@<TRIPOS>MOLECULE
tmp/5fzmA00.pdb
 149 145 0 0 0
SMALL
GASTEIGER

@<TRIPOS>ATOM
      1  N         82.8360   56.6890    5.1650 N.3    75  ARG75      -0.1231
      2  CA        82.5560   57.4040    6.4040 C.3    75  ARG75       0.1694
      3  C         82.4030   56.3810    7.5320 C.2    75  ARG75       0.2591
      4  O         81.7320   55.3550    7.3760 O.2    75  ARG75      -0.2718
      5  CB        81.3170   58.2970    6.2770 C.3    75  ARG75       0.0321
      6  CG        81.6760   59.7310    6.5930 C.3    75  ARG75       0.0489
      7  CD        80.5290   60.7390    6.6250 C.3    75  ARG75       0.2205
      8  NE        80.2150   61.1170    8.0060 N.pl3  75  ARG75      -0.0865
      9  CZ        79.1740   61.8610    8.3800 C.cat  75  ARG75       0.5346
     10  NH1       78.3410   62.3520    7.4670 N.pl3  75  ARG75       0.1354
     11  NH2       78.9840   62.1350    9.6720 N.pl3  75  ARG75       0.1354
     12  N         83.0230   56.6890    8.6660 N.am   76  VAL76      -0.1980
     13  CA        83.4140   55.6930    9.6660 C.3    76  VAL76       0.1595
     14  C         82.3740   54.6080   10.0190 C.2    76  VAL76       0.2287
     15  O         82.6960   53.4130    9.9500 O.2    76  VAL76      -0.2864
     16  CB        83.8900   56.4240   10.9500 C.3    76  VAL76       0.0276
     17  CG1       83.5590   55.6380   12.2150 C.3    76  VAL76       0.0022
     18  CG2       85.3810   56.6790   10.8370 C.3    76  VAL76       0.0022
     19  N         93.3290   55.2750   14.1930 N.3   128  TYR128     -0.1241
     20  CA        92.6080   56.1830   15.0760 C.3   128  TYR128      0.1605
     21  C         91.4150   55.5100   15.7490 C.2   128  TYR128      0.2264
     22  O         90.9570   54.4460   15.3160 O.2   128  TYR128     -0.2867
     23  CB        92.1350   57.4090   14.2980 C.3   128  TYR128      0.0534
     24  CG        91.1430   57.0820   13.2070 C.ar  128  TYR128     -0.0201
     25  CD1       91.5650   56.5370   11.9970 C.ar  128  TYR128     -0.0009
     26  CD2       89.7800   57.3100   13.3830 C.ar  128  TYR128     -0.0009
     27  CE1       90.6560   56.2320   10.9900 C.ar  128  TYR128      0.0417
     28  CE2       88.8650   57.0210   12.3730 C.ar  128  TYR128      0.0417
     29  CZ        89.3110   56.4790   11.1820 C.ar  128  TYR128      0.1957
     30  OH        88.4180   56.1770   10.1810 O.3   128  TYR128     -0.2866
     31  N         87.4060   56.0550   16.7360 N.3   130  ALA130     -0.1245
     32  CA        86.1560   56.7870   16.5760 C.3   130  ALA130      0.1562
     33  C         84.9830   55.8830   16.9820 C.2   130  ALA130      0.2260
     34  O         84.7920   54.8260   16.4010 O.2   130  ALA130     -0.2867
     35  CB        86.0030   57.2840   15.1370 C.3   130  ALA130      0.0290
     36  N         80.3230   61.4790   20.0330 N.3   188  TRP188     -0.1241
     37  CA        81.3610   60.5750   19.5330 C.3   188  TRP188      0.1605
     38  C         82.6860   60.8910   20.2150 C.2   188  TRP188      0.2264
     39  O         82.9710   62.0550   20.5390 O.2   188  TRP188     -0.2867
     40  CB        81.5160   60.6900   18.0110 C.3   188  TRP188      0.0550
     41  CG        80.4330   60.0200   17.2450 C.ar  188  TRP188      0.0003
     42  CD1       79.1280   60.4100   17.1560 C.ar  188  TRP188      0.0946
     43  CD2       80.5570   58.8370   16.4440 C.ar  188  TRP188      0.0152
     44  NE1       78.4320   59.5420   16.3540 N.ar  188  TRP188     -0.2442
     45  CE2       79.2830   58.5650   15.9060 C.ar  188  TRP188      0.0810
     46  CE3       81.6210   57.9750   16.1370 C.ar  188  TRP188      0.0012
     47  CZ2       79.0410   57.4680   15.0800 C.ar  188  TRP188      0.0191
     48  CZ3       81.3780   56.8790   15.3130 C.ar  188  TRP188      0.0001
     49  CH2       80.0970   56.6400   14.7950 C.ar  188  TRP188      0.0015
     50  N         86.9020   60.6050   19.8980 N.3   190  TYR190     -0.1241
     51  CA        87.9560   60.4720   18.8900 C.3   190  TYR190      0.1605
     52  C         89.3490   60.4620   19.4860 C.2   190  TYR190      0.2264
     53  O         89.8120   61.4860   19.9800 O.2   190  TYR190     -0.2867
     54  CB        87.8840   61.6080   17.8770 C.3   190  TYR190      0.0534
     55  CG        86.5950   61.6860   17.0970 C.ar  190  TYR190     -0.0201
     56  CD1       86.3250   60.7930   16.0600 C.ar  190  TYR190     -0.0009
     57  CD2       85.6430   62.6520   17.3970 C.ar  190  TYR190     -0.0009
     58  CE1       85.1490   60.8700   15.3420 C.ar  190  TYR190      0.0417
     59  CE2       84.4680   62.7320   16.6870 C.ar  190  TYR190      0.0417
     60  CZ        84.2260   61.8420   15.6620 C.ar  190  TYR190      0.1957
     61  OH        83.0510   61.9370   14.9650 O.3   190  TYR190     -0.2866
     62  N         93.2310   61.7110   10.0870 N.3   197  SER197     -0.1202
     63  CA        92.4850   62.8280    9.5400 C.3   197  SER197      0.2020
     64  C         91.0180   62.5370    9.3670 C.2   197  SER197      0.2619
     65  O         90.5800   61.3880    9.3390 O.2   197  SER197     -0.2717
     66  CB        93.0750   63.2670    8.1870 C.3   197  SER197      0.2103
     67  OG        93.4060   62.1490    7.4050 O.3   197  SER197     -0.2182
     68  N         90.2610   63.6160    9.2670 N.am  198  PHE198     -0.1961
     69  CA        88.8570   63.5120    8.9760 C.3   198  PHE198      0.1771
     70  C         88.6690   64.2120    7.6360 C.2   198  PHE198      0.2619
     71  O         89.0990   65.3550    7.4660 O.2   198  PHE198     -0.2715
     72  CB        87.9840   64.1010   10.1190 C.3   198  PHE198      0.0574
     73  CG        88.4370   65.4540   10.6470 C.ar  198  PHE198     -0.0200
     74  CD1       89.5440   65.5630   11.4940 C.ar  198  PHE198     -0.0042
     75  CD2       87.7110   66.6020   10.3550 C.ar  198  PHE198     -0.0042
     76  CE1       89.9560   66.8020   12.0010 C.ar  198  PHE198     -0.0003
     77  CE2       88.1010   67.8390   10.8610 C.ar  198  PHE198     -0.0003
     78  CZ        89.2310   67.9460   11.6880 C.ar  198  PHE198     -0.0000
     79  N         88.0830   63.4900    6.6780 N.am  199  CYS199     -0.1968
     80  CA        87.9020   63.9760    5.3040 C.3   199  CYS199      0.1712
     81  C         86.8580   65.0700    5.2090 C.2   199  CYS199      0.2296
     82  O         86.0780   65.2880    6.1470 O.2   199  CYS199     -0.2864
     83  CB        87.5080   62.8220    4.3720 C.3   199  CYS199      0.0983
     84  SG        88.7170   61.4660    4.3440 S.3   199  CYS199     -0.0798
     85  N         83.5880   66.9520    4.6190 N.3   201  HIS201     -0.1241
     86  CA        82.2150   66.4990    4.8080 C.3   201  HIS201      0.1621
     87  C         81.4050   67.6060    5.4460 C.2   201  HIS201      0.2264
     88  O         81.9720   68.5500    6.0060 O.2   201  HIS201     -0.2867
     89  CB        82.1620   65.2460    5.6940 C.3   201  HIS201      0.0745
     90  CG        82.4470   65.5300    7.1330 C.ar  201  HIS201      0.0817
     91  ND1       83.7200   65.4900    7.6640 N.ar  201  HIS201     -0.2268
     92  CD2       81.6320   65.9000    8.1500 C.ar  201  HIS201      0.1154
     93  CE1       83.6730   65.8060    8.9440 C.ar  201  HIS201      0.1986
     94  NE2       82.4160   66.0580    9.2640 N.ar  201  HIS201     -0.2212
     95  N         77.7280   67.8690    8.1150 N.3   203  GLU203     -0.1245
     96  CA        77.0220   67.0110    9.0750 C.3   203  GLU203      0.1567
     97  C         75.7280   66.5190    8.4650 C.2   203  GLU203      0.2260
     98  O         75.1390   67.1930    7.6080 O.2   203  GLU203     -0.2867
     99  CB        76.7360   67.7490   10.3810 C.3   203  GLU203      0.0388
    100  CG        77.9880   68.2430   11.1020 C.3   203  GLU203      0.1160
    101  CD        79.0590   67.1770   11.2190 C.2   203  GLU203      0.3649
    102  OE1       78.7560   66.0440   11.6560 O.co2 203  GLU203     -0.2457
    103  OE2       80.2160   67.4700   10.8440 O.co2 203  GLU203     -0.2457
    104  N         77.8630   71.1890   14.5520 N.3   209  SER209     -0.1217
    105  CA        78.5590   70.2770   15.4520 C.3   209  SER209      0.1889
    106  C         79.4510   71.0890   16.3790 C.2   209  SER209      0.2288
    107  O         79.7630   72.2610   16.1070 O.2   209  SER209     -0.2866
    108  CB        79.3660   69.2200   14.6980 C.3   209  SER209      0.2089
    109  OG        80.3630   69.8110   13.8770 O.3   209  SER209     -0.2183
    110  N         82.8810   70.3880   19.0010 N.3   211  ASN211     -0.1240
    111  CA        83.9810   69.4560   19.2300 C.3   211  ASN211      0.1653
    112  C         84.8240   70.0000   20.3680 C.2   211  ASN211      0.2266
    113  O         85.2040   71.1870   20.3750 O.2   211  ASN211     -0.2867
    114  CB        84.8340   69.2720   17.9510 C.3   211  ASN211      0.1155
    115  CG        85.9740   68.2180   18.1220 C.2   211  ASN211      0.2627
    116  OD1       86.9390   68.4310   18.8850 O.2   211  ASN211     -0.2716
    117  ND2       85.8720   67.0960   17.3780 N.am  211  ASN211     -0.0877
    118  N         92.1770   72.2330   11.7480 N.3   221  TRP221     -0.1241
    119  CA        90.8620   72.2850   11.0950 C.3   221  TRP221      0.1605
    120  C         90.9250   73.1380    9.8500 C.2   221  TRP221      0.2264
    121  O         91.6060   74.1680    9.8450 O.2   221  TRP221     -0.2867
    122  CB        89.7860   72.8820   12.0250 C.3   221  TRP221      0.0550
    123  CG        89.3920   72.0110   13.1920 C.ar  221  TRP221      0.0003
    124  CD1       90.1300   71.7530   14.3100 C.ar  221  TRP221      0.0946
    125  CD2       88.1570   71.3060   13.3550 C.ar  221  TRP221      0.0152
    126  NE1       89.4390   70.9190   15.1580 N.ar  221  TRP221     -0.2442
    127  CE2       88.2240   70.6280   14.5970 C.ar  221  TRP221      0.0810
    128  CE3       86.9940   71.1850   12.5750 C.ar  221  TRP221      0.0012
    129  CZ2       87.1740   69.8330   15.0760 C.ar  221  TRP221      0.0191
    130  CZ3       85.9510   70.3970   13.0490 C.ar  221  TRP221      0.0001
    131  CH2       86.0510   69.7260   14.2860 C.ar  221  TRP221      0.0015
    132  N         84.1120   70.8210    6.4110 N.3   289  HIS289     -0.1241
    133  CA        85.2960   70.8840    7.2310 C.3   289  HIS289      0.1621
    134  C         86.0570   69.5860    7.0770 C.2   289  HIS289      0.2264
    135  O         85.4800   68.5790    6.6670 O.2   289  HIS289     -0.2867
    136  CB        84.9590   71.1730    8.7160 C.3   289  HIS289      0.0745
    137  CG        83.9440   70.2460    9.3100 C.ar  289  HIS289      0.0817
    138  ND1       82.5880   70.3710    9.0670 N.ar  289  HIS289     -0.2268
    139  CD2       84.0800   69.1880   10.1490 C.ar  289  HIS289      0.1154
    140  CE1       81.9390   69.4220    9.7220 C.ar  289  HIS289      0.1986
    141  NE2       82.8180   68.6970   10.3950 N.ar  289  HIS289     -0.2212
    142  N         76.5330   66.3810   17.4640 N.3   303  ASN303     -0.1240
    143  CA        75.7080   67.2070   16.5680 C.3   303  ASN303      0.1653
    144  C         74.6290   67.8860   17.3540 C.2   303  ASN303      0.2266
    145  O         74.2070   67.3690   18.3850 O.2   303  ASN303     -0.2867
    146  CB        75.0480   66.3770   15.4640 C.3   303  ASN303      0.1155
    147  CG        76.0420   65.8070   14.5020 C.2   303  ASN303      0.2627
    148  OD1       76.1680   64.5820   14.3610 O.2   303  ASN303     -0.2716
    149  ND2       76.7690   66.6920   13.8260 N.am  303  ASN303     -0.0877
@<TRIPOS>BOND
     1    84    83    1
     2    83    80    1
     3    85    86    1
     4    86    87    1
     5    86    89    1
     6     1     2    1
     7    81    80    1
     8    81    82    2
     9    80    79    1
    10    87    88    2
    11    89    90    1
    12     5     2    1
    13     5     6    1
    14     2     3    1
    15   132   133    1
    16     6     7    1
    17     7     8    1
    18   135   134    2
    19    79    70   am
    20   134   133    1
    21    90    91   ar
    22    90    92   ar
    23   133   136    1
    24     4     3    2
    25    67    66    1
    26    71    70    2
    27    10     9    1
    28     3    12   am
    29    98    97    2
    30    70    69    1
    31    91    93   ar
    32     8     9    2
    33    95    96    1
    34    92    94   ar
    35    66    63    1
    36     9    11    1
    37    97    96    1
    38    12    13    1
    39   136   137    1
    40    93    94   ar
    41    69    68    1
    42    69    72    1
    43   138   137   ar
    44   138   140   ar
    45    96    99    1
    46    68    64   am
    47   137   139   ar
    48    65    64    2
    49    64    63    1
    50    63    62    1
    51    13    14    1
    52    13    16    1
    53   140   141   ar
    54   121   120    2
    55   120   119    1
    56    15    14    2
    57    72    73    1
    58   139   141   ar
    59    30    29    1
    60    75    73   ar
    61    75    77   ar
    62    99   100    1
    63    73    74   ar
    64    18    16    1
    65   103   101   ar
    66    77    78   ar
    67    16    17    1
    68    27    29   ar
    69    27    25   ar
    70   119   118    1
    71   119   122    1
    72   100   101    1
    73    29    28   ar
    74   101   102   ar
    75    74    76   ar
    76    78    76   ar
    77    25    24   ar
    78   122   123    1
    79    28    26   ar
    80   128   130   ar
    81   128   125   ar
    82   130   131   ar
    83   123   125   ar
    84   123   124   ar
    85    24    26   ar
    86    24    23    1
    87   125   127   ar
    88   149   147   am
    89   109   108    1
    90    19    20    1
    91   131   129   ar
    92    23    20    1
    93   124   126   ar
    94   148   147    2
    95   147   146    1
    96   104   105    1
    97   127   129   ar
    98   127   126   ar
    99   108   105    1
   100    49    47   ar
   101    49    48   ar
   102    61    60    1
   103    20    21    1
   104    47    45   ar
   105    35    32    1
   106    48    46   ar
   107    22    21    2
   108    58    60   ar
   109    58    56   ar
   110   105   106    1
   111   146   143    1
   112    60    59   ar
   113    45    44   ar
   114    45    43   ar
   115    56    55   ar
   116   107   106    2
   117    46    43   ar
   118    44    42   ar
   119    34    33    2
   120    43    41   ar
   121   143   144    1
   122   143   142    1
   123    32    31    1
   124    32    33    1
   125    59    57   ar
   126    55    57   ar
   127    55    54    1
   128    42    41   ar
   129    41    40    1
   130   144   145    2
   131   117   115   am
   132    54    51    1
   133   114   115    1
   134   114   111    1
   135    40    37    1
   136   115   116    2
   137    51    52    1
   138    51    50    1
   139   110   111    1
   140   111   112    1
   141    52    53    2
   142    37    36    1
   143    37    38    1
   144    38    39    2
   145   112   113    2
