@<TRIPOS>MOLECULE
tmp/5fznA00.pdb
 74 68 0 0 0
SMALL
GASTEIGER

@<TRIPOS>ATOM
      1  N         10.2960   65.8210   37.2360 N.3    11  TYR11      -0.1241
      2  CA         9.3140   66.3900   36.3350 C.3    11  TYR11       0.1605
      3  C          8.0890   65.4910   36.1850 C.2    11  TYR11       0.2264
      4  O          8.2150   64.3130   35.8740 O.2    11  TYR11      -0.2867
      5  CB         9.9360   66.6350   34.9570 C.3    11  TYR11       0.0534
      6  CG         8.9860   67.2780   33.9870 C.ar   11  TYR11      -0.0201
      7  CD1        8.8510   68.6640   33.9370 C.ar   11  TYR11      -0.0009
      8  CD2        8.2180   66.5120   33.1150 C.ar   11  TYR11      -0.0009
      9  CE1        7.9760   69.2740   33.0450 C.ar   11  TYR11       0.0417
     10  CE2        7.3400   67.1130   32.2190 C.ar   11  TYR11       0.0417
     11  CZ         7.2290   68.4960   32.1950 C.ar   11  TYR11       0.1957
     12  OH         6.3740   69.1100   31.3250 O.3    11  TYR11      -0.2866
     13  N         13.6860   70.1700   37.6630 N.3    40  SER40      -0.1202
     14  CA        13.8860   68.9060   36.9680 C.3    40  SER40       0.2020
     15  C         15.2470   69.0050   36.3140 C.2    40  SER40       0.2619
     16  O         15.7760   70.1000   36.1750 O.2    40  SER40      -0.2717
     17  CB        12.7920   68.7600   35.9190 C.3    40  SER40       0.2103
     18  OG        12.7990   69.9230   35.0840 O.3    40  SER40      -0.2182
     19  N         15.8160   67.8740   35.9130 N.am   41  GLY41      -0.1956
     20  CA        17.0920   67.8700   35.1990 C.3    41  GLY41       0.1869
     21  C         18.3020   68.2200   36.0440 C.2    41  GLY41       0.2309
     22  O         19.3390   68.6000   35.5240 O.2    41  GLY41      -0.2863
     23  N         10.6270   74.1940   35.1630 N.3    59  ASN59      -0.1240
     24  CA         9.5580   74.2700   34.1470 C.3    59  ASN59       0.1653
     25  C          8.2710   74.4520   34.9010 C.2    59  ASN59       0.2266
     26  O          7.8060   73.5260   35.5230 O.2    59  ASN59      -0.2867
     27  CB         9.4560   72.9700   33.3170 C.3    59  ASN59       0.1155
     28  CG        10.6440   72.7510   32.3950 C.2    59  ASN59       0.2627
     29  OD1       10.8740   73.5200   31.4480 O.2    59  ASN59      -0.2716
     30  ND2       11.4080   71.6980   32.6620 N.am   59  ASN59      -0.0877
     31  N         20.9700   72.9070   33.0600 N.3    91  ASN91      -0.1225
     32  CA        19.8810   71.9700   33.0270 C.3    91  ASN91       0.1785
     33  C         20.3870   70.6710   32.3600 C.2    91  ASN91       0.2597
     34  O         21.1810   70.7020   31.4020 O.2    91  ASN91      -0.2718
     35  CB        18.7150   72.5750   32.2700 C.3    91  ASN91       0.1169
     36  CG        17.5130   71.6670   32.1930 C.2    91  ASN91       0.2627
     37  OD1       17.1940   70.9400   33.1340 O.2    91  ASN91      -0.2716
     38  ND2       16.8340   71.7050   31.0620 N.am   91  ASN91      -0.0877
     39  N         19.9160   69.5420   32.8830 N.am   92  ARG92      -0.1979
     40  CA        20.2970   68.2180   32.3890 C.3    92  ARG92       0.1597
     41  C         21.8230   68.0220   32.5570 C.2    92  ARG92       0.2287
     42  O         22.5510   67.6150   31.6710 O.2    92  ARG92      -0.2864
     43  CB        19.7190   67.9870   30.9820 C.3    92  ARG92       0.0334
     44  CG        18.1820   67.9590   31.0210 C.3    92  ARG92       0.0492
     45  CD        17.5650   67.8900   29.6310 C.3    92  ARG92       0.2205
     46  NE        17.9250   66.6300   28.9770 N.pl3  92  ARG92      -0.0865
     47  CZ        17.9630   66.4090   27.6590 C.cat  92  ARG92       0.5346
     48  NH1       17.6590   67.3740   26.7880 N.pl3  92  ARG92       0.1354
     49  NH2       18.3100   65.2060   27.2050 N.pl3  92  ARG92       0.1354
     50  N         20.5560   61.0690   28.3310 N.3   186  GLY186     -0.1225
     51  CA        19.6750   60.8630   29.4800 C.3   186  GLY186      0.1811
     52  C         19.7350   59.4860   30.1110 C.2   186  GLY186      0.2280
     53  O         18.7660   59.0170   30.7070 O.2   186  GLY186     -0.2866
     54  N         14.3120   56.7840   29.8580 N.3   232  SER232     -0.1202
     55  CA        15.2680   57.8920   29.7490 C.3   232  SER232      0.2020
     56  C         15.0010   58.8880   30.8850 C.2   232  SER232      0.2618
     57  O         13.9000   58.9170   31.4540 O.2   232  SER232     -0.2717
     58  CB        15.1180   58.5950   28.3950 C.3   232  SER232      0.2103
     59  OG        13.8570   59.2380   28.2930 O.3   232  SER232     -0.2182
     60  N         16.0040   59.6990   31.2090 N.am  233  ALA233     -0.1979
     61  CA        15.9390   60.6940   32.3010 C.3   233  ALA233      0.1597
     62  C         15.5730   60.0040   33.6260 C.2   233  ALA233      0.2287
     63  O         14.7430   60.4880   34.4130 O.2   233  ALA233     -0.2864
     64  CB        14.9530   61.8110   31.9430 C.3   233  ALA233      0.0319
     65  N         10.2750   61.9390   35.9230 N.3   279  SER279     -0.1202
     66  CA        11.5840   61.8250   35.2850 C.3   279  SER279      0.2020
     67  C         12.4810   62.9680   35.7580 C.2   279  SER279      0.2619
     68  O         12.0300   63.8740   36.4360 O.2   279  SER279     -0.2717
     69  CB        11.4400   61.9310   33.7680 C.3   279  SER279      0.2103
     70  OG        10.9060   63.2090   33.3900 O.3   279  SER279     -0.2182
     71  N         13.7510   62.9090   35.3860 N.am  280  GLY280     -0.1956
     72  CA        14.7020   64.0090   35.6120 C.3   280  GLY280      0.1869
     73  C         14.9880   64.3220   37.0770 C.2   280  GLY280      0.2309
     74  O         15.1770   65.5100   37.4350 O.2   280  GLY280     -0.2863
@<TRIPOS>BOND
     1    48    47    1
     2    49    47    1
     3    47    46    2
     4    59    58    1
     5    50    51    1
     6    58    55    1
     7    46    45    1
     8    51    52    1
     9    45    44    1
    10    55    54    1
    11    55    56    1
    12    52    53    2
    13    56    60   am
    14    56    57    2
    15    43    44    1
    16    43    40    1
    17    38    36   am
    18    60    61    1
    19    12    11    1
    20    34    33    2
    21    29    28    2
    22    42    41    2
    23    64    61    1
    24    36    35    1
    25    36    37    2
    26    11    10   ar
    27    11     9   ar
    28    10     8   ar
    29    35    32    1
    30    61    62    1
    31    33    39   am
    32    33    32    1
    33    40    41    1
    34    40    39    1
    35    28    30   am
    36    28    27    1
    37    32    31    1
    38     9     7   ar
    39     8     6   ar
    40    27    24    1
    41    70    69    1
    42    62    63    2
    43    69    66    1
    44     7     6   ar
    45     6     5    1
    46    24    25    1
    47    24    23    1
    48    25    26    2
    49     5     2    1
    50    18    17    1
    51    20    19    1
    52    20    21    1
    53    66    67    1
    54    66    65    1
    55    71    72    1
    56    71    67   am
    57    22    21    2
    58    72    73    1
    59    67    68    2
    60     4     3    2
    61    19    15   am
    62    17    14    1
    63    16    15    2
    64     3     2    1
    65    15    14    1
    66     2     1    1
    67    14    13    1
    68    73    74    2
