@<TRIPOS>MOLECULE
tmp/5g01A00.pdb
 129 122 0 0 0
SMALL
GASTEIGER

@<TRIPOS>ATOM
      1  N         12.7180    0.4850    5.5570 N.3    65  LYS65      -0.1245
      2  CA        12.0900    1.5240    6.3460 C.3    65  LYS65       0.1561
      3  C         10.9940    2.2090    5.5560 C.2    65  LYS65       0.2260
      4  O         11.2350    2.5960    4.4190 O.2    65  LYS65      -0.2867
      5  CB        13.1490    2.5470    6.7450 C.3    65  LYS65       0.0271
      6  CG        12.6210    3.6810    7.6040 C.3    65  LYS65       0.0035
      7  CD        13.7260    4.6270    8.0690 C.3    65  LYS65       0.0206
      8  CE        14.5890    5.2740    6.9830 C.3    65  LYS65       0.1093
      9  NZ        14.0030    6.4310    6.2420 N.3    65  LYS65      -0.1314
     10  N          8.7990    5.5690    5.6350 N.3    67  ASN67      -0.1225
     11  CA         8.7070    6.8810    6.2730 C.3    67  ASN67       0.1785
     12  C          7.3150    7.4870    6.1510 C.2    67  ASN67       0.2597
     13  O          6.5710    7.1350    5.2300 O.2    67  ASN67      -0.2718
     14  CB         9.7440    7.8340    5.7400 C.3    67  ASN67       0.1169
     15  CG         9.4420    8.2950    4.3360 C.2    67  ASN67       0.2627
     16  OD1        9.2670    7.4870    3.4570 O.2    67  ASN67      -0.2716
     17  ND2        9.4190    9.6130    4.1160 N.am   67  ASN67      -0.0877
     18  N          7.0270    8.4300    7.0490 N.am   68  PHE68      -0.1976
     19  CA         5.7370    9.1080    7.1320 C.3    68  PHE68       0.1639
     20  C          5.9120   10.5970    7.0950 C.2    68  PHE68       0.2290
     21  O          6.9360   11.1290    7.5110 O.2    68  PHE68      -0.2864
     22  CB         5.0290    8.7150    8.4170 C.3    68  PHE68       0.0560
     23  CG         4.5560    7.2950    8.4090 C.ar   68  PHE68      -0.0200
     24  CD1        5.4220    6.2610    8.6950 C.ar   68  PHE68      -0.0042
     25  CD2        3.2490    6.9880    8.1110 C.ar   68  PHE68      -0.0042
     26  CE1        5.0130    4.9530    8.6220 C.ar   68  PHE68      -0.0003
     27  CE2        2.8200    5.6720    8.0430 C.ar   68  PHE68      -0.0003
     28  CZ         3.7120    4.6580    8.2970 C.ar   68  PHE68      -0.0000
     29  N          5.5840   13.5870    8.8490 N.3    70  ASP70      -0.1239
     30  CA         5.5230   13.9920   10.2560 C.3    70  ASP70       0.1674
     31  C          5.6830   15.5070   10.3860 C.2    70  ASP70       0.2266
     32  O          6.1840   15.9960   11.4010 O.2    70  ASP70      -0.2867
     33  CB         6.6050   13.2660   11.0770 C.3    70  ASP70       0.1410
     34  CG         8.0210   13.5430   10.5880 C.2    70  ASP70       0.3668
     35  OD1        8.2350   14.2100    9.5370 O.co2  70  ASP70      -0.2456
     36  OD2        8.9560   13.0860   11.2780 O.co2  70  ASP70      -0.2456
     37  N          7.2730    8.7440   12.7080 N.3    89  THR89      -0.1203
     38  CA         8.1440    9.1780   11.6210 C.3    89  THR89       0.1994
     39  C          8.5310    8.0440   10.6650 C.2    89  THR89       0.2617
     40  O          8.7240    8.2740    9.4760 O.2    89  THR89      -0.2717
     41  CB         9.3670    9.9580   12.1760 C.3    89  THR89       0.1784
     42  OG1       10.0630   10.5940   11.0990 O.3    89  THR89      -0.2211
     43  CG2       10.3480    9.0980   12.9660 C.3    89  THR89       0.0376
     44  N          8.6500    6.8110   11.1750 N.am   90  GLN90      -0.1979
     45  CA         9.0160    5.6820   10.3390 C.3    90  GLN90       0.1601
     46  C          8.7650    4.3920   11.0580 C.2    90  GLN90       0.2287
     47  O          8.6900    4.3570   12.2960 O.2    90  GLN90      -0.2864
     48  CB        10.4880    5.7140    9.9010 C.3    90  GLN90       0.0394
     49  CG        11.4770    5.8420   11.0450 C.3    90  GLN90       0.0908
     50  CD        12.2580    4.5790   11.3430 C.2    90  GLN90       0.2608
     51  OE1       11.8330    3.4490   11.1170 O.2    90  GLN90      -0.2717
     52  NE2       13.4620    4.7890   11.8470 N.am   90  GLN90      -0.0878
     53  N          8.7260    4.1360   15.1150 N.3   119  VAL119     -0.1245
     54  CA         9.5670    5.1140   15.7460 C.3   119  VAL119      0.1561
     55  C          8.8840    6.4760   15.7370 C.2   119  VAL119      0.2260
     56  O          8.4370    6.9370   14.6820 O.2   119  VAL119     -0.2867
     57  CB        10.8930    5.2070   14.9990 C.3   119  VAL119      0.0252
     58  CG1       11.7880    6.2580   15.6510 C.3   119  VAL119      0.0019
     59  CG2       11.5980    3.8490   14.8880 C.3   119  VAL119      0.0019
     60  N          8.8100   10.6340   17.6260 N.3   121  TRP121     -0.1241
     61  CA         9.5740   11.6750   18.3090 C.3   121  TRP121      0.1605
     62  C          8.6770   12.6500   19.0510 C.2   121  TRP121      0.2264
     63  O          7.5400   12.9650   18.6240 O.2   121  TRP121     -0.2867
     64  CB        10.5190   12.4090   17.3370 C.3   121  TRP121      0.0550
     65  CG         9.8720   13.0310   16.1620 C.ar  121  TRP121      0.0003
     66  CD1        9.6010   12.4290   14.9810 C.ar  121  TRP121      0.0946
     67  CD2        9.4820   14.3950   16.0190 C.ar  121  TRP121      0.0152
     68  NE1        9.0130   13.3110   14.1290 N.ar  121  TRP121     -0.2442
     69  CE2        8.9310   14.5320   14.7280 C.ar  121  TRP121      0.0810
     70  CE3        9.5330   15.5160   16.8510 C.ar  121  TRP121      0.0012
     71  CZ2        8.4430   15.7390   14.2370 C.ar  121  TRP121      0.0191
     72  CZ3        9.0550   16.7210   16.3560 C.ar  121  TRP121      0.0001
     73  CH2        8.4860   16.8160   15.0680 C.ar  121  TRP121      0.0015
     74  N         12.7890   15.7490   14.6070 N.3   128  ALA128     -0.1245
     75  CA        13.2470   14.4390   15.0060 C.3   128  ALA128      0.1562
     76  C         14.7440   14.4100   15.3180 C.2   128  ALA128      0.2260
     77  O         15.1690   13.5640   16.0970 O.2   128  ALA128     -0.2867
     78  CB        12.9130   13.4290   13.9340 C.3   128  ALA128      0.0290
     79  N         16.1430   13.2870   18.9350 N.3   132  SER132     -0.1217
     80  CA        17.0050   12.1020   19.0610 C.3   132  SER132      0.1889
     81  C         18.1080   12.2310   20.1020 C.2   132  SER132      0.2288
     82  O         18.6990   11.2190   20.4660 O.2   132  SER132     -0.2866
     83  CB        17.6420   11.7420   17.7240 C.3   132  SER132      0.2089
     84  OG        18.6440   12.6620   17.3220 O.3   132  SER132     -0.2183
     85  N         12.4590   10.2530   22.1510 N.3   138  LEU138     -0.1245
     86  CA        11.9390    9.2360   21.2200 C.3   138  LEU138      0.1561
     87  C         11.1210    8.2050   21.9440 C.2   138  LEU138      0.2260
     88  O         11.3220    7.9510   23.1140 O.2   138  LEU138     -0.2867
     89  CB        13.0610    8.5220   20.4630 C.3   138  LEU138      0.0270
     90  CG        14.0220    9.3970   19.6750 C.3   138  LEU138      0.0019
     91  CD1       15.1380    8.5440   19.1110 C.3   138  LEU138      0.0001
     92  CD2       13.3330   10.1610   18.5530 C.3   138  LEU138      0.0001
     93  N         18.3670    3.6450   21.1290 N.3   195  LEU195     -0.1245
     94  CA        18.3600    3.1220   19.7530 C.3   195  LEU195      0.1561
     95  C         19.0860    1.7670   19.7810 C.2   195  LEU195      0.2260
     96  O         20.1130    1.6270   20.4720 O.2   195  LEU195     -0.2867
     97  CB        19.0540    4.0840   18.7890 C.3   195  LEU195      0.0270
     98  CG        18.5300    5.5010   18.6950 C.3   195  LEU195      0.0019
     99  CD1       19.4280    6.3170   17.7730 C.3   195  LEU195      0.0001
    100  CD2       17.0970    5.4750   18.2060 C.3   195  LEU195      0.0001
    101  N         20.4550    0.5030   17.0860 N.3   197  THR197     -0.1204
    102  CA        21.4780    0.6290   16.0480 C.3   197  THR197      0.1979
    103  C         22.3500    1.8100   16.3480 C.2   197  THR197      0.2460
    104  O         21.8920    2.7500   16.9950 O.2   197  THR197     -0.2732
    105  CB        20.8160    0.8510   14.6860 C.3   197  THR197      0.1783
    106  OG1       19.9940    2.0320   14.7130 O.3   197  THR197     -0.2211
    107  CG2       19.9820   -0.3500   14.2980 C.3   197  THR197      0.0376
    108  N         23.6220    1.7790   15.9040 N.am  198  PRO198     -0.2718
    109  CA        24.4090    3.0000   15.9240 C.3   198  PRO198      0.1520
    110  C         23.5910    4.2050   15.4350 C.2   198  PRO198      0.2440
    111  O         22.8570    4.0690   14.4470 O.2   198  PRO198     -0.2731
    112  CB        25.5850    2.6550   15.0030 C.3   198  PRO198      0.0310
    113  CG        25.7540    1.1840   15.2090 C.3   198  PRO198      0.0237
    114  CD        24.3490    0.6770   15.2510 C.3   198  PRO198      0.0939
    115  N         23.6760    5.3580   16.0990 N.am  199  PRO199     -0.2727
    116  CA        24.6440    5.6850   17.1630 C.3   199  PRO199      0.1402
    117  C         24.2500    5.2910   18.6080 C.2   199  PRO199      0.2269
    118  O         24.9390    5.6810   19.5580 O.2   199  PRO199     -0.2865
    119  CB        24.7530    7.2070   17.0290 C.3   199  PRO199      0.0296
    120  CG        23.3770    7.6170   16.5710 C.3   199  PRO199      0.0237
    121  CD        22.9540    6.5560   15.6270 C.3   199  PRO199      0.0939
    122  N         21.9950    6.0710   20.7230 N.3   201  ASN201     -0.1240
    123  CA        21.6080    7.1320   21.6410 C.3   201  ASN201      0.1653
    124  C         20.6270    6.6490   22.6980 C.2   201  ASN201      0.2266
    125  O         19.6500    5.9580   22.3870 O.2   201  ASN201     -0.2867
    126  CB        20.9350    8.2990   20.9310 C.3   201  ASN201      0.1155
    127  CG        21.8320    9.0200   19.9490 C.2   201  ASN201      0.2627
    128  OD1       22.9680    8.6300   19.6910 O.2   201  ASN201     -0.2716
    129  ND2       21.3010   10.0920   19.3790 N.am  201  ASN201     -0.0877
@<TRIPOS>BOND
     1    16    15    2
     2    17    15   am
     3    15    14    1
     4     4     3    2
     5    13    12    2
     6     3     2    1
     7     1     2    1
     8    10    11    1
     9    14    11    1
    10    12    11    1
    11    12    18   am
    12     9     8    1
    13     2     5    1
    14     5     6    1
    15     8     7    1
    16    18    19    1
    17    20    19    1
    18    20    21    2
    19    19    22    1
    20     6     7    1
    21    27    25   ar
    22    27    28   ar
    23    25    23   ar
    24    28    26   ar
    25    23    22    1
    26    23    24   ar
    27    26    24   ar
    28    29    30    1
    29    40    39    2
    30    35    34   ar
    31    48    45    1
    32    48    49    1
    33    30    31    1
    34    30    33    1
    35    45    46    1
    36    45    44    1
    37    31    32    2
    38    34    33    1
    39    34    36   ar
    40    39    44   am
    41    39    38    1
    42    49    50    1
    43    46    47    2
    44    42    41    1
    45    51    50    2
    46    50    52   am
    47    38    41    1
    48    38    37    1
    49    41    43    1
    50    78    75    1
    51    68    69   ar
    52    68    66   ar
    53    71    69   ar
    54    71    73   ar
    55   107   105    1
    56   111   110    2
    57    74    75    1
    58    56    55    2
    59   105   106    1
    60   105   102    1
    61    69    67   ar
    62    59    57    1
    63    66    65   ar
    64    57    58    1
    65    57    54    1
    66   112   113    1
    67   112   109    1
    68    75    76    1
    69    73    72   ar
    70    53    54    1
    71   113   114    1
    72   114   108    1
    73    76    77    2
    74   110   109    1
    75   110   115   am
    76   121   115    1
    77   121   120    1
    78    55    54    1
    79   108   109    1
    80   108   103   am
    81    67    65   ar
    82    67    70   ar
    83   102   103    1
    84   102   101    1
    85   115   116    1
    86    65    64    1
    87   103   104    2
    88    72    70   ar
    89   120   119    1
    90   119   116    1
    91   116   117    1
    92    84    83    1
    93    64    61    1
    94    60    61    1
    95    83    80    1
    96    99    98    1
    97   100    98    1
    98    61    62    1
    99    92    90    1
   100   117   118    2
   101    63    62    2
   102    98    97    1
   103    97    94    1
   104    79    80    1
   105    80    81    1
   106    91    90    1
   107   129   127   am
   108    90    89    1
   109   128   127    2
   110    94    95    1
   111    94    93    1
   112    95    96    2
   113   127   126    1
   114    81    82    2
   115    89    86    1
   116   122   123    1
   117   126   123    1
   118    86    87    1
   119    86    85    1
   120   123   124    1
   121    87    88    2
   122   125   124    2
