@<TRIPOS>MOLECULE
tmp/5g02A02.pdb
 104 103 0 0 0
SMALL
GASTEIGER

@<TRIPOS>ATOM
      1  N          3.7420    6.8130   50.2250 N.3     5  GLN5       -0.1245
      2  CA         3.3480    7.4520   51.4890 C.3     5  GLN5        0.1566
      3  C          2.4640    8.6670   51.2310 C.2     5  GLN5        0.2260
      4  O          2.6980    9.7650   51.7490 O.2     5  GLN5       -0.2867
      5  CB         4.5700    7.8400   52.3260 C.3     5  GLN5        0.0367
      6  CG         5.6090    6.7560   52.4910 C.3     5  GLN5        0.0905
      7  CD         6.8560    7.2700   53.1820 C.2     5  GLN5        0.2608
      8  OE1        7.8270    7.6590   52.5380 O.2     5  GLN5       -0.2717
      9  NE2        6.8350    7.2700   54.5050 N.am    5  GLN5       -0.0878
     10  N          0.5840   10.6660   54.1610 N.3     8  GLU8       -0.1231
     11  CA         1.4180   11.5890   54.9190 C.3     8  GLU8        0.1699
     12  C          1.8820   12.7620   54.0650 C.2     8  GLU8        0.2592
     13  O          1.8790   13.9090   54.5270 O.2     8  GLU8       -0.2718
     14  CB         2.6170   10.8470   55.4900 C.3     8  GLU8        0.0402
     15  CG         3.2650   11.5630   56.6360 C.3     8  GLU8        0.1161
     16  CD         4.6540   11.0500   56.8970 C.2     8  GLU8        0.3649
     17  OE1        4.8590    9.8200   56.7570 O.co2   8  GLU8       -0.2457
     18  OE2        5.5360   11.8730   57.2250 O.co2   8  GLU8       -0.2457
     19  N          2.2940   12.4950   52.8240 N.am    9  TYR9       -0.1976
     20  CA         2.7420   13.5740   51.9530 C.3     9  TYR9        0.1639
     21  C          1.6380   14.5990   51.7550 C.2     9  TYR9        0.2290
     22  O          1.8160   15.7810   52.0660 O.2     9  TYR9       -0.2864
     23  CB         3.2130   12.9990   50.6130 C.3     9  TYR9        0.0560
     24  CG         3.6620   14.0210   49.6090 C.ar    9  TYR9       -0.0198
     25  CD1        4.9370   14.5840   49.6690 C.ar    9  TYR9       -0.0009
     26  CD2        2.8160   14.4040   48.5680 C.ar    9  TYR9       -0.0009
     27  CE1        5.3520   15.5310   48.7230 C.ar    9  TYR9        0.0417
     28  CE2        3.2190   15.3420   47.6080 C.ar    9  TYR9        0.0417
     29  CZ         4.4840   15.9030   47.6890 C.ar    9  TYR9        0.1957
     30  OH         4.8620   16.8220   46.7290 O.3     9  TYR9       -0.2866
     31  N          0.3880   16.5280   54.9820 N.3    12  ASN12      -0.1240
     32  CA         1.2060   17.6850   55.3220 C.3    12  ASN12       0.1653
     33  C          0.8570   18.9200   54.5030 C.2    12  ASN12       0.2266
     34  O          1.1100   20.0410   54.9620 O.2    12  ASN12      -0.2867
     35  CB         2.6780   17.3490   55.1300 C.3    12  ASN12       0.1155
     36  CG         3.1590   16.3500   56.1230 C.2    12  ASN12       0.2627
     37  OD1        2.6090   16.2490   57.2090 O.2    12  ASN12      -0.2716
     38  ND2        4.1890   15.6040   55.7700 N.am   12  ASN12      -0.0877
     39  N         14.2340   15.0800   45.9300 N.3   126  PHE126     -0.1227
     40  CA        13.6040   14.5070   47.1200 C.3   126  PHE126      0.1736
     41  C         12.0910   14.6260   47.0300 C.2   126  PHE126      0.2595
     42  O         11.5610   15.6840   46.6920 O.2   126  PHE126     -0.2718
     43  CB        14.1110   15.1940   48.3950 C.3   126  PHE126      0.0547
     44  CG        13.5170   14.6330   49.6610 C.ar  126  PHE126     -0.0202
     45  CD1       13.6220   13.2860   49.9560 C.ar  126  PHE126     -0.0042
     46  CD2       12.8400   15.4540   50.5440 C.ar  126  PHE126     -0.0042
     47  CE1       13.0610   12.7650   51.1240 C.ar  126  PHE126     -0.0003
     48  CE2       12.2880   14.9460   51.7210 C.ar  126  PHE126     -0.0003
     49  CZ        12.3980   13.6000   52.0140 C.ar  126  PHE126     -0.0000
     50  N         11.4090   13.5090   47.2710 N.am  127  GLU127     -0.1979
     51  CA         9.9650   13.3120   47.2290 C.3   127  GLU127      0.1602
     52  C          9.4580   13.0330   45.8150 C.2   127  GLU127      0.2287
     53  O          8.3120   12.6030   45.6640 O.2   127  GLU127     -0.2864
     54  CB         9.1800   14.4860   47.8420 C.3   127  GLU127      0.0415
     55  CG         9.3740   14.5460   49.3450 C.3   127  GLU127      0.1163
     56  CD         8.8940   15.8350   49.9710 C.2   127  GLU127      0.3649
     57  OE1        8.6570   16.8290   49.2340 O.co2 127  GLU127     -0.2457
     58  OE2        8.7600   15.8450   51.2150 O.co2 127  GLU127     -0.2457
     59  N          9.4300    7.8900   47.4570 N.3   310  ARG310     -0.1231
     60  CA         9.6810    9.3020   47.6870 C.3   310  ARG310      0.1694
     61  C         11.0810    9.5650   48.1960 C.2   310  ARG310      0.2592
     62  O         11.4220   10.7160   48.4750 O.2   310  ARG310     -0.2718
     63  CB         8.6380    9.8730   48.6470 C.3   310  ARG310      0.0321
     64  CG         7.2820    9.9630   47.9520 C.3   310  ARG310      0.0489
     65  CD         6.4460   11.1180   48.4430 C.3   310  ARG310      0.2205
     66  NE         5.0900   11.0700   47.8890 N.pl3 310  ARG310     -0.0865
     67  CZ         4.6390   11.8370   46.8980 C.cat 310  ARG310      0.5346
     68  NH1        5.4190   12.7410   46.3180 N.pl3 310  ARG310      0.1354
     69  NH2        3.3880   11.7180   46.5060 N.pl3 310  ARG310      0.1354
     70  N         11.9140    8.5400   48.2720 N.am  311  HIS311     -0.1976
     71  CA        13.2020    8.6470   48.9390 C.3   311  HIS311      0.1656
     72  C         14.3260    8.2750   47.9730 C.2   311  HIS311      0.2291
     73  O         14.1040    7.6830   46.9090 O.2   311  HIS311     -0.2864
     74  CB        13.2330    7.7540   50.1940 C.3   311  HIS311      0.0771
     75  CG        12.2510    8.1550   51.2510 C.ar  311  HIS311      0.0820
     76  ND1       12.5740    9.0110   52.2860 N.ar  311  HIS311     -0.2267
     77  CD2       10.9560    7.8110   51.4410 C.ar  311  HIS311      0.1154
     78  CE1       11.5210    9.1740   53.0680 C.ar  311  HIS311      0.1986
     79  NE2       10.5230    8.4640   52.5720 N.ar  311  HIS311     -0.2212
     80  N         15.3470    9.7960   52.9160 N.3   336  TRP336     -0.1227
     81  CA        15.8550    9.5980   54.2770 C.3   336  TRP336      0.1737
     82  C         16.0030    8.1190   54.6150 C.2   336  TRP336      0.2595
     83  O         16.6330    7.7590   55.6080 O.2   336  TRP336     -0.2718
     84  CB        14.9260   10.2550   55.2950 C.3   336  TRP336      0.0564
     85  CG        15.0380   11.7110   55.2820 C.ar  336  TRP336      0.0003
     86  CD1       14.1240   12.6070   54.8090 C.ar  336  TRP336      0.0946
     87  CD2       16.1530   12.4690   55.7410 C.ar  336  TRP336      0.0152
     88  NE1       14.6050   13.8860   54.9560 N.ar  336  TRP336     -0.2442
     89  CE2       15.8520   13.8260   55.5260 C.ar  336  TRP336      0.0810
     90  CE3       17.3800   12.1310   56.3180 C.ar  336  TRP336      0.0012
     91  CZ2       16.7380   14.8490   55.8690 C.ar  336  TRP336      0.0191
     92  CZ3       18.2540   13.1420   56.6560 C.ar  336  TRP336      0.0001
     93  CH2       17.9310   14.4850   56.4300 C.ar  336  TRP336      0.0015
     94  N         15.3960    7.2660   53.7980 N.am  337  ARG337     -0.1980
     95  CA        15.4680    5.8270   54.0020 C.3   337  ARG337      0.1597
     96  C         16.4690    5.2420   53.0090 C.2   337  ARG337      0.2287
     97  O         16.5740    5.7090   51.8650 O.2   337  ARG337     -0.2864
     98  CB        14.0860    5.1800   53.8260 C.3   337  ARG337      0.0334
     99  CG        12.9360    5.9320   54.5100 C.3   337  ARG337      0.0492
    100  CD        11.6090    5.1630   54.4250 C.3   337  ARG337      0.2205
    101  NE        11.4700    4.2070   55.5200 N.pl3 337  ARG337     -0.0865
    102  CZ        10.3790    4.0630   56.2630 C.cat 337  ARG337      0.5346
    103  NH1        9.3140    4.8180   56.0290 N.pl3 337  ARG337      0.1354
    104  NH2       10.3620    3.1550   57.2290 N.pl3 337  ARG337      0.1354
@<TRIPOS>BOND
     1    53    52    2
     2    52    51    1
     3    39    40    1
     4    68    67    1
     5    69    67    1
     6    42    41    2
     7    30    29    1
     8    67    66    2
     9    73    72    2
    10    41    40    1
    11    41    50   am
    12    40    43    1
    13    51    50    1
    14    51    54    1
    15    59    60    1
    16    28    29   ar
    17    28    26   ar
    18    60    61    1
    19    60    63    1
    20    29    27   ar
    21    54    55    1
    22    66    65    1
    23    64    65    1
    24    64    63    1
    25    72    71    1
    26    61    70   am
    27    61    62    2
    28    70    71    1
    29    43    44    1
    30    26    24   ar
    31    27    25   ar
    32    71    74    1
    33    57    56   ar
    34    55    56    1
    35    24    25   ar
    36    24    23    1
    37    44    45   ar
    38    44    46   ar
    39    45    47   ar
    40    56    58   ar
    41    74    75    1
    42     1     2    1
    43    46    48   ar
    44    23    20    1
    45    47    49   ar
    46     3     2    1
    47     3     4    2
    48    75    77   ar
    49    75    76   ar
    50    77    79   ar
    51     2     5    1
    52    48    49   ar
    53    21    20    1
    54    21    22    2
    55    97    96    2
    56    20    19    1
    57    76    78   ar
    58     5     6    1
    59     6     7    1
    60     8     7    2
    61    79    78   ar
    62    19    12   am
    63    80    81    1
    64    96    95    1
    65     7     9   am
    66    94    95    1
    67    94    82   am
    68    98    95    1
    69    98    99    1
    70    12    13    2
    71    12    11    1
    72    10    11    1
    73    81    82    1
    74    81    84    1
    75   100    99    1
    76   100   101    1
    77    33    34    2
    78    33    32    1
    79    82    83    2
    80    86    88   ar
    81    86    85   ar
    82    11    14    1
    83    88    89   ar
    84    31    32    1
    85    35    32    1
    86    35    36    1
    87    85    84    1
    88    85    87   ar
    89    14    15    1
    90   101   102    2
    91    89    87   ar
    92    89    91   ar
    93    87    90   ar
    94    38    36   am
    95    91    93   ar
    96   103   102    1
    97    36    37    2
    98   102   104    1
    99    90    92   ar
   100    93    92   ar
   101    15    16    1
   102    17    16   ar
   103    16    18   ar
