@<TRIPOS>MOLECULE
tmp/5g02A00.pdb
 235 228 0 0 0
SMALL
GASTEIGER

@<TRIPOS>ATOM
      1  N          2.2940   12.4950   52.8240 N.3     9  TYR9       -0.1227
      2  CA         2.7420   13.5740   51.9530 C.3     9  TYR9        0.1736
      3  C          1.6380   14.5990   51.7550 C.2     9  TYR9        0.2595
      4  O          1.8160   15.7810   52.0660 O.2     9  TYR9       -0.2718
      5  CB         3.2130   12.9990   50.6130 C.3     9  TYR9        0.0548
      6  CG         3.6620   14.0210   49.6090 C.ar    9  TYR9       -0.0200
      7  CD1        4.9370   14.5840   49.6690 C.ar    9  TYR9       -0.0009
      8  CD2        2.8160   14.4040   48.5680 C.ar    9  TYR9       -0.0009
      9  CE1        5.3520   15.5310   48.7230 C.ar    9  TYR9        0.0417
     10  CE2        3.2190   15.3420   47.6080 C.ar    9  TYR9        0.0417
     11  CZ         4.4840   15.9030   47.6890 C.ar    9  TYR9        0.1957
     12  OH         4.8620   16.8220   46.7290 O.3     9  TYR9       -0.2866
     13  N          0.4670   14.1520   51.2870 N.am   10  PHE10      -0.1976
     14  CA        -0.6450   15.0650   51.0190 C.3    10  PHE10       0.1639
     15  C         -1.3280   15.5520   52.2920 C.2    10  PHE10       0.2290
     16  O         -2.0040   16.5870   52.2580 O.2    10  PHE10      -0.2864
     17  CB        -1.6760   14.4010   50.0860 C.3    10  PHE10       0.0560
     18  CG        -1.1450   14.1140   48.6960 C.ar   10  PHE10      -0.0200
     19  CD1       -0.8490   15.1500   47.8210 C.ar   10  PHE10      -0.0042
     20  CD2       -0.9350   12.8110   48.2700 C.ar   10  PHE10      -0.0042
     21  CE1       -0.3510   14.8860   46.5640 C.ar   10  PHE10      -0.0003
     22  CE2       -0.4410   12.5490   47.0060 C.ar   10  PHE10      -0.0003
     23  CZ        -0.1480   13.5890   46.1570 C.ar   10  PHE10      -0.0000
     24  N          0.3000   18.7470   53.3050 N.3    13  TYR13      -0.1241
     25  CA        -0.0600   19.8770   52.4610 C.3    13  TYR13       0.1605
     26  C         -1.4880   20.3420   52.6670 C.2    13  TYR13       0.2264
     27  O         -1.8550   21.4010   52.1480 O.2    13  TYR13      -0.2867
     28  CB         0.1640   19.5310   50.9930 C.3    13  TYR13       0.0534
     29  CG         1.6000   19.7150   50.6010 C.ar   13  TYR13      -0.0201
     30  CD1        2.1910   20.9730   50.6650 C.ar   13  TYR13      -0.0009
     31  CD2        2.3800   18.6420   50.2030 C.ar   13  TYR13      -0.0009
     32  CE1        3.5150   21.1650   50.3170 C.ar   13  TYR13       0.0417
     33  CE2        3.7150   18.8250   49.8420 C.ar   13  TYR13       0.0417
     34  CZ         4.2730   20.0940   49.9060 C.ar   13  TYR13       0.1957
     35  OH         5.5850   20.3060   49.5600 O.3    13  TYR13      -0.2866
     36  N          2.2340   25.6800   53.3950 N.3    19  HIS19      -0.1241
     37  CA         1.9250   26.7740   52.4860 C.3    19  HIS19       0.1621
     38  C          2.4420   28.0940   53.0190 C.2    19  HIS19       0.2264
     39  O          2.8880   28.9410   52.2350 O.2    19  HIS19      -0.2867
     40  CB         0.4240   26.8410   52.2380 C.3    19  HIS19       0.0745
     41  CG        -0.1060   25.6310   51.5430 C.ar   19  HIS19       0.0817
     42  ND1        0.1230   25.3830   50.2060 N.ar   19  HIS19      -0.2268
     43  CD2       -0.8160   24.5780   52.0090 C.ar   19  HIS19       0.1154
     44  CE1       -0.4450   24.2370   49.8740 C.ar   19  HIS19       0.1986
     45  NE2       -1.0200   23.7280   50.9500 N.ar   19  HIS19      -0.2212
     46  N          5.9540   28.3110   52.0000 N.3    22  MET22      -0.1230
     47  CA         6.1890   28.4920   50.5680 C.3    22  MET22       0.1702
     48  C          5.9240   29.9210   50.1270 C.2    22  MET22       0.2592
     49  O          6.7080   30.4940   49.3680 O.2    22  MET22      -0.2718
     50  CB         5.3340   27.5140   49.7650 C.3    22  MET22       0.0401
     51  CG         5.7350   26.0880   49.9900 C.3    22  MET22       0.0596
     52  SD         4.9040   24.8800   48.9720 S.3    22  MET22      -0.1393
     53  CE         6.3890   24.1340   48.2890 C.3    22  MET22       0.0692
     54  N          4.8220   30.5090   50.5900 N.am   23  LEU23      -0.1980
     55  CA         4.5070   31.8880   50.2390 C.3    23  LEU23       0.1596
     56  C          5.3870   32.8840   50.9780 C.2    23  LEU23       0.2287
     57  O          5.5190   34.0270   50.5270 O.2    23  LEU23      -0.2864
     58  CB         3.0290   32.1670   50.5180 C.3    23  LEU23       0.0297
     59  CG         2.0930   31.1960   49.7910 C.3    23  LEU23       0.0022
     60  CD1        0.6880   31.2380   50.3840 C.3    23  LEU23       0.0001
     61  CD2        2.0630   31.5240   48.3020 C.3    23  LEU23       0.0001
     62  N         11.3080   32.4840   45.8080 N.3    28  ARG28      -0.1245
     63  CA        10.6260   31.3860   45.1220 C.3    28  ARG28       0.1563
     64  C          9.3230   31.8630   44.4950 C.2    28  ARG28       0.2260
     65  O          9.0630   31.6060   43.3170 O.2    28  ARG28      -0.2867
     66  CB        10.3570   30.2370   46.0990 C.3    28  ARG28       0.0307
     67  CG         9.4820   29.1030   45.5720 C.3    28  ARG28       0.0489
     68  CD         8.8600   28.3530   46.7450 C.3    28  ARG28       0.2205
     69  NE         7.5300   28.9170   46.9900 N.pl3  28  ARG28      -0.0865
     70  CZ         6.3900   28.5250   46.4250 C.cat  28  ARG28       0.5346
     71  NH1        6.3580   27.4540   45.6600 N.pl3  28  ARG28       0.1354
     72  NH2        5.2630   29.1720   46.6980 N.pl3  28  ARG28       0.1354
     73  N         -1.6540   24.3020   35.9840 N.3    50  ASP50      -0.1225
     74  CA        -0.8850   24.5280   37.2130 C.3    50  ASP50       0.1805
     75  C         -0.9110   23.2310   38.0240 C.2    50  ASP50       0.2598
     76  O         -1.8660   22.9520   38.7550 O.2    50  ASP50      -0.2718
     77  CB        -1.4540   25.7080   38.0000 C.3    50  ASP50       0.1424
     78  CG        -0.6890   25.9950   39.3130 C.2    50  ASP50       0.3668
     79  OD1        0.2260   25.2350   39.6950 O.co2  50  ASP50      -0.2456
     80  OD2       -1.0160   27.0040   39.9720 O.co2  50  ASP50      -0.2456
     81  N          0.1550   22.4440   37.9170 N.am   51  LEU51      -0.1966
     82  CA         0.2010   21.1170   38.5220 C.3    51  LEU51       0.1728
     83  C          0.6450   21.2100   39.9790 C.2    51  LEU51       0.2617
     84  O          1.8050   21.5230   40.2650 O.2    51  LEU51      -0.2715
     85  CB         1.1320   20.1930   37.7460 C.3    51  LEU51       0.0311
     86  CG         0.8150   18.7890   38.2570 C.3    51  LEU51       0.0022
     87  CD1       -0.0840   18.1270   37.2700 C.3    51  LEU51       0.0001
     88  CD2        2.0480   17.9360   38.5250 C.3    51  LEU51       0.0001
     89  N         -0.2590   20.8760   40.8950 N.am   52  GLY52      -0.1940
     90  CA         0.0430   20.9710   42.3060 C.3    52  GLY52       0.2014
     91  C         -0.0460   22.4080   42.7640 C.2    52  GLY52       0.2639
     92  O          0.9070   22.9390   43.3380 O.2    52  GLY52      -0.2714
     93  N         -1.1960   23.0420   42.5060 N.am   53  CYS53      -0.1953
     94  CA        -1.3610   24.4770   42.6940 C.3    53  CYS53       0.1843
     95  C         -1.3570   24.9150   44.1590 C.2    53  CYS53       0.2626
     96  O         -1.1460   26.1010   44.4280 O.2    53  CYS53      -0.2714
     97  CB        -2.6570   24.9370   42.0270 C.3    53  CYS53       0.0997
     98  SG        -4.1590   24.2830   42.7820 S.3    53  CYS53      -0.0797
     99  N         -1.5790   24.0040   45.1040 N.am   54  GLY54      -0.1940
    100  CA        -1.5850   24.3780   46.5010 C.3    54  GLY54       0.2014
    101  C         -2.6830   25.3730   46.8070 C.2    54  GLY54       0.2639
    102  O         -3.8540   25.1130   46.5190 O.2    54  GLY54      -0.2714
    103  N         -2.3130   26.5270   47.3680 N.am   55  THR55      -0.1950
    104  CA        -3.2580   27.6190   47.5830 C.3    55  THR55       0.1897
    105  C         -3.7570   28.2450   46.2840 C.2    55  THR55       0.2313
    106  O         -4.7280   29.0090   46.3240 O.2    55  THR55      -0.2863
    107  CB        -2.6080   28.7100   48.4230 C.3    55  THR55       0.1794
    108  OG1       -1.2760   28.9210   47.9370 O.3    55  THR55      -0.2208
    109  CG2       -2.5640   28.2950   49.8830 C.3    55  THR55       0.0378
    110  N         -1.6330   30.0430   44.0570 N.3    57  VAL57      -0.1231
    111  CA        -0.9740   31.3330   43.8510 C.3    57  VAL57       0.1692
    112  C         -0.5320   31.5050   42.3970 C.2    57  VAL57       0.2591
    113  O         -0.7280   32.5590   41.7880 O.2    57  VAL57      -0.2718
    114  CB         0.2050   31.4760   44.8300 C.3    57  VAL57       0.0266
    115  CG1        1.1320   30.2900   44.7190 C.3    57  VAL57       0.0020
    116  CG2        0.9390   32.7740   44.5970 C.3    57  VAL57       0.0020
    117  N          0.0830   30.4730   41.8150 N.am   58  ILE58      -0.1980
    118  CA         0.5500   30.5440   40.4300 C.3    58  ILE58       0.1595
    119  C         -0.6360   30.6980   39.4800 C.2    58  ILE58       0.2287
    120  O         -0.5610   31.4250   38.4800 O.2    58  ILE58      -0.2864
    121  CB         1.4100   29.3070   40.0850 C.3    58  ILE58       0.0276
    122  CG1        2.5260   29.1080   41.1090 C.3    58  ILE58       0.0022
    123  CG2        1.9990   29.4080   38.6750 C.3    58  ILE58       0.0022
    124  CD1        3.3890   27.8770   40.8190 C.3    58  ILE58       0.0001
    125  N         -4.6510   22.0730   39.7430 N.3    74  VAL74      -0.1231
    126  CA        -4.7890   20.6770   40.1420 C.3    74  VAL74       0.1692
    127  C         -4.1080   20.4760   41.4870 C.2    74  VAL74       0.2592
    128  O         -2.8960   20.6890   41.6160 O.2    74  VAL74      -0.2718
    129  CB        -4.2040   19.7360   39.0820 C.3    74  VAL74       0.0266
    130  CG1       -4.1870   18.3130   39.5970 C.3    74  VAL74       0.0020
    131  CG2       -5.0430   19.8160   37.8330 C.3    74  VAL74       0.0020
    132  N         -4.8750   20.0370   42.4810 N.am   75  GLU75      -0.1966
    133  CA        -4.3340   19.8530   43.8250 C.3    75  GLU75       0.1733
    134  C         -4.9540   18.6130   44.4540 C.2    75  GLU75       0.2616
    135  O         -6.1750   18.5350   44.6090 O.2    75  GLU75      -0.2715
    136  CB        -4.5990   21.0970   44.6860 C.3    75  GLU75       0.0429
    137  CG        -4.1940   20.9460   46.1510 C.3    75  GLU75       0.1163
    138  CD        -2.7280   20.6100   46.3020 C.2    75  GLU75       0.3649
    139  OE1       -1.8810   21.2740   45.6540 O.co2  75  GLU75      -0.2457
    140  OE2       -2.4310   19.6380   47.0300 O.co2  75  GLU75      -0.2457
    141  N         -4.1130   17.6530   44.8360 N.am   76  ALA76      -0.1977
    142  CA        -4.6100   16.4070   45.4060 C.3    76  ALA76       0.1597
    143  C         -4.9550   16.5120   46.8910 C.2    76  ALA76       0.2287
    144  O         -5.7300   15.6900   47.3880 O.2    76  ALA76      -0.2864
    145  CB        -3.5850   15.2920   45.1890 C.3    76  ALA76       0.0319
    146  N         -7.6370   16.3520   42.4170 N.3   101  GLU101     -0.1231
    147  CA        -7.2300   15.0790   41.8410 C.3   101  GLU101      0.1699
    148  C         -5.7120   14.9690   41.8900 C.2   101  GLU101      0.2592
    149  O         -4.9970   15.9690   41.9660 O.2   101  GLU101     -0.2718
    150  CB        -7.7250   14.9220   40.3870 C.3   101  GLU101      0.0402
    151  CG        -9.2430   15.0260   40.2000 C.3   101  GLU101      0.1161
    152  CD        -9.6990   14.9500   38.7430 C.2   101  GLU101      0.3649
    153  OE1       -8.8860   14.5950   37.8610 O.co2 101  GLU101     -0.2457
    154  OE2      -10.8830   15.2470   38.4830 O.co2 101  GLU101     -0.2457
    155  N         -5.2240   13.7360   41.8610 N.am  102  ARG102     -0.1966
    156  CA        -3.8030   13.4970   41.6610 C.3   102  ARG102      0.1729
    157  C         -3.4680   13.6360   40.1830 C.2   102  ARG102      0.2616
    158  O         -4.2710   13.2780   39.3170 O.2   102  ARG102     -0.2715
    159  CB        -3.4120   12.1030   42.1550 C.3   102  ARG102      0.0348
    160  CG        -2.6290   12.1350   43.4470 C.3   102  ARG102      0.0492
    161  CD        -2.5950   10.7930   44.1530 C.3   102  ARG102      0.2205
    162  NE        -1.5720    9.9100   43.6190 N.pl3 102  ARG102     -0.0865
    163  CZ        -1.8320    8.8610   42.8570 C.cat 102  ARG102      0.5346
    164  NH1       -3.0870    8.5600   42.5520 N.pl3 102  ARG102      0.1354
    165  NH2       -0.8390    8.1070   42.4140 N.pl3 102  ARG102      0.1354
    166  N         -2.2790   14.1720   39.8990 N.am  103  ALA103     -0.1963
    167  CA        -1.8060   14.2620   38.5200 C.3   103  ALA103      0.1728
    168  C         -1.9020   12.9210   37.8080 C.2   103  ALA103      0.2616
    169  O         -2.2200   12.8590   36.6170 O.2   103  ALA103     -0.2715
    170  CB        -0.3600   14.7540   38.5040 C.3   103  ALA103      0.0334
    171  N         -1.6510   11.8350   38.5370 N.am  104  GLU104     -0.1977
    172  CA        -1.5630   10.5150   37.9300 C.3   104  GLU104      0.1602
    173  C         -2.9040   10.0750   37.3490 C.2   104  GLU104      0.2287
    174  O         -2.9800    9.6380   36.1980 O.2   104  GLU104     -0.2864
    175  CB        -1.0450    9.5260   38.9730 C.3   104  GLU104      0.0415
    176  CG         0.4500    9.7100   39.2910 C.3   104  GLU104      0.1163
    177  CD         0.7500   10.7490   40.3830 C.2   104  GLU104      0.3649
    178  OE1       -0.1290   11.5670   40.7100 O.co2 104  GLU104     -0.2457
    179  OE2        1.8790   10.7470   40.9160 O.co2 104  GLU104     -0.2457
    180  N          5.5580   23.9800   40.6130 N.3   118  GLU118     -0.1231
    181  CA         6.6740   24.1750   41.5330 C.3   118  GLU118      0.1699
    182  C          6.8380   22.8480   42.2690 C.2   118  GLU118      0.2592
    183  O          6.2090   22.6060   43.2980 O.2   118  GLU118     -0.2718
    184  CB         6.4390   25.3580   42.4790 C.3   118  GLU118      0.0402
    185  CG         7.6950   25.8150   43.2190 C.3   118  GLU118      0.1161
    186  CD         8.0540   24.9040   44.3990 C.2   118  GLU118      0.3649
    187  OE1        7.3670   24.9670   45.4390 O.co2 118  GLU118     -0.2457
    188  OE2        9.0120   24.1150   44.2790 O.co2 118  GLU118     -0.2457
    189  N          7.6940   21.9870   41.7160 N.am  119  TRP119     -0.1962
    190  CA         7.8510   20.6090   42.1640 C.3   119  TRP119      0.1771
    191  C          9.1780   20.3290   42.8510 C.2   119  TRP119      0.2619
    192  O          9.3930   19.2050   43.3080 O.2   119  TRP119     -0.2715
    193  CB         7.7010   19.6560   40.9720 C.3   119  TRP119      0.0590
    194  CG         8.6400   19.9970   39.8440 C.ar  119  TRP119      0.0006
    195  CD1        8.3520   20.7630   38.7400 C.ar  119  TRP119      0.0946
    196  CD2       10.0160   19.6070   39.7080 C.ar  119  TRP119      0.0152
    197  NE1        9.4580   20.8660   37.9340 N.ar  119  TRP119     -0.2442
    198  CE2       10.4910   20.1650   38.4970 C.ar  119  TRP119      0.0810
    199  CE3       10.8900   18.8400   40.4840 C.ar  119  TRP119      0.0012
    200  CZ2       11.8010   19.9830   38.0510 C.ar  119  TRP119      0.0191
    201  CZ3       12.1870   18.6580   40.0400 C.ar  119  TRP119      0.0001
    202  CH2       12.6330   19.2310   38.8360 C.ar  119  TRP119      0.0015
    203  N         10.0810   21.2980   42.9250 N.am  120  MET120     -0.1977
    204  CA        11.4380   20.9740   43.3350 C.3   120  MET120      0.1605
    205  C         11.5040   20.5970   44.8170 C.2   120  MET120      0.2287
    206  O         10.9760   21.2980   45.6880 O.2   120  MET120     -0.2864
    207  CB        12.3720   22.1310   43.0090 C.3   120  MET120      0.0413
    208  CG        12.4430   22.4490   41.4950 C.3   120  MET120      0.0598
    209  SD        11.0640   23.4470   40.8830 S.3   120  MET120     -0.1393
    210  CE        11.4080   24.9950   41.7350 C.3   120  MET120      0.0692
    211  N          8.2180   14.4850   43.2710 N.3   129  MET129     -0.1245
    212  CA         7.0750   15.1080   42.6100 C.3   129  MET129      0.1570
    213  C          7.3470   15.2960   41.1260 C.2   129  MET129      0.2261
    214  O          6.3990   15.3650   40.3310 O.2   129  MET129     -0.2867
    215  CB         6.7240   16.4570   43.2590 C.3   129  MET129      0.0387
    216  CG         5.5010   17.1420   42.6440 C.3   129  MET129      0.0595
    217  SD         5.0180   18.7150   43.3900 S.3   129  MET129     -0.1393
    218  CE         3.8380   19.3220   42.1850 C.3   129  MET129      0.0692
    219  N          5.2770   12.8470   39.0120 N.3   132  SER132     -0.1217
    220  CA         3.9310   13.3080   38.6980 C.3   132  SER132      0.1889
    221  C          3.9500   14.3290   37.5720 C.2   132  SER132      0.2288
    222  O          3.1590   14.2430   36.6270 O.2   132  SER132     -0.2866
    223  CB         3.2780   13.9100   39.9420 C.3   132  SER132      0.2089
    224  OG         3.6130   13.1680   41.0980 O.3   132  SER132     -0.2183
    225  N          9.4300    7.8900   47.4570 N.3   310  ARG310     -0.1245
    226  CA         9.6810    9.3020   47.6870 C.3   310  ARG310      0.1563
    227  C         11.0810    9.5650   48.1960 C.2   310  ARG310      0.2260
    228  O         11.4220   10.7160   48.4750 O.2   310  ARG310     -0.2867
    229  CB         8.6380    9.8730   48.6470 C.3   310  ARG310      0.0307
    230  CG         7.2820    9.9630   47.9520 C.3   310  ARG310      0.0489
    231  CD         6.4460   11.1180   48.4430 C.3   310  ARG310      0.2205
    232  NE         5.0900   11.0700   47.8890 N.pl3 310  ARG310     -0.0865
    233  CZ         4.6390   11.8370   46.8980 C.cat 310  ARG310      0.5346
    234  NH1        5.4190   12.7410   46.3180 N.pl3 310  ARG310      0.1354
    235  NH2        3.3880   11.7180   46.5060 N.pl3 310  ARG310      0.1354
@<TRIPOS>BOND
     1    73    74    1
     2   174   173    2
     3   169   168    2
     4   222   221    2
     5    74    77    1
     6    74    75    1
     7    87    86    1
     8   173   172    1
     9   221   220    1
    10    85    86    1
    11    85    82    1
    12   168   167    1
    13   168   171   am
    14   131   129    1
    15   153   152   ar
    16    81    75   am
    17    81    82    1
    18   172   171    1
    19   172   175    1
    20   197   198   ar
    21   197   195   ar
    22    77    78    1
    23    75    76    2
    24   200   198   ar
    25   200   202   ar
    26    86    88    1
    27   120   119    2
    28   154   152   ar
    29   198   196   ar
    30   170   167    1
    31   167   166    1
    32    82    83    1
    33   123   121    1
    34   220   219    1
    35   220   223    1
    36   195   194   ar
    37   152   151    1
    38   202   201   ar
    39   175   176    1
    40   129   130    1
    41   129   126    1
    42   176   177    1
    43    78    79   ar
    44    78    80   ar
    45   158   157    2
    46   119   118    1
    47   196   194   ar
    48   196   199   ar
    49   125   126    1
    50   194   193    1
    51   166   157   am
    52   223   224    1
    53    83    84    2
    54    83    89   am
    55   201   199   ar
    56   121   118    1
    57   121   122    1
    58   126   127    1
    59   157   156    1
    60   151   150    1
    61   214   213    2
    62   177   178   ar
    63   177   179   ar
    64   150   147    1
    65   118   117    1
    66   180   181    1
    67   124   122    1
    68   209   208    1
    69   209   210    1
    70    89    90    1
    71   193   190    1
    72   213   212    1
    73   127   128    2
    74   127   132   am
    75   208   207    1
    76   181   182    1
    77   181   184    1
    78   156   155    1
    79   156   159    1
    80   189   190    1
    81   189   182   am
    82   113   112    2
    83   117   112   am
    84   147   148    1
    85   147   146    1
    86   155   148   am
    87   148   149    2
    88    97    94    1
    89    97    98    1
    90   159   160    1
    91   190   191    1
    92   218   217    1
    93   182   183    2
    94    90    91    1
    95   112   111    1
    96   165   163    1
    97   184   185    1
    98   132   133    1
    99    93    94    1
   100    93    91   am
   101   164   163    1
   102   212   215    1
   103   212   211    1
   104   216   215    1
   105   216   217    1
   106    94    95    1
   107    91    92    2
   108   191   203   am
   109   191   192    2
   110   163   162    2
   111   203   204    1
   112   207   204    1
   113   185   186    1
   114    65    64    2
   115   204   205    1
   116   160   161    1
   117   162   161    1
   118   133   134    1
   119   133   136    1
   120   111   110    1
   121   111   114    1
   122    95    96    2
   123    95    99   am
   124   188   186   ar
   125   186   187   ar
   126   134   135    2
   127   134   141   am
   128    64    63    1
   129   116   114    1
   130   136   137    1
   131   115   114    1
   132   205   206    2
   133   141   142    1
   134    99   100    1
   135    63    62    1
   136    63    66    1
   137   145   142    1
   138   142   143    1
   139    67    66    1
   140    67    68    1
   141   139   138   ar
   142    71    70    1
   143   137   138    1
   144    23    21   ar
   145    23    22   ar
   146   105   106    2
   147   105   104    1
   148   138   140   ar
   149   234   233    1
   150    70    72    1
   151    70    69    2
   152   100   101    1
   153   235   233    1
   154   102   101    2
   155    21    19   ar
   156    12    11    1
   157    68    69    1
   158   101   103   am
   159   143   144    2
   160   233   232    2
   161    22    20   ar
   162   103   104    1
   163   225   226    1
   164   104   107    1
   165    10    11   ar
   166    10     8   ar
   167   226   227    1
   168   226   229    1
   169    11     9   ar
   170    19    18   ar
   171   232   231    1
   172   108   107    1
   173   230   231    1
   174   230   229    1
   175   227   228    2
   176    20    18   ar
   177    53    52    1
   178    61    59    1
   179   107   109    1
   180     8     6   ar
   181    18    17    1
   182     9     7   ar
   183    52    51    1
   184    49    48    2
   185    35    34    1
   186     6     7   ar
   187     6     5    1
   188    50    51    1
   189    50    47    1
   190    59    60    1
   191    59    58    1
   192    33    34   ar
   193    33    31   ar
   194    44    42   ar
   195    44    45   ar
   196    34    32   ar
   197    17    14    1
   198    48    47    1
   199    48    54   am
   200    31    29   ar
   201    42    41   ar
   202    55    58    1
   203    55    54    1
   204    55    56    1
   205    32    30   ar
   206    57    56    2
   207    47    46    1
   208    29    30   ar
   209    29    28    1
   210     5     2    1
   211    45    43   ar
   212    28    25    1
   213    14    13    1
   214    14    15    1
   215    13     3   am
   216    41    43   ar
   217    41    40    1
   218     3     2    1
   219     3     4    2
   220     2     1    1
   221    27    26    2
   222    39    38    2
   223    40    37    1
   224    16    15    2
   225    25    26    1
   226    25    24    1
   227    37    38    1
   228    37    36    1
