@<TRIPOS>MOLECULE
tmp/5g03A00.pdb
 183 178 0 0 0
SMALL
GASTEIGER

@<TRIPOS>ATOM
      1  N         29.4400   -0.0460   10.0630 N.3     2  TRP2       -0.1241
      2  CA        28.8030   -0.9510   11.0180 C.3     2  TRP2        0.1605
      3  C         27.8020   -1.8520   10.3160 C.2     2  TRP2        0.2264
      4  O         27.2290   -1.4920    9.3050 O.2     2  TRP2       -0.2867
      5  CB        28.1250   -0.2050   12.1640 C.3     2  TRP2        0.0550
      6  CG        26.8930    0.5530   11.8220 C.ar    2  TRP2        0.0003
      7  CD1       26.8080    1.8800   11.4930 C.ar    2  TRP2        0.0946
      8  CD2       25.5530    0.0700   11.8760 C.ar    2  TRP2        0.0152
      9  NE1       25.5060    2.2360   11.3120 N.ar    2  TRP2       -0.2442
     10  CE2       24.7100    1.1420   11.5330 C.ar    2  TRP2        0.0810
     11  CE3       24.9800   -1.1660   12.1850 C.ar    2  TRP2        0.0012
     12  CZ2       23.3120    1.0110   11.4750 C.ar    2  TRP2        0.0191
     13  CZ3       23.6040   -1.2950   12.1480 C.ar    2  TRP2        0.0001
     14  CH2       22.7830   -0.2230   11.7760 C.ar    2  TRP2        0.0015
     15  N         17.9120    0.4950    3.5870 N.3    59  ASN59      -0.1240
     16  CA        18.9840    1.3420    4.0740 C.3    59  ASN59       0.1653
     17  C         20.2740    0.5320    4.3590 C.2    59  ASN59       0.2266
     18  O         21.2570    1.0720    4.8830 O.2    59  ASN59      -0.2867
     19  CB        18.4770    2.1680    5.2910 C.3    59  ASN59       0.1155
     20  CG        18.0100    1.2950    6.4500 C.2    59  ASN59       0.2627
     21  OD1       18.5640    0.2590    6.6350 O.2    59  ASN59      -0.2716
     22  ND2       16.9490    1.6850    7.1710 N.am   59  ASN59      -0.0877
     23  N         20.6720   -1.7620    6.4380 N.3    61  HIS61      -0.1241
     24  CA        20.4610   -2.4380    7.7670 C.3    61  HIS61       0.1621
     25  C         19.0430   -2.9770    8.0930 C.2    61  HIS61       0.2264
     26  O         18.8790   -3.7780    9.0010 O.2    61  HIS61      -0.2867
     27  CB        20.9720   -1.5960    8.9690 C.3    61  HIS61       0.0745
     28  CG        20.5690   -0.1500    8.9840 C.ar   61  HIS61       0.0817
     29  ND1       19.5630    0.3260    9.7950 N.ar   61  HIS61      -0.2268
     30  CD2       21.1310    0.9410    8.4080 C.ar   61  HIS61       0.1154
     31  CE1       19.4850    1.6360    9.6790 C.ar   61  HIS61       0.1986
     32  NE2       20.4110    2.0360    8.8240 N.ar   61  HIS61      -0.2212
     33  N         12.6720    0.3800    5.6830 N.3    64  GLN64      -0.1245
     34  CA        11.8150    1.2590    6.4520 C.3    64  GLN64       0.1566
     35  C         10.7620    1.8230    5.5550 C.2    64  GLN64       0.2260
     36  O         11.0200    2.1010    4.3730 O.2    64  GLN64      -0.2867
     37  CB        12.5920    2.3940    7.1180 C.3    64  GLN64       0.0367
     38  CG        13.0830    3.4500    6.2040 C.3    64  GLN64       0.0905
     39  CD        13.8970    4.4060    6.9940 C.2    64  GLN64       0.2608
     40  OE1       15.0450    4.1450    7.3060 O.2    64  GLN64      -0.2717
     41  NE2       13.2810    5.4790    7.3980 N.am   64  GLN64      -0.0878
     42  N          7.4910    8.6640   12.6900 N.3    88  LEU88      -0.1231
     43  CA         8.4000    8.9590   11.5930 C.3    88  LEU88       0.1693
     44  C          8.5640    7.8100   10.6140 C.2    88  LEU88       0.2591
     45  O          8.5830    8.0390    9.4020 O.2    88  LEU88      -0.2718
     46  CB         9.7860    9.3760   12.1280 C.3    88  LEU88       0.0284
     47  CG        10.9110    9.5470   11.1320 C.3    88  LEU88       0.0019
     48  CD1       10.5620   10.6450   10.1260 C.3    88  LEU88       0.0001
     49  CD2       12.1970    9.8940   11.8540 C.3    88  LEU88       0.0001
     50  N          8.6960    6.5790   11.1220 N.am   89  GLN89      -0.1979
     51  CA         9.0220    5.4760   10.2560 C.3    89  GLN89       0.1601
     52  C          8.7710    4.1920   11.0070 C.2    89  GLN89       0.2287
     53  O          8.7520    4.1930   12.2320 O.2    89  GLN89      -0.2864
     54  CB        10.4720    5.5180    9.7480 C.3    89  GLN89       0.0394
     55  CG        11.5420    5.5970   10.8310 C.3    89  GLN89       0.0908
     56  CD        12.2430    4.2830   11.1030 C.2    89  GLN89       0.2608
     57  OE1       11.6670    3.2210   11.0630 O.2    89  GLN89      -0.2717
     58  NE2       13.5130    4.3740   11.4400 N.am   89  GLN89      -0.0878
     59  N         10.1930   -0.0630   10.7730 N.3    91  HIS91      -0.1241
     60  CA        11.1200   -0.9930   10.1390 C.3    91  HIS91       0.1621
     61  C         11.0690   -2.2990   10.9410 C.2    91  HIS91       0.2264
     62  O         10.4100   -2.3650   11.9900 O.2    91  HIS91      -0.2867
     63  CB        12.5260   -0.4260   10.1300 C.3    91  HIS91       0.0745
     64  CG        13.0450   -0.1800   11.5060 C.ar   91  HIS91       0.0817
     65  ND1       12.8190    1.0010   12.1800 N.ar   91  HIS91      -0.2268
     66  CD2       13.7650   -0.9640   12.3390 C.ar   91  HIS91       0.1154
     67  CE1       13.3280    0.9130   13.3930 C.ar   91  HIS91       0.1986
     68  NE2       13.8750   -0.2820   13.5270 N.ar   91  HIS91      -0.2212
     69  N         13.3210   -6.0520   12.2940 N.3    93  HIS93      -0.1241
     70  CA        14.5000   -6.8550   12.5250 C.3    93  HIS93       0.1621
     71  C         14.0530   -8.3020   12.4300 C.2    93  HIS93       0.2264
     72  O         12.9720   -8.6420   12.8890 O.2    93  HIS93      -0.2867
     73  CB        15.1190   -6.6120   13.9030 C.3    93  HIS93       0.0745
     74  CG        15.4210   -5.1750   14.1560 C.ar   93  HIS93       0.0817
     75  ND1       16.6540   -4.6110   13.9200 N.ar   93  HIS93      -0.2268
     76  CD2       14.6170   -4.1640   14.5430 C.ar   93  HIS93       0.1154
     77  CE1       16.6010   -3.3210   14.1910 C.ar   93  HIS93       0.1986
     78  NE2       15.3690   -3.0240   14.5580 N.ar   93  HIS93      -0.2212
     79  N          9.3990   -2.2040   14.7060 N.3   116  HIS116     -0.1241
     80  CA         9.6070   -0.9790   15.4480 C.3   116  HIS116      0.1621
     81  C          8.9560    0.2000   14.7420 C.2   116  HIS116      0.2264
     82  O          9.3120    0.5090   13.6130 O.2   116  HIS116     -0.2867
     83  CB        11.0950   -0.7090   15.5600 C.3   116  HIS116      0.0745
     84  CG        11.7710   -1.6610   16.4720 C.ar  116  HIS116      0.0817
     85  ND1       13.1210   -1.8580   16.4750 N.ar  116  HIS116     -0.2268
     86  CD2       11.2670   -2.4850   17.4210 C.ar  116  HIS116      0.1154
     87  CE1       13.4430   -2.7450   17.3940 C.ar  116  HIS116      0.1986
     88  NE2       12.3340   -3.1700   17.9720 N.ar  116  HIS116     -0.2212
     89  N          8.8120    4.0300   15.0860 N.3   118  VAL118     -0.1245
     90  CA         9.6660    5.0390   15.7090 C.3   118  VAL118      0.1561
     91  C          8.9670    6.4030   15.7000 C.2   118  VAL118      0.2260
     92  O          8.5340    6.8590   14.6460 O.2   118  VAL118     -0.2867
     93  CB        10.9890    5.1210   14.9340 C.3   118  VAL118      0.0252
     94  CG1       11.9310    6.1330   15.5840 C.3   118  VAL118      0.0019
     95  CG2       11.6760    3.7570   14.7890 C.3   118  VAL118      0.0019
     96  N         13.2240   15.4280   14.7730 N.3   127  VAL127     -0.1231
     97  CA        13.8290   14.2010   15.2180 C.3   127  VAL127      0.1692
     98  C         15.2730   14.2900   15.5780 C.2   127  VAL127      0.2592
     99  O         15.7040   13.6310   16.4940 O.2   127  VAL127     -0.2718
    100  CB        13.5570   13.0510   14.2270 C.3   127  VAL127      0.0266
    101  CG1       14.3190   13.2110   12.9370 C.3   127  VAL127      0.0020
    102  CG2       13.8680   11.7150   14.8650 C.3   127  VAL127      0.0020
    103  N         16.0080   15.1240   14.8840 N.am  128  ASP128     -0.1974
    104  CA        17.4130   15.3330   15.2080 C.3   128  ASP128      0.1709
    105  C         17.6600   15.9440   16.5820 C.2   128  ASP128      0.2293
    106  O         18.4730   15.4600   17.3070 O.2   128  ASP128     -0.2864
    107  CB        18.1020   16.1620   14.1580 C.3   128  ASP128      0.1436
    108  CG        19.6010   16.2060   14.3480 C.2   128  ASP128      0.3671
    109  OD1       20.1240   17.1110   15.0430 O.co2 128  ASP128     -0.2456
    110  OD2       20.2700   15.3590   13.7440 O.co2 128  ASP128     -0.2456
    111  N         16.6590   13.3180   19.2660 N.3   131  LEU131     -0.1245
    112  CA        17.6490   12.2690   19.4100 C.3   131  LEU131      0.1561
    113  C         18.6270   12.6060   20.5300 C.2   131  LEU131      0.2260
    114  O         19.2420   11.7060   21.0920 O.2   131  LEU131     -0.2867
    115  CB        18.3980   12.1070   18.0790 C.3   131  LEU131      0.0270
    116  CG        19.4210   10.9920   17.9630 C.3   131  LEU131      0.0019
    117  CD1       18.6980    9.6640   18.0030 C.3   131  LEU131      0.0001
    118  CD2       20.2420   11.1240   16.6840 C.3   131  LEU131      0.0001
    119  N         12.4620   10.1710   22.1390 N.3   137  LEU137     -0.1245
    120  CA        11.8960    9.1860   21.1980 C.3   137  LEU137      0.1561
    121  C         11.0570    8.1620   21.9340 C.2   137  LEU137      0.2260
    122  O         11.2730    7.8920   23.1040 O.2   137  LEU137     -0.2867
    123  CB        13.0150    8.4700   20.4500 C.3   137  LEU137      0.0270
    124  CG        14.0620    9.3490   19.7780 C.3   137  LEU137      0.0019
    125  CD1       15.2610    8.5040   19.3850 C.3   137  LEU137      0.0001
    126  CD2       13.4450    9.9330   18.5660 C.3   137  LEU137      0.0001
    127  N          9.6460    4.2190   20.9180 N.3   139  VAL139     -0.1245
    128  CA         9.5630    3.1370   19.9380 C.3   139  VAL139      0.1561
    129  C          8.5510    2.1270   20.4290 C.2   139  VAL139      0.2260
    130  O          8.6390    1.6580   21.5700 O.2   139  VAL139     -0.2867
    131  CB        10.9160    2.4920   19.5910 C.3   139  VAL139      0.0252
    132  CG1       10.6790    1.5010   18.4590 C.3   139  VAL139      0.0019
    133  CG2       11.8950    3.5680   19.1490 C.3   139  VAL139      0.0019
    134  N         18.3630    3.6520   21.1450 N.3   194  LEU194     -0.1231
    135  CA        18.2830    3.0790   19.8170 C.3   194  LEU194      0.1693
    136  C         19.0390    1.7410   19.8520 C.2   194  LEU194      0.2593
    137  O         20.0460    1.5930   20.5570 O.2   194  LEU194     -0.2718
    138  CB        18.9590    3.9740   18.8160 C.3   194  LEU194      0.0284
    139  CG        18.4630    5.4050   18.6620 C.3   194  LEU194      0.0019
    140  CD1       19.2990    6.1010   17.5980 C.3   194  LEU194      0.0001
    141  CD2       17.0090    5.4260   18.2580 C.3   194  LEU194      0.0001
    142  N         18.5720    0.7390   19.1000 N.am  195  THR195     -0.1939
    143  CA        19.2900   -0.5340   19.0180 C.3   195  THR195      0.2028
    144  C         20.2750   -0.6110   17.8590 C.2   195  THR195      0.2643
    145  O         20.9230   -1.6450   17.6820 O.2   195  THR195     -0.2714
    146  CB        18.3300   -1.6950   18.8810 C.3   195  THR195      0.1808
    147  OG1       17.7240   -1.6510   17.5900 O.3   195  THR195     -0.2208
    148  CG2       17.2690   -1.7150   19.9580 C.3   195  THR195      0.0379
    149  N         20.4120    0.4970   17.1280 N.am  196  THR196     -0.1937
    150  CA        21.4060    0.6280   16.0790 C.3   196  THR196      0.2013
    151  C         22.2290    1.8540   16.3680 C.2   196  THR196      0.2484
    152  O         21.7440    2.7990   17.0100 O.2   196  THR196     -0.2729
    153  CB        20.7430    0.8110   14.7110 C.3   196  THR196      0.1807
    154  OG1       19.9430    2.0070   14.7170 O.3   196  THR196     -0.2208
    155  CG2       19.9380   -0.3700   14.3090 C.3   196  THR196      0.0379
    156  N         23.4610    1.8910   15.8590 N.am  197  PRO197     -0.2715
    157  CA        24.2140    3.1420   15.9060 C.3   197  PRO197      0.1521
    158  C         23.3320    4.3150   15.4640 C.2   197  PRO197      0.2440
    159  O         22.5790    4.1580   14.4620 O.2   197  PRO197     -0.2731
    160  CB        25.3420    2.8510   14.9300 C.3   197  PRO197      0.0310
    161  CG        25.6180    1.3920   15.1340 C.3   197  PRO197      0.0237
    162  CD        24.2440    0.8050   15.2340 C.3   197  PRO197      0.0939
    163  N         23.4030    5.4490   16.1560 N.am  198  PRO198     -0.2727
    164  CA        24.3800    5.8050   17.2140 C.3   198  PRO198      0.1402
    165  C         24.0450    5.3770   18.6450 C.2   198  PRO198      0.2269
    166  O         24.7270    5.7920   19.5730 O.2   198  PRO198     -0.2865
    167  CB        24.4190    7.3230   17.0990 C.3   198  PRO198      0.0296
    168  CG        22.9900    7.6650   16.7480 C.3   198  PRO198      0.0237
    169  CD        22.5850    6.5990   15.7600 C.3   198  PRO198      0.0939
    170  N         10.8950    2.8230   25.5120 N.3   205  TRP205     -0.1241
    171  CA        10.4270    1.6090   24.8510 C.3   205  TRP205      0.1605
    172  C          9.0500    1.2320   25.3570 C.2   205  TRP205      0.2264
    173  O          8.7980    1.2090   26.5570 O.2   205  TRP205     -0.2867
    174  CB        11.4460    0.4620   25.0580 C.3   205  TRP205      0.0550
    175  CG        12.5780    0.5960   24.0640 C.ar  205  TRP205      0.0003
    176  CD1       13.7860    1.1780   24.2550 C.ar  205  TRP205      0.0946
    177  CD2       12.5290    0.1750   22.7250 C.ar  205  TRP205      0.0152
    178  NE1       14.5110    1.1390   23.0900 N.ar  205  TRP205     -0.2442
    179  CE2       13.7460    0.5210   22.1330 C.ar  205  TRP205      0.0810
    180  CE3       11.5790   -0.5260   21.9650 C.ar  205  TRP205      0.0012
    181  CZ2       14.0220    0.2260   20.8100 C.ar  205  TRP205      0.0191
    182  CZ3       11.8480   -0.8060   20.6740 C.ar  205  TRP205      0.0001
    183  CH2       13.0620   -0.4440   20.0940 C.ar  205  TRP205      0.0015
@<TRIPOS>BOND
     1    15    16    1
     2    16    17    1
     3    16    19    1
     4    17    18    2
     5    36    35    2
     6    19    20    1
     7    35    34    1
     8    33    34    1
     9    38    39    1
    10    38    37    1
    11    23    24    1
    12    20    21    2
    13    20    22   am
    14    34    37    1
    15    39    40    2
    16    39    41   am
    17    24    25    1
    18    24    27    1
    19    25    26    2
    20    30    32   ar
    21    30    28   ar
    22    32    31   ar
    23    27    28    1
    24    28    29   ar
    25     4     3    2
    26    45    44    2
    27    31    29   ar
    28    54    51    1
    29    54    55    1
    30     1     2    1
    31    48    47    1
    32    63    60    1
    33    63    64    1
    34    60    59    1
    35    60    61    1
    36    51    52    1
    37    51    50    1
    38     3     2    1
    39    44    50   am
    40    44    43    1
    41    55    56    1
    42    61    62    2
    43    52    53    2
    44     2     5    1
    45    57    56    2
    46    56    58   am
    47    47    49    1
    48    47    46    1
    49     9     7   ar
    50     9    10   ar
    51    12    10   ar
    52    12    14   ar
    53     7     6   ar
    54    64    65   ar
    55    64    66   ar
    56    10     8   ar
    57    43    46    1
    58    43    42    1
    59    14    13   ar
    60     6     8   ar
    61     6     5    1
    62     8    11   ar
    63    13    11   ar
    64    65    67   ar
    65    69    70    1
    66    66    68   ar
    67    71    70    1
    68    71    72    2
    69    70    73    1
    70   101   100    1
    71    67    68   ar
    72    82    81    2
    73   110   108   ar
    74    73    74    1
    75    75    74   ar
    76    75    77   ar
    77    74    76   ar
    78   107   108    1
    79   107   104    1
    80    77    78   ar
    81   100   102    1
    82   100    97    1
    83   155   153    1
    84   108   109   ar
    85   159   158    2
    86    76    78   ar
    87    92    91    2
    88    79    80    1
    89   153   154    1
    90   153   150    1
    91    81    80    1
    92    96    97    1
    93    95    93    1
    94   103   104    1
    95   103    98   am
    96   160   161    1
    97   160   157    1
    98    93    94    1
    99    93    90    1
   100    89    90    1
   101   161   162    1
   102   104   105    1
   103    97    98    1
   104   162   156    1
   105    80    83    1
   106   158   157    1
   107   158   163   am
   108    83    84    1
   109    98    99    2
   110    91    90    1
   111   169   163    1
   112   169   168    1
   113   156   157    1
   114   156   151   am
   115   150   151    1
   116   150   149    1
   117   163   164    1
   118   151   152    2
   119    84    85   ar
   120    84    86   ar
   121    85    87   ar
   122   105   106    2
   123   118   116    1
   124   168   167    1
   125   167   164    1
   126   149   144   am
   127   164   165    1
   128    87    88   ar
   129    86    88   ar
   130   147   146    1
   131   140   139    1
   132   145   144    2
   133   144   143    1
   134   116   117    1
   135   116   115    1
   136   115   112    1
   137   141   139    1
   138   132   131    1
   139   126   124    1
   140   165   166    2
   141   139   138    1
   142   138   135    1
   143   146   143    1
   144   146   148    1
   145   143   142    1
   146   142   136   am
   147   133   131    1
   148   111   112    1
   149   125   124    1
   150   112   113    1
   151   131   128    1
   152   124   123    1
   153   135   136    1
   154   135   134    1
   155   136   137    2
   156   128   129    1
   157   128   127    1
   158   183   182   ar
   159   183   181   ar
   160   129   130    2
   161   123   120    1
   162   113   114    2
   163   182   180   ar
   164   181   179   ar
   165   120   121    1
   166   120   119    1
   167   121   122    2
   168   180   177   ar
   169   179   177   ar
   170   179   178   ar
   171   177   175   ar
   172   178   176   ar
   173   175   176   ar
   174   175   174    1
   175   171   174    1
   176   171   172    1
   177   171   170    1
   178   172   173    2
