@<TRIPOS>MOLECULE
tmp/5g08A00.pdb
 146 141 0 0 0
SMALL
GASTEIGER

@<TRIPOS>ATOM
      1  N          9.2930  -24.3310  -17.7210 N.3    40  LEU40      -0.1245
      2  CA         8.2240  -23.4410  -17.3090 C.3    40  LEU40       0.1561
      3  C          8.2140  -22.2320  -18.2450 C.2    40  LEU40       0.2260
      4  O          9.1860  -21.4860  -18.2870 O.2    40  LEU40      -0.2867
      5  CB         8.4280  -23.0060  -15.8580 C.3    40  LEU40       0.0270
      6  CG         7.2480  -22.2540  -15.2230 C.3    40  LEU40       0.0019
      7  CD1        5.9530  -22.9550  -15.5310 C.3    40  LEU40       0.0001
      8  CD2        7.4410  -22.1920  -13.7340 C.3    40  LEU40       0.0001
      9  N          4.2890  -19.6110  -15.7860 N.3    45  PHE45      -0.1241
     10  CA         4.7140  -18.8690  -14.6030 C.3    45  PHE45       0.1605
     11  C          3.6500  -17.8560  -14.1750 C.2    45  PHE45       0.2264
     12  O          3.3220  -17.7520  -12.9860 O.2    45  PHE45      -0.2867
     13  CB         6.0540  -18.2140  -14.9300 C.3    45  PHE45       0.0534
     14  CG         6.8040  -17.6980  -13.7570 C.ar   45  PHE45      -0.0203
     15  CD1        7.5810  -18.5360  -12.9870 C.ar   45  PHE45      -0.0042
     16  CD2        6.8410  -16.3540  -13.4990 C.ar   45  PHE45      -0.0042
     17  CE1        8.3150  -18.0510  -11.9450 C.ar   45  PHE45      -0.0003
     18  CE2        7.5650  -15.8720  -12.4530 C.ar   45  PHE45      -0.0003
     19  CZ         8.3040  -16.7070  -11.6730 C.ar   45  PHE45      -0.0000
     20  N          0.7730  -19.7150  -12.2780 N.3    48  ILE48      -0.1231
     21  CA         1.0340  -20.0190  -10.8730 C.3    48  ILE48       0.1692
     22  C          0.8720  -18.7660  -10.0150 C.2    48  ILE48       0.2592
     23  O          0.2950  -18.8210   -8.9240 O.2    48  ILE48      -0.2718
     24  CB         2.4360  -20.6370  -10.7290 C.3    48  ILE48       0.0266
     25  CG1        2.4600  -22.0590  -11.2960 C.3    48  ILE48       0.0019
     26  CG2        2.8830  -20.6050   -9.2920 C.3    48  ILE48       0.0020
     27  CD1        3.8760  -22.5540  -11.6830 C.3    48  ILE48       0.0001
     28  N          1.3320  -17.6110  -10.5070 N.am   49  TYR49      -0.1976
     29  CA         1.1580  -16.3690   -9.7480 C.3    49  TYR49       0.1639
     30  C         -0.3140  -15.9880   -9.6340 C.2    49  TYR49       0.2290
     31  O         -0.7720  -15.5550   -8.5660 O.2    49  TYR49      -0.2864
     32  CB         1.9450  -15.2430  -10.3930 C.3    49  TYR49       0.0560
     33  CG         3.3020  -14.9730   -9.7490 C.ar   49  TYR49      -0.0198
     34  CD1        4.4080  -15.7420  -10.0860 C.ar   49  TYR49      -0.0009
     35  CD2        3.4650  -13.9660   -8.7930 C.ar   49  TYR49      -0.0009
     36  CE1        5.6530  -15.4990   -9.5030 C.ar   49  TYR49       0.0417
     37  CE2        4.7340  -13.7320   -8.2030 C.ar   49  TYR49       0.0417
     38  CZ         5.8030  -14.4990   -8.5770 C.ar   49  TYR49       0.1957
     39  OH         7.0420  -14.2920   -8.0110 O.3    49  TYR49      -0.2866
     40  N         -1.9940  -17.7680   -6.8430 N.3    52  PHE52      -0.1241
     41  CA        -1.5910  -17.3650   -5.5130 C.3    52  PHE52       0.1605
     42  C         -2.1240  -15.9870   -5.1340 C.2    52  PHE52       0.2264
     43  O         -2.2170  -15.6910   -3.9480 O.2    52  PHE52      -0.2867
     44  CB        -0.0660  -17.3690   -5.4050 C.3    52  PHE52       0.0534
     45  CG         0.4330  -17.3360   -3.9910 C.ar   52  PHE52      -0.0203
     46  CD1        0.2730  -18.4590   -3.1690 C.ar   52  PHE52      -0.0042
     47  CD2        1.0430  -16.2010   -3.4860 C.ar   52  PHE52      -0.0042
     48  CE1        0.7150  -18.4330   -1.8620 C.ar   52  PHE52      -0.0003
     49  CE2        1.4920  -16.1790   -2.1790 C.ar   52  PHE52      -0.0003
     50  CZ         1.3380  -17.3040   -1.3810 C.ar   52  PHE52      -0.0000
     51  N          3.9040   -8.3240  -12.7750 N.3    61  PHE61      -0.1241
     52  CA         5.0150   -8.6100  -11.8920 C.3    61  PHE61       0.1605
     53  C          5.6210   -9.9620  -12.2150 C.2    61  PHE61       0.2264
     54  O          6.8470  -10.1180  -12.2090 O.2    61  PHE61      -0.2867
     55  CB         4.5650   -8.5830  -10.4500 C.3    61  PHE61       0.0534
     56  CG         5.6750   -8.7540   -9.4730 C.ar   61  PHE61      -0.0203
     57  CD1        6.5430   -7.6930   -9.2350 C.ar   61  PHE61      -0.0042
     58  CD2        5.8530   -9.9380   -8.7850 C.ar   61  PHE61      -0.0042
     59  CE1        7.5820   -7.8300   -8.3200 C.ar   61  PHE61      -0.0003
     60  CE2        6.8870  -10.0780   -7.8590 C.ar   61  PHE61      -0.0003
     61  CZ         7.7520   -9.0230   -7.6310 C.ar   61  PHE61      -0.0000
     62  N          9.5880  -10.9180  -13.0000 N.3    65  VAL65      -0.1245
     63  CA        10.3520  -11.9420  -12.3150 C.3    65  VAL65       0.1561
     64  C         10.8220  -12.9990  -13.3070 C.2    65  VAL65       0.2260
     65  O         11.9640  -13.4740  -13.2430 O.2    65  VAL65      -0.2867
     66  CB         9.4970  -12.5570  -11.2050 C.3    65  VAL65       0.0252
     67  CG1       10.1970  -13.7670  -10.5650 C.3    65  VAL65       0.0019
     68  CG2        9.1830  -11.4970  -10.1390 C.3    65  VAL65       0.0019
     69  N         14.5710  -14.8690  -13.8570 N.3    69  PHE69      -0.1241
     70  CA        14.7990  -16.3100  -13.7560 C.3    69  PHE69       0.1605
     71  C         15.3890  -16.8560  -15.0500 C.2    69  PHE69       0.2264
     72  O         16.2380  -17.7550  -15.0220 O.2    69  PHE69      -0.2867
     73  CB        13.4850  -17.0510  -13.4950 C.3    69  PHE69       0.0534
     74  CG        13.1090  -17.2290  -12.0430 C.ar   69  PHE69      -0.0203
     75  CD1       12.7390  -16.1610  -11.2640 C.ar   69  PHE69      -0.0042
     76  CD2       13.0920  -18.5050  -11.4680 C.ar   69  PHE69      -0.0042
     77  CE1       12.3800  -16.3320   -9.9210 C.ar   69  PHE69      -0.0003
     78  CE2       12.7300  -18.6800  -10.1230 C.ar   69  PHE69      -0.0003
     79  CZ        12.3710  -17.5800   -9.3600 C.ar   69  PHE69      -0.0000
     80  N         15.7170  -22.3290  -12.2190 N.3    82  PHE82      -0.1241
     81  CA        14.9230  -22.3400  -11.0020 C.3    82  PHE82       0.1605
     82  C         15.8010  -22.5050   -9.7670 C.2    82  PHE82       0.2264
     83  O         15.6600  -21.7680   -8.7930 O.2    82  PHE82      -0.2867
     84  CB        13.9030  -23.4910  -11.1290 C.3    82  PHE82       0.0534
     85  CG        13.1160  -23.7640   -9.8930 C.ar   82  PHE82      -0.0203
     86  CD1       11.9950  -23.0060   -9.6150 C.ar   82  PHE82      -0.0042
     87  CD2       13.4490  -24.8150   -9.0430 C.ar   82  PHE82      -0.0042
     88  CE1       11.2450  -23.2580   -8.4930 C.ar   82  PHE82      -0.0003
     89  CE2       12.7050  -25.0660   -7.9020 C.ar   82  PHE82      -0.0003
     90  CZ        11.5960  -24.2870   -7.6320 C.ar   82  PHE82      -0.0000
     91  N         18.0040  -19.4540   -8.9800 N.3    85  ALA85      -0.1231
     92  CA        17.2610  -18.3230   -8.4120 C.3    85  ALA85       0.1694
     93  C         16.8580  -18.6130   -6.9710 C.2    85  ALA85       0.2591
     94  O         17.0260  -17.7640   -6.0800 O.2    85  ALA85      -0.2718
     95  CB        16.0270  -17.9850   -9.2730 C.3    85  ALA85       0.0304
     96  N         16.4120  -19.8300   -6.7040 N.am   86  LEU86      -0.1980
     97  CA        16.0460  -20.2060   -5.3530 C.3    86  LEU86       0.1596
     98  C         17.2470  -20.1550   -4.4150 C.2    86  LEU86       0.2287
     99  O         17.1210  -19.7840   -3.2360 O.2    86  LEU86      -0.2864
    100  CB        15.4340  -21.6070   -5.3800 C.3    86  LEU86       0.0297
    101  CG        15.1030  -22.2520   -4.0410 C.3    86  LEU86       0.0022
    102  CD1       13.9830  -21.4540   -3.3570 C.3    86  LEU86       0.0001
    103  CD2       14.7730  -23.7560   -4.1960 C.3    86  LEU86       0.0001
    104  N         17.8620  -16.3770   -3.5880 N.3    89  THR89      -0.1218
    105  CA        16.8490  -15.7090   -2.7710 C.3    89  THR89       0.1862
    106  C         16.6670  -16.3690   -1.4040 C.2    89  THR89       0.2287
    107  O         16.3240  -15.6830   -0.4390 O.2    89  THR89      -0.2866
    108  CB        15.5270  -15.6500   -3.5450 C.3    89  THR89       0.1770
    109  OG1       15.1230  -16.9660   -3.9240 O.3    89  THR89      -0.2211
    110  CG2       15.6790  -14.7910   -4.8050 C.3    89  THR89       0.0375
    111  N         20.4550   -9.6790   -7.3160 N.3   100  TRP100     -0.1241
    112  CA        19.2750  -10.2320   -7.9550 C.3   100  TRP100      0.1605
    113  C         18.1560   -9.1820   -8.0280 C.2   100  TRP100      0.2264
    114  O         17.5340   -8.9870   -9.0820 O.2   100  TRP100     -0.2867
    115  CB        18.8740  -11.4830   -7.1700 C.3   100  TRP100      0.0550
    116  CG        18.0570  -12.4130   -7.9280 C.ar  100  TRP100      0.0003
    117  CD1       18.5010  -13.4860   -8.6520 C.ar  100  TRP100      0.0946
    118  CD2       16.6440  -12.3960   -8.0530 C.ar  100  TRP100      0.0152
    119  NE1       17.4380  -14.1400   -9.2150 N.ar  100  TRP100     -0.2442
    120  CE2       16.2870  -13.4700   -8.8910 C.ar  100  TRP100      0.0810
    121  CE3       15.6390  -11.5420   -7.5730 C.ar  100  TRP100      0.0012
    122  CZ2       14.9570  -13.7510   -9.2270 C.ar  100  TRP100      0.0191
    123  CZ3       14.3170  -11.8080   -7.9270 C.ar  100  TRP100      0.0001
    124  CH2       13.9920  -12.9070   -8.7430 C.ar  100  TRP100      0.0015
    125  N         16.0650   -7.3790  -11.2770 N.3   104  LEU104     -0.1245
    126  CA        14.6120   -7.2500  -11.3720 C.3   104  LEU104      0.1561
    127  C         14.2050   -5.8110  -11.6640 C.2   104  LEU104      0.2260
    128  O         13.3400   -5.5600  -12.5100 O.2   104  LEU104     -0.2867
    129  CB        13.9670   -7.7180  -10.0710 C.3   104  LEU104      0.0270
    130  CG        12.4370   -7.7490  -10.0110 C.3   104  LEU104      0.0019
    131  CD1       11.8600   -8.5790  -11.1420 C.3   104  LEU104      0.0001
    132  CD2       12.0320   -8.3180   -8.6820 C.3   104  LEU104      0.0001
    133  N          9.7190   -6.5580   -2.7680 N.3   179  LEU179     -0.1231
    134  CA         9.7580   -7.6320   -3.7620 C.3   179  LEU179      0.1693
    135  C          9.2250   -8.9460   -3.2100 C.2   179  LEU179      0.2592
    136  O          8.5990   -9.7190   -3.9410 O.2   179  LEU179     -0.2718
    137  CB        11.1790   -7.8390   -4.2730 C.3   179  LEU179      0.0284
    138  CG        11.7920   -6.6000   -4.9220 C.3   179  LEU179      0.0019
    139  CD1       13.1670   -6.9730   -5.4620 C.3   179  LEU179      0.0001
    140  CD2       10.8980   -6.0630   -6.0110 C.3   179  LEU179      0.0001
    141  N          9.4880   -9.2330   -1.9450 N.am  180  SER180     -0.1952
    142  CA         9.1010  -10.5140   -1.3730 C.3   180  SER180      0.1924
    143  C          7.6160  -10.5360   -1.0230 C.2   180  SER180      0.2314
    144  O          7.0650  -11.5910   -0.7000 O.2   180  SER180     -0.2863
    145  CB         9.9510  -10.8050   -0.1420 C.3   180  SER180      0.2116
    146  OG        10.0660   -9.6390    0.6550 O.3   180  SER180     -0.2180
@<TRIPOS>BOND
     1     4     3    2
     2     3     2    1
     3     1     2    1
     4     2     5    1
     5     5     6    1
     6     9    10    1
     7     7     6    1
     8     6     8    1
     9    71    72    2
    10    71    70    1
    11    13    10    1
    12    13    14    1
    13    10    11    1
    14    11    12    2
    15    69    70    1
    16    14    16   ar
    17    14    15   ar
    18    70    73    1
    19    16    18   ar
    20    73    74    1
    21    64    65    2
    22    64    63    1
    23    62    63    1
    24    15    17   ar
    25    51    52    1
    26   128   127    2
    27    18    19   ar
    28    63    66    1
    29    20    21    1
    30    80    81    1
    31    53    54    2
    32    53    52    1
    33    74    76   ar
    34    74    75   ar
    35    17    19   ar
    36    52    55    1
    37    27    25    1
    38   127   126    1
    39    76    78   ar
    40   126   125    1
    41   126   129    1
    42    25    24    1
    43    75    77   ar
    44    66    67    1
    45    66    68    1
    46   131   130    1
    47    84    81    1
    48    84    85    1
    49    81    82    1
    50    21    24    1
    51    21    22    1
    52    24    26    1
    53    28    22   am
    54    28    29    1
    55    55    56    1
    56    32    33    1
    57    32    29    1
    58    78    79   ar
    59    34    33   ar
    60    34    36   ar
    61   129   130    1
    62    22    23    2
    63   130   132    1
    64    77    79   ar
    65    85    86   ar
    66    85    87   ar
    67    82    83    2
    68    33    35   ar
    69    29    30    1
    70    30    31    2
    71    86    88   ar
    72    36    38   ar
    73    56    57   ar
    74    56    58   ar
    75    95    92    1
    76    57    59   ar
    77   122   120   ar
    78   122   124   ar
    79   119   120   ar
    80   119   117   ar
    81   114   113    2
    82    87    89   ar
    83    91    92    1
    84   120   118   ar
    85    35    37   ar
    86    58    60   ar
    87   124   123   ar
    88   117   116   ar
    89    38    37   ar
    90    38    39    1
    91    88    90   ar
    92    92    93    1
    93    59    61   ar
    94   118   116   ar
    95   118   121   ar
    96   113   112    1
    97   112   111    1
    98   112   115    1
    99   116   115    1
   100   123   121   ar
   101    89    90   ar
   102    60    61   ar
   103    93    96   am
   104    93    94    2
   105    40    41    1
   106    96    97    1
   107   140   138    1
   108    41    44    1
   109    41    42    1
   110   139   138    1
   111    44    45    1
   112   100    97    1
   113   100   101    1
   114    97    98    1
   115    42    43    2
   116   138   137    1
   117   110   108    1
   118    98    99    2
   119   137   134    1
   120   103   101    1
   121   101   102    1
   122    45    47   ar
   123    45    46   ar
   124   136   135    2
   125   109   108    1
   126   134   135    1
   127   134   133    1
   128   104   105    1
   129   108   105    1
   130    47    49   ar
   131   135   141   am
   132    46    48   ar
   133   105   106    1
   134    49    50   ar
   135   141   142    1
   136    48    50   ar
   137   106   107    2
   138   142   143    1
   139   142   145    1
   140   143   144    2
   141   145   146    1
