@<TRIPOS>MOLECULE
tmp/5g09C00.pdb
 153 148 0 0 0
SMALL
GASTEIGER

@<TRIPOS>ATOM
      1  N         35.7630   89.0120   10.3340 N.3    53  LEU53      -0.1231
      2  CA        34.7980   88.0360   10.8570 C.3    53  LEU53       0.1693
      3  C         34.2200   88.5700   12.1400 C.2    53  LEU53       0.2592
      4  O         34.1510   87.8590   13.1410 O.2    53  LEU53      -0.2718
      5  CB        35.4180   86.6350   11.0290 C.3    53  LEU53       0.0284
      6  CG        35.8920   85.9650    9.7140 C.3    53  LEU53       0.0019
      7  CD1       36.8400   84.7840    9.9580 C.3    53  LEU53       0.0001
      8  CD2       34.7090   85.5360    8.8440 C.3    53  LEU53       0.0001
      9  N         33.8080   89.8410   12.1070 N.am   54  TYR54      -0.1976
     10  CA        33.2540   90.5320   13.2770 C.3    54  TYR54       0.1639
     11  C         34.2540   90.4450   14.4150 C.2    54  TYR54       0.2290
     12  O         33.8710   90.2390   15.5490 O.2    54  TYR54      -0.2864
     13  CB        31.8650   89.9500   13.6470 C.3    54  TYR54       0.0560
     14  CG        31.0900   89.7550   12.3710 C.ar   54  TYR54      -0.0198
     15  CD1       30.3870   90.8160   11.7970 C.ar   54  TYR54      -0.0009
     16  CD2       31.1590   88.5460   11.6640 C.ar   54  TYR54      -0.0009
     17  CE1       29.7340   90.6650   10.5860 C.ar   54  TYR54       0.0417
     18  CE2       30.5170   88.3930   10.4480 C.ar   54  TYR54       0.0417
     19  CZ        29.7970   89.4650    9.9210 C.ar   54  TYR54       0.1957
     20  OH        29.1580   89.3150    8.7040 O.3    54  TYR54      -0.2866
     21  N         42.5300   80.1630   20.1120 N.3   114  THR114     -0.1203
     22  CA        41.4850   80.4590   19.1610 C.3   114  THR114      0.1994
     23  C         40.1240   80.3100   19.8350 C.2   114  THR114      0.2618
     24  O         40.0190   79.7310   20.9260 O.2   114  THR114     -0.2717
     25  CB        41.5010   79.4690   17.9720 C.3   114  THR114      0.1784
     26  OG1       41.2030   78.1450   18.4590 O.3   114  THR114     -0.2211
     27  CG2       42.8980   79.4360   17.2530 C.3   114  THR114      0.0376
     28  N         39.0740   80.8320   19.2150 N.am  115  GLY115     -0.1942
     29  CA        37.7130   80.5990   19.7630 C.3   115  GLY115      0.2014
     30  C         37.2800   79.1170   19.8440 C.2   115  GLY115      0.2639
     31  O         36.5710   78.7170   20.7790 O.2   115  GLY115     -0.2714
     32  N         37.6380   78.3200   18.8340 N.am  116  SER116     -0.1949
     33  CA        37.3240   76.8860   18.8360 C.3   116  SER116      0.1924
     34  C         37.9760   76.2100   20.0480 C.2   116  SER116      0.2314
     35  O         37.3280   75.3980   20.6990 O.2   116  SER116     -0.2863
     36  CB        37.7360   76.1940   17.5280 C.3   116  SER116      0.2116
     37  OG        36.9420   76.6600   16.4410 O.3   116  SER116     -0.2180
     38  N         36.0930   77.0560   23.1350 N.3   119  VAL119     -0.1245
     39  CA        34.8380   76.2310   23.2310 C.3   119  VAL119      0.1561
     40  C         35.1530   74.7910   23.6540 C.2   119  VAL119      0.2260
     41  O         34.4650   74.2220   24.5170 O.2   119  VAL119     -0.2867
     42  CB        33.9900   76.3040   21.9330 C.3   119  VAL119      0.0252
     43  CG1       32.8670   75.2400   21.9130 C.3   119  VAL119      0.0019
     44  CG2       33.3880   77.7170   21.7950 C.3   119  VAL119      0.0019
     45  N         26.6460   78.3020   15.8110 N.3   142  TYR142     -0.1227
     46  CA        28.0040   78.0920   15.3610 C.3   142  TYR142      0.1736
     47  C         28.9390   78.2930   16.5550 C.2   142  TYR142      0.2595
     48  O         28.9310   79.3730   17.1640 O.2   142  TYR142     -0.2718
     49  CB        28.4180   79.0290   14.2000 C.3   142  TYR142      0.0548
     50  CG        29.7990   78.6460   13.6930 C.ar  142  TYR142     -0.0200
     51  CD1       29.9570   77.6130   12.7710 C.ar  142  TYR142     -0.0009
     52  CD2       30.9440   79.2720   14.1800 C.ar  142  TYR142     -0.0009
     53  CE1       31.2180   77.2140   12.3400 C.ar  142  TYR142      0.0417
     54  CE2       32.2140   78.8820   13.7530 C.ar  142  TYR142      0.0417
     55  CZ        32.3440   77.8580   12.8310 C.ar  142  TYR142      0.1957
     56  OH        33.6010   77.4610   12.4110 O.3   142  TYR142     -0.2866
     57  N         29.7360   77.2720   16.8840 N.am  143  HIS143     -0.1961
     58  CA        30.6310   77.3500   18.0580 C.3   143  HIS143      0.1787
     59  C         32.0700   76.9520   17.7310 C.2   143  HIS143      0.2621
     60  O         32.8680   76.6830   18.6430 O.2   143  HIS143     -0.2715
     61  CB        30.1200   76.4710   19.2050 C.3   143  HIS143      0.0785
     62  CG        28.7980   76.9120   19.7460 C.ar  143  HIS143      0.0821
     63  ND1       28.6360   78.0840   20.4410 N.ar  143  HIS143     -0.2267
     64  CD2       27.5750   76.3390   19.6710 C.ar  143  HIS143      0.1154
     65  CE1       27.3650   78.2210   20.7750 C.ar  143  HIS143      0.1986
     66  NE2       26.7030   77.1610   20.3350 N.ar  143  HIS143     -0.2212
     67  N         32.3950   76.8880   16.4450 N.am  144  GLY144     -0.1940
     68  CA        33.7640   76.5490   15.9910 C.3   144  GLY144      0.2014
     69  C         33.8680   75.2590   15.2060 C.2   144  GLY144      0.2638
     70  O         32.8650   74.6100   14.9170 O.2   144  GLY144     -0.2714
     71  N         35.0850   74.8790   14.8420 N.am  145  TRP145     -0.1973
     72  CA        35.2650   73.9020   13.7570 C.3   145  TRP145      0.1640
     73  C         36.0480   72.6370   14.1360 C.2   145  TRP145      0.2290
     74  O         35.9710   71.6030   13.4360 O.2   145  TRP145     -0.2864
     75  CB        35.9450   74.6090   12.5830 C.3   145  TRP145      0.0576
     76  CG        37.3790   74.9740   12.9140 C.ar  145  TRP145      0.0006
     77  CD1       37.8260   76.1490   13.4590 C.ar  145  TRP145      0.0946
     78  CD2       38.5240   74.1500   12.7260 C.ar  145  TRP145      0.0152
     79  NE1       39.1880   76.0910   13.6340 N.ar  145  TRP145     -0.2442
     80  CE2       39.6390   74.8720   13.1920 C.ar  145  TRP145      0.0810
     81  CE3       38.7180   72.8640   12.1920 C.ar  145  TRP145      0.0012
     82  CZ2       40.9440   74.3610   13.1380 C.ar  145  TRP145      0.0191
     83  CZ3       40.0130   72.3320   12.1580 C.ar  145  TRP145      0.0001
     84  CH2       41.1160   73.0880   12.6400 C.ar  145  TRP145      0.0015
     85  N         28.4970   75.1230    7.5010 N.3   158  TYR158     -0.1241
     86  CA        29.7780   75.5090    8.1060 C.3   158  TYR158      0.1605
     87  C         30.3780   74.4040    8.9380 C.2   158  TYR158      0.2264
     88  O         31.0590   74.6960    9.9170 O.2   158  TYR158     -0.2867
     89  CB        29.6310   76.7900    8.9590 C.3   158  TYR158      0.0534
     90  CG        29.6610   78.0500    8.0940 C.ar  158  TYR158     -0.0201
     91  CD1       28.4990   78.5430    7.5090 C.ar  158  TYR158     -0.0009
     92  CD2       30.8680   78.7010    7.8280 C.ar  158  TYR158     -0.0009
     93  CE1       28.5200   79.6560    6.6850 C.ar  158  TYR158      0.0417
     94  CE2       30.9170   79.8370    7.0160 C.ar  158  TYR158      0.0417
     95  CZ        29.7400   80.3010    6.4360 C.ar  158  TYR158      0.1957
     96  OH        29.7710   81.4010    5.6150 O.3   158  TYR158     -0.2866
     97  N         24.4190   81.1590   21.9100 N.3   231  GLU231     -0.1245
     98  CA        24.9260   82.4660   21.4790 C.3   231  GLU231      0.1567
     99  C         23.7680   83.4290   21.7380 C.2   231  GLU231      0.2260
    100  O         22.6400   83.1220   21.3230 O.2   231  GLU231     -0.2867
    101  CB        25.2330   82.4800   19.9730 C.3   231  GLU231      0.0388
    102  CG        26.2320   81.4380   19.4710 C.3   231  GLU231      0.1160
    103  CD        26.3100   81.4740   17.9530 C.2   231  GLU231      0.3649
    104  OE1       26.9280   82.4220   17.4060 O.co2 231  GLU231     -0.2457
    105  OE2       25.7340   80.5740   17.3030 O.co2 231  GLU231     -0.2457
    106  N         25.6870   84.2680   15.4930 N.3   235  GLY235     -0.1210
    107  CA        26.6580   84.9820   14.6540 C.3   235  GLY235      0.1956
    108  C         26.5910   84.5900   13.1960 C.2   235  GLY235      0.2611
    109  O         25.8890   85.2360   12.3960 O.2   235  GLY235     -0.2717
    110  N         27.3040   83.5210   12.8480 N.am  236  ALA236     -0.1979
    111  CA        27.1740   82.8980   11.5250 C.3   236  ALA236      0.1597
    112  C         25.6890   82.5790   11.1670 C.2   236  ALA236      0.2287
    113  O         25.2310   82.8590   10.0400 O.2   236  ALA236     -0.2864
    114  CB        28.0330   81.6600   11.4440 C.3   236  ALA236      0.0319
    115  N         28.4660   81.4530   24.7360 N.3   263  ASP263     -0.1239
    116  CA        29.5970   81.6230   23.8260 C.3   263  ASP263      0.1674
    117  C         29.6690   83.0940   23.4200 C.2   263  ASP263      0.2266
    118  O         28.8310   83.5820   22.6760 O.2   263  ASP263     -0.2867
    119  CB        29.4090   80.7180   22.6090 C.3   263  ASP263      0.1410
    120  CG        30.5940   80.7380   21.6530 C.2   263  ASP263      0.3668
    121  OD1       31.5070   81.5820   21.8260 O.co2 263  ASP263     -0.2456
    122  OD2       30.6130   79.8900   20.7190 O.co2 263  ASP263     -0.2456
    123  N         32.3800   84.4500   21.8740 N.3   265  VAL265     -0.1231
    124  CA        33.5190   84.5790   20.9580 C.3   265  VAL265      0.1692
    125  C         33.2660   85.7280   20.0020 C.2   265  VAL265      0.2591
    126  O         34.1370   86.5850   19.8120 O.2   265  VAL265     -0.2718
    127  CB        33.8580   83.2500   20.2430 C.3   265  VAL265      0.0266
    128  CG1       34.7520   83.4680   19.0230 C.3   265  VAL265      0.0020
    129  CG2       34.5330   82.2880   21.2250 C.3   265  VAL265      0.0020
    130  N         32.0640   85.7690   19.4230 N.am  266  LEU266     -0.1980
    131  CA        31.7090   86.8440   18.5120 C.3   266  LEU266      0.1596
    132  C         31.0450   88.0390   19.1900 C.2   266  LEU266      0.2287
    133  O         31.3650   89.1960   18.8400 O.2   266  LEU266     -0.2864
    134  CB        30.8460   86.3100   17.3530 C.3   266  LEU266      0.0297
    135  CG        30.5790   87.2250   16.1480 C.3   266  LEU266      0.0022
    136  CD1       30.5420   86.4110   14.8520 C.3   266  LEU266      0.0001
    137  CD2       29.2600   87.9330   16.3640 C.3   266  LEU266      0.0001
    138  N         38.2780   86.4390   19.0200 N.3   292  LYS292     -0.1245
    139  CA        37.9680   87.6210   18.1860 C.3   292  LYS292      0.1561
    140  C         38.3120   88.9730   18.8740 C.2   292  LYS292      0.2260
    141  O         39.5140   89.3270   18.9710 O.2   292  LYS292     -0.2867
    142  CB        36.5200   87.5540   17.6900 C.3   292  LYS292      0.0271
    143  CG        36.2570   86.3530   16.7780 C.3   292  LYS292      0.0035
    144  CD        34.8140   86.3200   16.2910 C.3   292  LYS292      0.0206
    145  CE        34.4980   85.0650   15.5110 C.3   292  LYS292      0.1093
    146  NZ        35.0710   85.1040   14.1360 N.3   292  LYS292     -0.1314
    147  N         26.4690   85.9900    5.5240 N.3   430  VAL430     -0.1245
    148  CA        26.8890   84.6050    5.2730 C.3   430  VAL430      0.1561
    149  C         25.7350   83.6500    5.0280 C.2   430  VAL430      0.2260
    150  O         25.9480   82.5920    4.4640 O.2   430  VAL430     -0.2867
    151  CB        27.8030   84.0420    6.3790 C.3   430  VAL430      0.0252
    152  CG1       29.1270   84.7930    6.3300 C.3   430  VAL430      0.0019
    153  CG2       27.1390   84.1720    7.7560 C.3   430  VAL430      0.0019
@<TRIPOS>BOND
     1   150   149    2
     2   149   148    1
     3   148   147    1
     4   148   151    1
     5    96    95    1
     6   152   151    1
     7   151   153    1
     8    95    93   ar
     9    95    94   ar
    10    93    91   ar
    11    94    92   ar
    12    85    86    1
    13    91    90   ar
    14    92    90   ar
    15    90    89    1
    16    86    87    1
    17    86    89    1
    18    20    19    1
    19     8     6    1
    20    87    88    2
    21     6     7    1
    22     6     5    1
    23    19    18   ar
    24    19    17   ar
    25   113   112    2
    26     1     2    1
    27    18    16   ar
    28    17    15   ar
    29     2     5    1
    30     2     3    1
    31   112   111    1
    32   114   111    1
    33   111   110    1
    34    16    14   ar
    35    15    14   ar
    36     9     3   am
    37     9    10    1
    38     3     4    2
    39    83    81   ar
    40    83    84   ar
    41    81    78   ar
    42    53    51   ar
    43    53    55   ar
    44    14    13    1
    45   109   108    2
    46    56    55    1
    47    75    76    1
    48    75    72    1
    49    84    82   ar
    50    78    76   ar
    51    78    80   ar
    52    51    50   ar
    53    55    54   ar
    54   110   108   am
    55    76    77   ar
    56    82    80   ar
    57    80    79   ar
    58   108   107    1
    59    10    13    1
    60    10    11    1
    61    74    73    2
    62    77    79   ar
    63    50    52   ar
    64    50    49    1
    65    54    52   ar
    66    72    73    1
    67    72    71    1
    68   146   145    1
    69    49    46    1
    70    11    12    2
    71   107   106    1
    72    71    69   am
    73   136   135    1
    74    70    69    2
    75    69    68    1
    76    46    45    1
    77    46    47    1
    78   145   144    1
    79    68    67    1
    80   135   137    1
    81   135   134    1
    82   144   143    1
    83    37    36    1
    84    67    59   am
    85    47    57   am
    86    47    48    2
    87   143   142    1
    88    57    58    1
    89    27    25    1
    90   105   103   ar
    91   134   131    1
    92   104   103   ar
    93    36    33    1
    94   142   139    1
    95    59    58    1
    96    59    60    2
    97   103   102    1
    98    25    26    1
    99    25    22    1
   100    58    61    1
   101   139   140    1
   102   139   138    1
   103   131   132    1
   104   131   130    1
   105    32    33    1
   106    32    30   am
   107    33    34    1
   108   133   132    2
   109   140   141    2
   110   128   127    1
   111    22    23    1
   112    22    21    1
   113    61    62    1
   114    28    29    1
   115    28    23   am
   116   130   125   am
   117   102   101    1
   118    64    62   ar
   119    64    66   ar
   120    62    63   ar
   121    29    30    1
   122   126   125    2
   123    23    24    2
   124    30    31    2
   125   101    98    1
   126   125   124    1
   127    34    35    2
   128   127   124    1
   129   127   129    1
   130    66    65   ar
   131    63    65   ar
   132   122   120   ar
   133   124   123    1
   134   100    99    2
   135    98    99    1
   136    98    97    1
   137   120   121   ar
   138   120   119    1
   139    44    42    1
   140    43    42    1
   141    42    39    1
   142   119   116    1
   143   118   117    2
   144    38    39    1
   145    39    40    1
   146   117   116    1
   147    40    41    2
   148   116   115    1
