@<TRIPOS>MOLECULE
tmp/5g09D01.pdb
 97 93 0 0 0
SMALL
GASTEIGER

@<TRIPOS>ATOM
      1  N         47.9920   70.5570   35.8470 N.3    24  PHE24      -0.1241
      2  CA        48.9830   69.6300   36.4480 C.3    24  PHE24       0.1605
      3  C         49.2250   69.7840   37.9760 C.2    24  PHE24       0.2264
      4  O         49.7040   68.8580   38.5740 O.2    24  PHE24      -0.2867
      5  CB        50.3040   69.6120   35.6240 C.3    24  PHE24       0.0534
      6  CG        50.0940   69.2280   34.1740 C.ar   24  PHE24      -0.0203
      7  CD1       49.9370   67.8780   33.8030 C.ar   24  PHE24      -0.0042
      8  CD2       49.9730   70.1980   33.1950 C.ar   24  PHE24      -0.0042
      9  CE1       49.7150   67.5080   32.4810 C.ar   24  PHE24      -0.0003
     10  CE2       49.7440   69.8440   31.8690 C.ar   24  PHE24      -0.0003
     11  CZ        49.6220   68.5040   31.5050 C.ar   24  PHE24      -0.0000
     12  N         56.1070   79.9400   38.8070 N.3    33  VAL33      -0.1245
     13  CA        57.4920   80.0620   38.3830 C.3    33  VAL33       0.1561
     14  C         57.5030   81.1790   37.3560 C.2    33  VAL33       0.2260
     15  O         57.2890   80.9280   36.1660 O.2    33  VAL33      -0.2867
     16  CB        58.0430   78.7440   37.7850 C.3    33  VAL33       0.0252
     17  CG1       59.5060   78.9070   37.4060 C.3    33  VAL33       0.0019
     18  CG2       57.8660   77.5740   38.7600 C.3    33  VAL33       0.0019
     19  N         64.4980   71.4580   28.1510 N.3    55  PHE55      -0.1241
     20  CA        63.2310   71.0120   27.6250 C.3    55  PHE55       0.1605
     21  C         62.9200   71.7800   26.3380 C.2    55  PHE55       0.2264
     22  O         62.0080   71.3950   25.6150 O.2    55  PHE55      -0.2867
     23  CB        62.0850   71.2520   28.6370 C.3    55  PHE55       0.0534
     24  CG        62.1270   70.3310   29.8380 C.ar   55  PHE55      -0.0203
     25  CD1       61.5720   69.0540   29.7780 C.ar   55  PHE55      -0.0042
     26  CD2       62.7230   70.7350   31.0120 C.ar   55  PHE55      -0.0042
     27  CE1       61.6230   68.2040   30.8870 C.ar   55  PHE55      -0.0003
     28  CE2       62.7860   69.8940   32.1240 C.ar   55  PHE55      -0.0003
     29  CZ        62.2250   68.6320   32.0650 C.ar   55  PHE55      -0.0000
     30  N         61.3130   74.4560   26.2790 N.3    57  GLN57      -0.1231
     31  CA        59.9010   74.6080   26.6320 C.3    57  GLN57       0.1698
     32  C         59.1390   73.3050   26.4170 C.2    57  GLN57       0.2592
     33  O         59.1140   72.4420   27.3010 O.2    57  GLN57      -0.2718
     34  CB        59.2580   75.8220   25.9100 C.3    57  GLN57       0.0381
     35  CG        59.7710   77.1530   26.4360 C.3    57  GLN57       0.0905
     36  CD        59.5070   77.3090   27.9280 C.2    57  GLN57       0.2608
     37  OE1       58.3670   77.4810   28.3370 O.2    57  GLN57      -0.2717
     38  NE2       60.5630   77.2200   28.7500 N.am   57  GLN57      -0.0878
     39  N         58.5660   73.1290   25.2300 N.am   58  LEU58      -0.1966
     40  CA        57.9100   71.8580   24.8820 C.3    58  LEU58       0.1728
     41  C         58.4970   71.3610   23.5590 C.2    58  LEU58       0.2616
     42  O         57.7680   71.0640   22.6110 O.2    58  LEU58      -0.2715
     43  CB        56.3730   72.0470   24.8280 C.3    58  LEU58       0.0311
     44  CG        55.6900   72.4340   26.1490 C.3    58  LEU58       0.0022
     45  CD1       54.2500   72.9040   25.9260 C.3    58  LEU58       0.0001
     46  CD2       55.7080   71.2970   27.1790 C.3    58  LEU58       0.0001
     47  N         59.8360   71.3110   23.4930 N.am   59  TYR59      -0.1974
     48  CA        60.5710   70.8550   22.3120 C.3    59  TYR59       0.1639
     49  C         60.1380   71.6850   21.1200 C.2    59  TYR59       0.2290
     50  O         59.9450   71.1600   20.0220 O.2    59  TYR59      -0.2864
     51  CB        60.3880   69.3180   22.1070 C.3    59  TYR59       0.0560
     52  CG        60.5700   68.6290   23.4380 C.ar   59  TYR59      -0.0198
     53  CD1       61.8540   68.3410   23.9310 C.ar   59  TYR59      -0.0009
     54  CD2       59.4670   68.3480   24.2610 C.ar   59  TYR59      -0.0009
     55  CE1       62.0310   67.7730   25.1800 C.ar   59  TYR59       0.0417
     56  CE2       59.6440   67.7690   25.5120 C.ar   59  TYR59       0.0417
     57  CZ        60.9170   67.4930   25.9700 C.ar   59  TYR59       0.1957
     58  OH        61.0560   66.9310   27.2240 O.3    59  TYR59      -0.2866
     59  N         47.7190   62.4640   29.6170 N.3   163  TYR163     -0.1241
     60  CA        47.6390   63.7420   28.8810 C.3   163  TYR163      0.1605
     61  C         46.2990   63.9460   28.1370 C.2   163  TYR163      0.2264
     62  O         46.2560   64.6160   27.1220 O.2   163  TYR163     -0.2867
     63  CB        48.8450   63.8870   27.9240 C.3   163  TYR163      0.0534
     64  CG        50.0640   64.3550   28.6680 C.ar  163  TYR163     -0.0201
     65  CD1       50.9320   63.4510   29.2790 C.ar  163  TYR163     -0.0009
     66  CD2       50.3140   65.7210   28.8140 C.ar  163  TYR163     -0.0009
     67  CE1       52.0290   63.8910   30.0100 C.ar  163  TYR163      0.0417
     68  CE2       51.4070   66.1700   29.5380 C.ar  163  TYR163      0.0417
     69  CZ        52.2500   65.2540   30.1380 C.ar  163  TYR163      0.1957
     70  OH        53.3250   65.7340   30.8510 O.3   163  TYR163     -0.2866
     71  N         65.0880   66.0340   37.8850 N.3   422  MET422     -0.1245
     72  CA        64.8310   67.4480   37.5810 C.3   422  MET422      0.1570
     73  C         65.0330   68.4140   38.7690 C.2   422  MET422      0.2261
     74  O         65.6020   69.4980   38.6290 O.2   422  MET422     -0.2867
     75  CB        63.4130   67.6260   37.0210 C.3   422  MET422      0.0387
     76  CG        63.1230   69.0610   36.6230 C.3   422  MET422      0.0595
     77  SD        61.3960   69.2880   36.1260 S.3   422  MET422     -0.1393
     78  CE        60.5930   69.0860   37.7170 C.3   422  MET422      0.0692
     79  N         67.4090   73.1080   33.6520 N.3   431  LEU431     -0.1245
     80  CA        66.1240   72.4220   33.5550 C.3   431  LEU431      0.1561
     81  C         66.2850   71.1870   32.6720 C.2   431  LEU431      0.2260
     82  O         66.5340   71.2950   31.4700 O.2   431  LEU431     -0.2867
     83  CB        65.0850   73.3780   32.9810 C.3   431  LEU431      0.0270
     84  CG        64.6980   74.5010   33.9390 C.3   431  LEU431      0.0019
     85  CD1       64.1340   75.7280   33.2120 C.3   431  LEU431      0.0001
     86  CD2       63.6760   73.9290   34.9180 C.3   431  LEU431      0.0001
     87  N         62.0220   64.8460   32.2400 N.3   434  GLY434     -0.1210
     88  CA        61.1590   64.2480   31.2270 C.3   434  GLY434      0.1956
     89  C         59.6910   64.3470   31.6400 C.2   434  GLY434      0.2611
     90  O         59.3880   64.8910   32.7140 O.2   434  GLY434     -0.2717
     91  N         58.7850   63.8290   30.7970 N.am  435  VAL435     -0.1979
     92  CA        57.3470   63.8360   31.1070 C.3   435  VAL435      0.1595
     93  C         56.8280   62.4480   31.5390 C.2   435  VAL435      0.2287
     94  O         55.8240   62.3330   32.2720 O.2   435  VAL435     -0.2864
     95  CB        56.5080   64.4480   29.9570 C.3   435  VAL435      0.0276
     96  CG1       56.8210   65.9370   29.8130 C.3   435  VAL435      0.0022
     97  CG2       56.7610   63.7400   28.6380 C.3   435  VAL435      0.0022
@<TRIPOS>BOND
     1    50    49    2
     2    49    48    1
     3    51    48    1
     4    51    52    1
     5    48    47    1
     6    42    41    2
     7    52    53   ar
     8    52    54   ar
     9    47    41   am
    10    41    40    1
    11    53    55   ar
    12    54    56   ar
    13    43    40    1
    14    43    44    1
    15    40    39    1
    16    55    57   ar
    17    39    32   am
    18    56    57   ar
    19    22    21    2
    20    34    35    1
    21    34    31    1
    22    45    44    1
    23    57    58    1
    24    44    46    1
    25    30    31    1
    26    21    20    1
    27    32    31    1
    28    32    33    2
    29    35    36    1
    30    62    61    2
    31    20    19    1
    32    20    23    1
    33    63    64    1
    34    63    60    1
    35    36    37    2
    36    36    38   am
    37    61    60    1
    38    23    24    1
    39    97    95    1
    40    64    66   ar
    41    64    65   ar
    42    66    68   ar
    43    60    59    1
    44    65    67   ar
    45    68    69   ar
    46    25    24   ar
    47    25    27   ar
    48    96    95    1
    49    24    26   ar
    50    95    92    1
    51    67    69   ar
    52    69    70    1
    53    91    92    1
    54    91    89   am
    55    27    29   ar
    56    26    28   ar
    57    92    93    1
    58    88    89    1
    59    88    87    1
    60    82    81    2
    61    11    10   ar
    62    11     9   ar
    63    93    94    2
    64    89    90    2
    65    10     8   ar
    66    29    28   ar
    67     9     7   ar
    68    81    80    1
    69    83    80    1
    70    83    84    1
    71     8     6   ar
    72    85    84    1
    73    80    79    1
    74     7     6   ar
    75    84    86    1
    76     6     5    1
    77     5     2    1
    78     1     2    1
    79    77    76    1
    80    77    78    1
    81    15    14    2
    82     2     3    1
    83    76    75    1
    84    75    72    1
    85    14    13    1
    86    17    16    1
    87    72    71    1
    88    72    73    1
    89    16    13    1
    90    16    18    1
    91     3     4    2
    92    13    12    1
    93    74    73    2
