@<TRIPOS>MOLECULE
tmp/5g0aA06.pdb
 91 85 0 0 0
SMALL
GASTEIGER

@<TRIPOS>ATOM
      1  N         19.8320   35.1440    3.1800 N.3    18  THR18      -0.1203
      2  CA        21.0830   35.3510    3.9190 C.3    18  THR18       0.1994
      3  C         22.1760   34.4570    3.3370 C.2    18  THR18       0.2618
      4  O         21.9140   33.3130    2.9270 O.2    18  THR18      -0.2717
      5  CB        20.9460   35.0970    5.4370 C.3    18  THR18       0.1784
      6  OG1       20.4390   33.7710    5.6560 O.3    18  THR18      -0.2211
      7  CG2       20.0170   36.1780    6.1060 C.3    18  THR18       0.0376
      8  N         23.3790   35.0300    3.2390 N.am   19  PHE19      -0.1961
      9  CA        24.5940   34.3650    2.7310 C.3    19  PHE19       0.1771
     10  C         24.5820   34.0590    1.2300 C.2    19  PHE19       0.2620
     11  O         25.6450   33.9620    0.6190 O.2    19  PHE19      -0.2715
     12  CB        24.9710   33.1420    3.5770 C.3    19  PHE19       0.0574
     13  CG        25.2060   33.4990    5.0310 C.ar   19  PHE19      -0.0200
     14  CD1       26.4180   34.0530    5.4280 C.ar   19  PHE19      -0.0042
     15  CD2       24.1850   33.3480    5.9650 C.ar   19  PHE19      -0.0042
     16  CE1       26.6280   34.4230    6.7590 C.ar   19  PHE19      -0.0003
     17  CE2       24.3720   33.7210    7.2980 C.ar   19  PHE19      -0.0003
     18  CZ        25.5910   34.2600    7.6890 C.ar   19  PHE19      -0.0000
     19  N         23.3920   33.9700    0.6490 N.am   20  SER20      -0.1950
     20  CA        23.2340   33.7570   -0.7980 C.3    20  SER20       0.1924
     21  C         22.5290   34.9330   -1.4430 C.2    20  SER20       0.2314
     22  O         21.5560   35.4490   -0.8950 O.2    20  SER20      -0.2863
     23  CB        22.3700   32.5060   -1.0780 C.3    20  SER20       0.2116
     24  OG        22.9340   31.3430   -0.4970 O.3    20  SER20      -0.2180
     25  N         21.7360   33.1700   -7.0620 N.3    24  GLU24      -0.1245
     26  CA        22.4890   31.9160   -6.8440 C.3    24  GLU24       0.1567
     27  C         21.7740   30.9260   -5.9080 C.2    24  GLU24       0.2260
     28  O         22.1620   29.7530   -5.8130 O.2    24  GLU24      -0.2867
     29  CB        23.8730   32.2110   -6.2790 C.3    24  GLU24       0.0388
     30  CG        23.9030   32.5950   -4.7940 C.3    24  GLU24       0.1160
     31  CD        25.2770   33.0820   -4.3840 C.2    24  GLU24       0.3649
     32  OE1       26.2730   32.5840   -4.9340 O.co2  24  GLU24      -0.2457
     33  OE2       25.3810   33.9570   -3.5110 O.co2  24  GLU24      -0.2457
     34  N         30.7400   36.5090   -5.4710 N.3   166  ASN166     -0.1240
     35  CA        32.0380   36.0970   -6.0320 C.3   166  ASN166      0.1653
     36  C         32.8640   37.2890   -6.4860 C.2   166  ASN166      0.2266
     37  O         33.5280   37.2580   -7.5280 O.2   166  ASN166     -0.2867
     38  CB        31.8500   35.0750   -7.1640 C.3   166  ASN166      0.1155
     39  CG        30.9850   33.9100   -6.7460 C.2   166  ASN166      0.2627
     40  OD1       31.0720   33.4340   -5.6120 O.2   166  ASN166     -0.2716
     41  ND2       30.1310   33.4480   -7.6510 N.am  166  ASN166     -0.0877
     42  N         32.4360   36.7520    2.9560 N.3   404  HIS404     -0.1241
     43  CA        31.6880   35.8380    2.0980 C.3   404  HIS404      0.1621
     44  C         31.5650   36.3340    0.6570 C.2   404  HIS404      0.2264
     45  O         30.8170   35.7530   -0.1390 O.2   404  HIS404     -0.2867
     46  CB        30.3120   35.5370    2.6760 C.3   404  HIS404      0.0745
     47  CG        30.3560   34.6980    3.9200 C.ar  404  HIS404      0.0817
     48  ND1       30.3330   35.2440    5.1870 N.ar  404  HIS404     -0.2268
     49  CD2       30.4150   33.3560    4.0880 C.ar  404  HIS404      0.1154
     50  CE1       30.3870   34.2710    6.0860 C.ar  404  HIS404      0.1986
     51  NE2       30.4320   33.1140    5.4420 N.ar  404  HIS404     -0.2212
     52  N         34.0040   36.0740   -1.2910 N.3   406  MET406     -0.1245
     53  CA        34.8230   35.0560   -1.9970 C.3   406  MET406      0.1570
     54  C         33.9680   34.0670   -2.7700 C.2   406  MET406      0.2261
     55  O         32.8610   33.7440   -2.3710 O.2   406  MET406     -0.2867
     56  CB        35.6230   34.2020   -1.0040 C.3   406  MET406      0.0387
     57  CG        36.7350   34.8900   -0.2670 C.3   406  MET406      0.0595
     58  SD        37.7980   33.5900    0.4010 S.3   406  MET406     -0.1393
     59  CE        38.4970   32.8320   -1.0670 C.3   406  MET406      0.0692
     60  N         32.9760   30.3970   -3.3310 N.3   408  PRO408     -0.2116
     61  CA        33.0920   29.1690   -2.5350 C.3   408  PRO408      0.1372
     62  C         33.9230   28.0590   -3.2200 C.2   408  PRO408      0.2244
     63  O         34.4010   27.1580   -2.5350 O.2   408  PRO408     -0.2868
     64  CB        31.6450   28.7070   -2.3460 C.3   408  PRO408      0.0268
     65  CG        30.8210   29.4740   -3.3310 C.3   408  PRO408      0.0207
     66  CD        31.5670   30.7620   -3.5850 C.3   408  PRO408      0.0892
     67  N         37.2700   27.9110   -1.5440 N.3   411  ILE411     -0.1245
     68  CA        37.3020   27.8570   -0.0760 C.3   411  ILE411      0.1561
     69  C         37.4150   26.4010    0.3760 C.2   411  ILE411      0.2260
     70  O         36.4870   25.6410    0.1690 O.2   411  ILE411     -0.2867
     71  CB        36.0310   28.5030    0.5510 C.3   411  ILE411      0.0252
     72  CG1       35.9360   29.9930    0.1680 C.3   411  ILE411      0.0019
     73  CG2       36.0430   28.3240    2.0730 C.3   411  ILE411      0.0019
     74  CD1       34.6790   30.7080    0.6810 C.3   411  ILE411      0.0001
     75  N         34.4760   24.7560    2.0250 N.3   414  GLN414     -0.1245
     76  CA        33.3470   24.6140    1.1060 C.3   414  GLN414      0.1566
     77  C         33.5690   23.4040    0.1970 C.2   414  GLN414      0.2260
     78  O         32.6460   22.6270   -0.0590 O.2   414  GLN414     -0.2867
     79  CB        33.1450   25.8830    0.2550 C.3   414  GLN414      0.0367
     80  CG        32.5280   27.0790    0.9880 C.3   414  GLN414      0.0905
     81  CD        31.0950   26.8040    1.4100 C.2   414  GLN414      0.2608
     82  OE1       30.7580   26.8690    2.6070 O.2   414  GLN414     -0.2717
     83  NE2       30.2500   26.4610    0.4460 N.am  414  GLN414     -0.0878
     84  N         32.9900   20.2890    2.3120 N.3   417  MET417     -0.1245
     85  CA        31.5440   20.1100    2.5050 C.3   417  MET417      0.1570
     86  C         30.8180   19.5320    1.2830 C.2   417  MET417      0.2261
     87  O         30.0510   18.5630    1.3910 O.2   417  MET417     -0.2867
     88  CB        30.9050   21.4450    2.9210 C.3   417  MET417      0.0387
     89  CG        29.4720   21.3080    3.3790 C.3   417  MET417      0.0595
     90  SD        28.7270   22.9350    3.6350 S.3   417  MET417     -0.1393
     91  CE        28.3700   23.3270    1.9270 C.3   417  MET417      0.0692
@<TRIPOS>BOND
     1    41    39   am
     2    37    36    2
     3    38    39    1
     4    38    35    1
     5    25    26    1
     6    26    29    1
     7    26    27    1
     8    39    40    2
     9    36    35    1
    10    29    30    1
    11    35    34    1
    12    27    28    2
    13    32    31   ar
    14    30    31    1
    15    31    33   ar
    16    66    60    1
    17    66    65    1
    18    60    61    1
    19    65    64    1
    20    62    61    1
    21    62    63    2
    22    54    55    2
    23    54    53    1
    24    61    64    1
    25    53    52    1
    26    53    56    1
    27    67    68    1
    28    21    22    2
    29    21    20    1
    30    23    20    1
    31    23    24    1
    32    59    58    1
    33    56    57    1
    34    20    19    1
    35    57    58    1
    36    45    44    2
    37    68    69    1
    38    68    71    1
    39    78    77    2
    40    72    71    1
    41    72    74    1
    42    70    69    2
    43    77    76    1
    44    79    80    1
    45    79    76    1
    46    83    81   am
    47    71    73    1
    48    11    10    2
    49    19    10   am
    50    44    43    1
    51    80    81    1
    52    76    75    1
    53    10     9    1
    54    86    87    2
    55    86    85    1
    56    81    82    2
    57    91    90    1
    58    43    46    1
    59    43    42    1
    60    84    85    1
    61    85    88    1
    62    46    47    1
    63     9     8    1
    64     9    12    1
    65    88    89    1
    66     4     3    2
    67     1     2    1
    68     8     3   am
    69     3     2    1
    70    89    90    1
    71    12    13    1
    72     2     5    1
    73    47    49   ar
    74    47    48   ar
    75    49    51   ar
    76    13    14   ar
    77    13    15   ar
    78    48    50   ar
    79    14    16   ar
    80     5     6    1
    81     5     7    1
    82    51    50   ar
    83    15    17   ar
    84    16    18   ar
    85    17    18   ar
