@<TRIPOS>MOLECULE
tmp/5g0aB02.pdb
 118 113 0 0 0
SMALL
GASTEIGER

@<TRIPOS>ATOM
      1  N          0.9550   41.6900   27.7600 N.3    58  LEU58      -0.1245
      2  CA         1.6100   42.8890   27.2340 C.3    58  LEU58       0.1561
      3  C          0.9660   43.2290   25.9020 C.2    58  LEU58       0.2260
      4  O          1.6610   43.4800   24.9160 O.2    58  LEU58      -0.2867
      5  CB         3.1350   42.6590   27.1000 C.3    58  LEU58       0.0270
      6  CG         3.8500   42.4010   28.4420 C.3    58  LEU58       0.0019
      7  CD1        5.2900   41.9310   28.2130 C.3    58  LEU58       0.0001
      8  CD2        3.8340   43.6380   29.3380 C.3    58  LEU58       0.0001
      9  N         11.8390   37.7400   18.4160 N.3   119  THR119     -0.1203
     10  CA        11.2430   38.7400   19.2860 C.3   119  THR119      0.1994
     11  C         10.9810   40.0620   18.5470 C.2   119  THR119      0.2618
     12  O         11.5200   40.2840   17.4640 O.2   119  THR119     -0.2717
     13  CB        12.1230   39.0500   20.5280 C.3   119  THR119      0.1784
     14  OG1       13.3200   39.7500   20.1350 O.3   119  THR119     -0.2211
     15  CG2       12.5470   37.7560   21.2990 C.3   119  THR119      0.0376
     16  N         10.1660   40.9310   19.1570 N.am  120  GLY120     -0.1942
     17  CA         9.8770   42.2340   18.5650 C.3   120  GLY120      0.2014
     18  C         11.1330   43.0960   18.5230 C.2   120  GLY120      0.2639
     19  O         11.3630   43.8030   17.5410 O.2   120  GLY120     -0.2714
     20  N         11.9540   43.0260   19.5820 N.am  121  SER121     -0.1949
     21  CA        13.1960   43.8070   19.6060 C.3   121  SER121      0.1924
     22  C         14.1260   43.3400   18.5010 C.2   121  SER121      0.2314
     23  O         14.7320   44.1570   17.8310 O.2   121  SER121     -0.2863
     24  CB        13.9220   43.7050   20.9500 C.3   121  SER121      0.2116
     25  OG        13.1790   44.3720   21.9520 O.3   121  SER121     -0.2180
     26  N         12.9140   44.8190   15.2580 N.3   124  VAL124     -0.1245
     27  CA        13.3310   46.2430   15.1450 C.3   124  VAL124      0.1561
     28  C         14.8370   46.3420   14.8180 C.2   124  VAL124      0.2260
     29  O         15.2370   47.1180   13.9610 O.2   124  VAL124     -0.2867
     30  CB        12.9620   47.0210   16.4210 C.3   124  VAL124      0.0252
     31  CG1       13.5720   48.4360   16.4340 C.3   124  VAL124      0.0019
     32  CG2       11.4220   47.1340   16.5390 C.3   124  VAL124      0.0019
     33  N          8.4630   53.6150   22.1720 N.3   147  TYR147     -0.1227
     34  CA         9.0710   52.3670   22.6440 C.3   147  TYR147      0.1736
     35  C          9.2160   51.4370   21.4440 C.2   147  TYR147      0.2595
     36  O          8.2290   51.1600   20.7440 O.2   147  TYR147     -0.2718
     37  CB         8.2290   51.7210   23.7500 C.3   147  TYR147      0.0548
     38  CG         8.9320   50.4810   24.2940 C.ar  147  TYR147     -0.0200
     39  CD1        9.9950   50.6180   25.1980 C.ar  147  TYR147     -0.0009
     40  CD2        8.5960   49.2000   23.8480 C.ar  147  TYR147     -0.0009
     41  CE1       10.7000   49.5110   25.6590 C.ar  147  TYR147      0.0417
     42  CE2        9.2810   48.0660   24.3290 C.ar  147  TYR147      0.0417
     43  CZ        10.3360   48.2430   25.2270 C.ar  147  TYR147      0.1957
     44  OH        11.0450   47.1620   25.7140 O.3   147  TYR147     -0.2866
     45  N         10.4450   50.9870   21.1830 N.am  148  HIS148     -0.1961
     46  CA        10.7070   50.1050   20.0680 C.3   148  HIS148      0.1787
     47  C         11.4760   48.8600   20.5090 C.2   148  HIS148      0.2621
     48  O         11.9890   48.1300   19.6760 O.2   148  HIS148     -0.2715
     49  CB        11.4500   50.8450   18.9240 C.3   148  HIS148      0.0785
     50  CG        10.6350   51.9370   18.3030 C.ar  148  HIS148      0.0821
     51  ND1        9.4810   51.6810   17.5890 N.ar  148  HIS148     -0.2267
     52  CD2       10.7960   53.2870   18.2920 C.ar  148  HIS148      0.1154
     53  CE1        8.9550   52.8290   17.1840 C.ar  148  HIS148      0.1986
     54  NE2        9.7400   53.8160   17.5890 N.ar  148  HIS148     -0.2212
     55  N         11.5560   48.6210   21.8160 N.am  149  GLY149     -0.1940
     56  CA        12.2750   47.4200   22.2710 C.3   149  GLY149      0.2014
     57  C         13.4490   47.7620   23.1660 C.2   149  GLY149      0.2638
     58  O         13.6830   48.9330   23.4640 O.2   149  GLY149     -0.2714
     59  N         14.2140   46.7400   23.5660 N.am  150  TRP150     -0.1973
     60  CA        15.1630   46.9110   24.6700 C.3   150  TRP150      0.1640
     61  C         16.6180   46.5530   24.3570 C.2   150  TRP150      0.2290
     62  O         17.5140   46.9130   25.1320 O.2   150  TRP150     -0.2864
     63  CB        14.7090   46.0960   25.8970 C.3   150  TRP150      0.0576
     64  CG        14.7760   44.6210   25.6380 C.ar  150  TRP150      0.0006
     65  CD1       13.8040   43.8500   25.0700 C.ar  150  TRP150      0.0946
     66  CD2       15.8980   43.7530   25.8730 C.ar  150  TRP150      0.0152
     67  NE1       14.2510   42.5500   24.9380 N.ar  150  TRP150     -0.2442
     68  CE2       15.5250   42.4620   25.4330 C.ar  150  TRP150      0.0810
     69  CE3       17.1800   43.9410   26.4290 C.ar  150  TRP150      0.0012
     70  CZ2       16.3840   41.3430   25.5380 C.ar  150  TRP150      0.0191
     71  CZ3       18.0510   42.8340   26.5040 C.ar  150  TRP150      0.0001
     72  CH2       17.6370   41.5490   26.0680 C.ar  150  TRP150      0.0015
     73  N          5.3830   54.6110   15.7810 N.3   236  GLU236     -0.1245
     74  CA         4.3050   53.6940   16.1840 C.3   236  GLU236      0.1567
     75  C          3.0640   54.5170   15.8970 C.2   236  GLU236      0.2260
     76  O          3.0310   55.7070   16.2480 O.2   236  GLU236     -0.2867
     77  CB         4.3010   53.4380   17.6930 C.3   236  GLU236      0.0388
     78  CG         5.5650   52.9070   18.3390 C.3   236  GLU236      0.1160
     79  CD         5.4350   52.8970   19.8540 C.2   236  GLU236      0.3649
     80  OE1        4.6540   52.0600   20.3800 O.co2 236  GLU236     -0.2457
     81  OE2        6.0620   53.7510   20.5220 O.co2 236  GLU236     -0.2457
     82  N          3.5200   51.4080   24.8560 N.3   241  ALA241     -0.1245
     83  CA         3.9790   51.7020   26.2140 C.3   241  ALA241      0.1562
     84  C          3.8570   53.2000   26.5150 C.2   241  ALA241      0.2260
     85  O          3.4770   53.5970   27.6310 O.2   241  ALA241     -0.2867
     86  CB         5.4150   51.2260   26.4090 C.3   241  ALA241      0.0290
     87  N          6.4590   50.6100   13.2450 N.3   268  ASP268     -0.1239
     88  CA         6.6280   49.5340   14.2100 C.3   268  ASP268      0.1674
     89  C          5.2460   49.0080   14.5860 C.2   268  ASP268      0.2266
     90  O          4.4880   49.6900   15.2860 O.2   268  ASP268     -0.2867
     91  CB         7.3660   50.0780   15.4500 C.3   268  ASP268      0.1410
     92  CG         7.7370   48.9750   16.4540 C.2   268  ASP268      0.3668
     93  OD1        7.2220   47.8400   16.3370 O.co2 268  ASP268     -0.2456
     94  OD2        8.5620   49.2640   17.3480 O.co2 268  ASP268     -0.2456
     95  N          4.7500   46.0460   16.1600 N.3   270  VAL270     -0.1231
     96  CA         4.8690   44.9270   17.1100 C.3   270  VAL270      0.1692
     97  C          3.6830   44.9060   18.0540 C.2   270  VAL270      0.2591
     98  O          3.1520   43.8380   18.3500 O.2   270  VAL270     -0.2718
     99  CB         6.1850   44.9860   17.9260 C.3   270  VAL270      0.0266
    100  CG1        6.1570   43.9710   19.0780 C.3   270  VAL270      0.0020
    101  CG2        7.3660   44.7080   17.0100 C.3   270  VAL270      0.0020
    102  N          3.2580   46.0820   18.5200 N.am  271  LEU271     -0.1980
    103  CA         2.0820   46.1330   19.3770 C.3   271  LEU271      0.1596
    104  C          0.7650   46.2910   18.6100 C.2   271  LEU271      0.2287
    105  O         -0.2120   45.5850   18.9120 O.2   271  LEU271     -0.2864
    106  CB         2.2330   47.1950   20.4630 C.3   271  LEU271      0.0297
    107  CG         1.1900   47.1360   21.5860 C.3   271  LEU271      0.0022
    108  CD1        1.8370   47.3810   22.9500 C.3   271  LEU271      0.0001
    109  CD2        0.0660   48.1210   21.2970 C.3   271  LEU271      0.0001
    110  N          4.5780   39.9250   19.1620 N.3   297  LYS297     -0.1245
    111  CA         3.3230   39.8930   19.9850 C.3   297  LYS297      0.1561
    112  C          2.1850   39.1480   19.3010 C.2   297  LYS297      0.2260
    113  O          2.1760   37.9030   19.3030 O.2   297  LYS297     -0.2867
    114  CB         2.9560   41.3210   20.4270 C.3   297  LYS297      0.0271
    115  CG         4.0160   41.9100   21.3590 C.3   297  LYS297      0.0035
    116  CD         3.6480   43.2820   21.9280 C.3   297  LYS297      0.0206
    117  CE         4.5480   43.7000   23.1190 C.3   297  LYS297      0.1093
    118  NZ         5.3040   44.9190   22.7910 N.3   297  LYS297     -0.1314
@<TRIPOS>BOND
     1    87    88    1
     2    29    28    2
     3    88    89    1
     4    88    91    1
     5    89    90    2
     6    28    27    1
     7    27    26    1
     8    27    30    1
     9    91    92    1
    10    73    74    1
    11    75    74    1
    12    75    76    2
    13    95    96    1
    14    74    77    1
    15    93    92   ar
    16    30    31    1
    17    30    32    1
    18    92    94   ar
    19   101    99    1
    20    96    99    1
    21    96    97    1
    22    53    51   ar
    23    53    54   ar
    24    12    11    2
    25    19    18    2
    26    51    50   ar
    27    54    52   ar
    28    77    78    1
    29    23    22    2
    30    99   100    1
    31    97    98    2
    32    97   102   am
    33    52    50   ar
    34    50    49    1
    35    78    79    1
    36     9    10    1
    37    22    21    1
    38   102   103    1
    39    18    17    1
    40    18    20   am
    41    11    16   am
    42    11    10    1
    43    17    16    1
    44   104   105    2
    45   104   103    1
    46    49    46    1
    47   110   111    1
    48    10    13    1
    49   112   113    2
    50   112   111    1
    51   103   106    1
    52    20    21    1
    53    21    24    1
    54    48    47    2
    55    79    80   ar
    56    79    81   ar
    57   111   114    1
    58    46    47    1
    59    46    45    1
    60    14    13    1
    61   114   115    1
    62   106   107    1
    63    47    55   am
    64    13    15    1
    65    36    35    2
    66    24    25    1
    67    45    35   am
    68   109   107    1
    69   115   116    1
    70    35    34    1
    71   107   108    1
    72    55    56    1
    73   116   117    1
    74    33    34    1
    75    56    57    1
    76    34    37    1
    77   118   117    1
    78    57    58    2
    79    57    59   am
    80    59    60    1
    81    37    38    1
    82    40    38   ar
    83    40    42   ar
    84    38    39   ar
    85    42    43   ar
    86    61    60    1
    87    61    62    2
    88    60    63    1
    89    82    83    1
    90     4     3    2
    91    67    65   ar
    92    67    68   ar
    93    65    64   ar
    94    39    41   ar
    95    43    41   ar
    96    43    44    1
    97    68    70   ar
    98    68    66   ar
    99    70    72   ar
   100    64    66   ar
   101    64    63    1
   102    66    69   ar
   103     3     2    1
   104    72    71   ar
   105    83    86    1
   106    83    84    1
   107    69    71   ar
   108    84    85    2
   109     5     2    1
   110     5     6    1
   111     2     1    1
   112     7     6    1
   113     6     8    1
