@<TRIPOS>MOLECULE
tmp/5g0aC03.pdb
 86 81 0 0 0
SMALL
GASTEIGER

@<TRIPOS>ATOM
      1  N         33.0280   69.2200   35.6570 N.3   129  TYR129     -0.1227
      2  CA        32.3880   69.8080   36.8640 C.3   129  TYR129      0.1736
      3  C         31.1160   69.0430   37.2440 C.2   129  TYR129      0.2596
      4  O         30.9100   68.7070   38.4210 O.2   129  TYR129     -0.2718
      5  CB        32.0890   71.2890   36.6730 C.3   129  TYR129      0.0548
      6  CG        31.3640   71.8790   37.8690 C.ar  129  TYR129     -0.0200
      7  CD1       32.0780   72.2520   39.0070 C.ar  129  TYR129     -0.0009
      8  CD2       29.9680   72.0070   37.8720 C.ar  129  TYR129     -0.0009
      9  CE1       31.4150   72.7660   40.1140 C.ar  129  TYR129      0.0417
     10  CE2       29.3010   72.4920   38.9840 C.ar  129  TYR129      0.0417
     11  CZ        30.0410   72.8980   40.0770 C.ar  129  TYR129      0.1957
     12  OH        29.3800   73.3780   41.1840 O.3   129  TYR129     -0.2866
     13  N         30.2840   68.7440   36.2500 N.am  130  THR130     -0.1953
     14  CA        28.9940   68.0920   36.5100 C.3   130  THR130      0.1897
     15  C         29.1540   66.5880   36.5940 C.2   130  THR130      0.2313
     16  O         28.2840   65.9030   37.1540 O.2   130  THR130     -0.2863
     17  CB        27.9360   68.4430   35.4360 C.3   130  THR130      0.1794
     18  OG1       28.4040   68.0180   34.1430 O.3   130  THR130     -0.2208
     19  CG2       27.6820   69.9430   35.4130 C.3   130  THR130      0.0378
     20  N         28.8910   64.8310   33.9120 N.3   132  ARG132     -0.1245
     21  CA        27.8040   64.4010   33.0060 C.3   132  ARG132      0.1563
     22  C         28.2270   64.6160   31.5510 C.2   132  ARG132      0.2260
     23  O         28.9890   65.5340   31.2490 O.2   132  ARG132     -0.2867
     24  CB        26.5160   65.2090   33.2600 C.3   132  ARG132      0.0307
     25  CG        25.9900   65.1890   34.6960 C.3   132  ARG132      0.0489
     26  CD        24.8730   66.2180   34.8130 C.3   132  ARG132      0.2205
     27  NE        24.4700   66.4650   36.2010 N.pl3 132  ARG132     -0.0865
     28  CZ        23.8170   67.5610   36.5770 C.cat 132  ARG132      0.5346
     29  NH1       23.5030   68.4900   35.6800 N.pl3 132  ARG132      0.1354
     30  NH2       23.4780   67.7370   37.8550 N.pl3 132  ARG132      0.1354
     31  N         18.9530   76.7530   35.8730 N.3   254  LYS254     -0.1245
     32  CA        18.9960   76.7660   37.3520 C.3   254  LYS254      0.1561
     33  C         18.0440   75.7350   37.9810 C.2   254  LYS254      0.2260
     34  O         18.4340   74.9680   38.8700 O.2   254  LYS254     -0.2867
     35  CB        18.6730   78.1710   37.9030 C.3   254  LYS254      0.0271
     36  CG        19.7650   79.2210   37.7670 C.3   254  LYS254      0.0035
     37  CD        20.9200   78.9810   38.7270 C.3   254  LYS254      0.0206
     38  CE        21.9440   80.1090   38.6060 C.3   254  LYS254      0.1093
     39  NZ        23.1240   79.8100   39.4580 N.3   254  LYS254     -0.1314
     40  N         19.1990   72.1930   37.3910 N.3   257  GLY257     -0.1210
     41  CA        20.5400   71.9110   37.9140 C.3   257  GLY257      0.1956
     42  C         21.5620   71.6600   36.8110 C.2   257  GLY257      0.2612
     43  O         22.4310   70.8180   36.9590 O.2   257  GLY257     -0.2717
     44  N         21.4390   72.4050   35.7170 N.am  258  VAL258     -0.1965
     45  CA        22.2910   72.2390   34.5310 C.3   258  VAL258      0.1727
     46  C         23.0780   73.5430   34.3660 C.2   258  VAL258      0.2616
     47  O         22.5580   74.6240   34.6770 O.2   258  VAL258     -0.2715
     48  CB        21.3760   71.9540   33.3120 C.3   258  VAL258      0.0290
     49  CG1       22.0670   72.1600   31.9660 C.3   258  VAL258      0.0023
     50  CG2       20.7630   70.5530   33.4250 C.3   258  VAL258      0.0023
     51  N         24.3300   73.4650   33.9020 N.am  259  LEU259     -0.1977
     52  CA        25.1020   74.6900   33.6360 C.3   259  LEU259      0.1596
     53  C         24.6280   75.4640   32.4060 C.2   259  LEU259      0.2287
     54  O         24.0470   74.9050   31.4610 O.2   259  LEU259     -0.2864
     55  CB        26.6030   74.3730   33.4760 C.3   259  LEU259      0.0297
     56  CG        27.2650   73.7030   34.6770 C.3   259  LEU259      0.0022
     57  CD1       28.7210   73.3480   34.3450 C.3   259  LEU259      0.0001
     58  CD2       27.1940   74.6610   35.8930 C.3   259  LEU259      0.0001
     59  N         27.2510   80.5300   33.7710 N.3   286  ASP286     -0.1239
     60  CA        28.2040   79.7580   34.5570 C.3   286  ASP286      0.1674
     61  C         29.5960   79.7620   33.9380 C.2   286  ASP286      0.2266
     62  O         30.5920   79.6820   34.6570 O.2   286  ASP286     -0.2867
     63  CB        27.7140   78.3180   34.7260 C.3   286  ASP286      0.1410
     64  CG        26.3800   78.2590   35.4660 C.2   286  ASP286      0.3668
     65  OD1       26.3850   78.4920   36.6940 O.co2 286  ASP286     -0.2456
     66  OD2       25.3460   78.0200   34.8310 O.co2 286  ASP286     -0.2456
     67  N         32.3790   79.0010   41.6700 N.3   309  GLU309     -0.1245
     68  CA        32.0810   77.6540   42.0910 C.3   309  GLU309      0.1567
     69  C         32.8040   76.6100   41.2140 C.2   309  GLU309      0.2260
     70  O         33.3770   75.6500   41.7370 O.2   309  GLU309     -0.2867
     71  CB        30.5500   77.5090   42.0870 C.3   309  GLU309      0.0388
     72  CG        29.9670   76.2160   41.5980 C.3   309  GLU309      0.1160
     73  CD        28.4540   76.2620   41.5730 C.2   309  GLU309      0.3649
     74  OE1       27.8530   76.3400   42.6730 O.co2 309  GLU309     -0.2457
     75  OE2       27.8750   76.2340   40.4590 O.co2 309  GLU309     -0.2457
     76  N         36.1440   74.0200   42.2790 N.3   313  PHE313     -0.1241
     77  CA        36.1720   72.5870   42.0350 C.3   313  PHE313      0.1605
     78  C         37.4470   72.2260   41.2500 C.2   313  PHE313      0.2264
     79  O         38.2080   71.3460   41.6580 O.2   313  PHE313     -0.2867
     80  CB        34.8960   72.1680   41.2910 C.3   313  PHE313      0.0534
     81  CG        34.9670   70.7870   40.6860 C.ar  313  PHE313     -0.0203
     82  CD1       35.4650   70.6020   39.3960 C.ar  313  PHE313     -0.0042
     83  CD2       34.5630   69.6650   41.4170 C.ar  313  PHE313     -0.0042
     84  CE1       35.5520   69.3180   38.8400 C.ar  313  PHE313     -0.0003
     85  CE2       34.6440   68.3780   40.8630 C.ar  313  PHE313     -0.0003
     86  CZ        35.1320   68.2040   39.5740 C.ar  313  PHE313     -0.0000
@<TRIPOS>BOND
     1    23    22    2
     2    54    53    2
     3    22    21    1
     4    49    48    1
     5    53    52    1
     6    21    24    1
     7    21    20    1
     8    24    25    1
     9    48    50    1
    10    48    45    1
    11    55    52    1
    12    55    56    1
    13    52    51    1
    14    59    60    1
    15    51    46   am
    16    61    60    1
    17    61    62    2
    18    18    17    1
    19    57    56    1
    20    46    45    1
    21    46    47    2
    22    45    44    1
    23    60    63    1
    24    56    58    1
    25    25    26    1
    26    63    64    1
    27    26    27    1
    28    66    64   ar
    29    19    17    1
    30    17    14    1
    31    64    65   ar
    32     1     2    1
    33    29    28    1
    34    44    42   am
    35    31    32    1
    36    27    28    2
    37    13    14    1
    38    13     3   am
    39    14    15    1
    40    28    30    1
    41    15    16    2
    42     5     2    1
    43     5     6    1
    44    42    43    2
    45    42    41    1
    46     2     3    1
    47     3     4    2
    48    32    35    1
    49    32    33    1
    50    40    41    1
    51    36    35    1
    52    36    37    1
    53     6     8   ar
    54     6     7   ar
    55     8    10   ar
    56    33    34    2
    57    38    37    1
    58    38    39    1
    59    84    82   ar
    60    84    86   ar
    61    10    11   ar
    62     7     9   ar
    63    82    81   ar
    64    86    85   ar
    65    11     9   ar
    66    11    12    1
    67    75    73   ar
    68    81    80    1
    69    81    83   ar
    70    85    83   ar
    71    69    70    2
    72    69    68    1
    73    78    79    2
    74    78    77    1
    75    80    77    1
    76    73    72    1
    77    73    74   ar
    78    72    71    1
    79    67    68    1
    80    77    76    1
    81    71    68    1
