@<TRIPOS>MOLECULE
tmp/5g0aB03.pdb
 97 91 0 0 0
SMALL
GASTEIGER

@<TRIPOS>ATOM
      1  N         20.0840   49.6590    2.9880 N.3   134  TYR134     -0.1227
      2  CA        19.4300   50.0220    1.7020 C.3   134  TYR134      0.1736
      3  C         19.7690   51.4600    1.3060 C.2   134  TYR134      0.2596
      4  O         20.0890   51.7630    0.1320 O.2   134  TYR134     -0.2718
      5  CB        17.9050   49.8410    1.8330 C.3   134  TYR134      0.0548
      6  CG        17.1670   50.2960    0.5950 C.ar  134  TYR134     -0.0200
      7  CD1       17.1170   49.4890   -0.5370 C.ar  134  TYR134     -0.0009
      8  CD2       16.5760   51.5570    0.5610 C.ar  134  TYR134     -0.0009
      9  CE1       16.4620   49.9310   -1.6820 C.ar  134  TYR134      0.0417
     10  CE2       15.9110   52.0040   -0.5750 C.ar  134  TYR134      0.0417
     11  CZ        15.8710   51.1900   -1.6750 C.ar  134  TYR134      0.1957
     12  OH        15.2120   51.6760   -2.7890 O.3   134  TYR134     -0.2866
     13  N         19.6620   52.3570    2.2750 N.am  135  THR135     -0.1953
     14  CA        19.8910   53.7770    1.9880 C.3   135  THR135      0.1897
     15  C         21.3760   54.1080    1.9780 C.2   135  THR135      0.2313
     16  O         21.7730   55.1470    1.4380 O.2   135  THR135     -0.2863
     17  CB        19.2000   54.6900    2.9980 C.3   135  THR135      0.1794
     18  OG1       19.7350   54.4220    4.3160 O.3   135  THR135     -0.2208
     19  CG2       17.6160   54.5330    2.9690 C.3   135  THR135      0.0378
     20  N         22.9350   54.9650    4.7040 N.3   137  ARG137     -0.1245
     21  CA        22.8950   56.1760    5.5430 C.3   137  ARG137      0.1563
     22  C         22.7570   55.7790    7.0100 C.2   137  ARG137      0.2260
     23  O         22.0990   54.7730    7.3050 O.2   137  ARG137     -0.2867
     24  CB        21.6900   57.0600    5.2040 C.3   137  ARG137      0.0307
     25  CG        21.6520   57.5740    3.7680 C.3   137  ARG137      0.0489
     26  CD        20.3520   58.3280    3.5890 C.3   137  ARG137      0.2205
     27  NE        20.1060   58.5740    2.1640 N.pl3 137  ARG137     -0.0865
     28  CZ        18.9060   58.9160    1.6850 C.cat 137  ARG137      0.5346
     29  NH1       17.8710   59.0290    2.5130 N.pl3 137  ARG137      0.1354
     30  NH2       18.7520   59.1110    0.3640 N.pl3 137  ARG137      0.1354
     31  N          4.2240   60.1560    6.1490 N.3   255  ARG255     -0.1245
     32  CA         4.4220   59.4040    4.9230 C.3   255  ARG255      0.1563
     33  C          4.8190   60.3520    3.7820 C.2   255  ARG255      0.2260
     34  O          5.7570   60.0870    3.0360 O.2   255  ARG255     -0.2867
     35  CB         3.1640   58.5890    4.5700 C.3   255  ARG255      0.0307
     36  CG         3.1870   57.9870    3.1730 C.3   255  ARG255      0.0489
     37  CD         4.1150   56.7840    3.0140 C.3   255  ARG255      0.2205
     38  NE         5.5430   57.1410    3.0240 N.pl3 255  ARG255     -0.0865
     39  CZ         6.5430   56.2690    2.8820 C.cat 255  ARG255      0.5346
     40  NH1        6.3130   54.9750    2.6970 N.pl3 255  ARG255      0.1354
     41  NH2        7.8000   56.7060    2.9100 N.pl3 255  ARG255      0.1354
     42  N          8.5870   60.6410    1.8970 N.3   259  LYS259     -0.1245
     43  CA         8.6590   60.5200    0.4380 C.3   259  LYS259      0.1561
     44  C          9.3300   61.7630   -0.1710 C.2   259  LYS259      0.2260
     45  O         10.1780   61.6320   -1.0520 O.2   259  LYS259     -0.2867
     46  CB         7.2570   60.3900   -0.1650 C.3   259  LYS259      0.0271
     47  CG         6.5610   59.0340    0.0160 C.3   259  LYS259      0.0035
     48  CD         7.2060   57.9220   -0.7970 C.3   259  LYS259      0.0206
     49  CE         6.3200   56.6730   -0.7770 C.3   259  LYS259      0.1093
     50  NZ         6.9620   55.5540   -1.5190 N.3   259  LYS259     -0.1314
     51  N         13.0840   61.7700    0.6490 N.3   262  GLY262     -0.1210
     52  CA        13.8170   60.6110    0.1400 C.3   262  GLY262      0.1956
     53  C         14.3360   59.7480    1.2850 C.2   262  GLY262      0.2612
     54  O         15.4460   59.2070    1.2090 O.2   262  GLY262     -0.2717
     55  N         13.5020   59.6020    2.3110 N.am  263  VAL263     -0.1965
     56  CA        13.8560   58.8920    3.5630 C.3   263  VAL263      0.1727
     57  C         12.8320   57.7650    3.7180 C.2   263  VAL263      0.2616
     58  O         11.6680   57.9170    3.3110 O.2   263  VAL263     -0.2715
     59  CB        13.8200   59.9090    4.7300 C.3   263  VAL263      0.0290
     60  CG1       13.7570   59.2620    6.1080 C.3   263  VAL263      0.0023
     61  CG2       15.0060   60.8810    4.6140 C.3   263  VAL263      0.0023
     62  N         13.2660   56.6230    4.2420 N.am  264  LEU264     -0.1977
     63  CA        12.3370   55.5290    4.5010 C.3   264  LEU264      0.1596
     64  C         11.4090   55.8010    5.6940 C.2   264  LEU264      0.2287
     65  O         11.7420   56.5540    6.6100 O.2   264  LEU264     -0.2864
     66  CB        13.1040   54.2080    4.7090 C.3   264  LEU264      0.0297
     67  CG        13.9510   53.6800    3.5600 C.3   264  LEU264      0.0022
     68  CD1       14.7220   52.4310    4.0130 C.3   264  LEU264      0.0001
     69  CD2       13.1020   53.3940    2.2990 C.3   264  LEU264      0.0001
     70  N          7.4520   51.6420    4.2290 N.3   291  ASP291     -0.1239
     71  CA         8.5210   50.9590    3.5080 C.3   291  ASP291      0.1674
     72  C          8.9210   49.6590    4.2040 C.2   291  ASP291      0.2266
     73  O          9.3750   48.7080    3.5690 O.2   291  ASP291     -0.2867
     74  CB         9.7500   51.8800    3.4190 C.3   291  ASP291      0.1410
     75  CG         9.4660   53.1320    2.5980 C.2   291  ASP291      0.3668
     76  OD1        9.3780   53.0050    1.3560 O.co2 291  ASP291     -0.2456
     77  OD2        9.3190   54.2120    3.1850 O.co2 291  ASP291     -0.2456
     78  N         10.8960   47.0970   -3.3140 N.3   314  GLU314     -0.1245
     79  CA        12.1370   47.7480   -3.7480 C.3   314  GLU314      0.1567
     80  C         13.2970   47.4250   -2.7900 C.2   314  GLU314      0.2260
     81  O         14.4020   47.1830   -3.2370 O.2   314  GLU314     -0.2867
     82  CB        11.9720   49.2570   -4.0090 C.3   314  GLU314      0.0388
     83  CG        11.8850   50.1390   -2.7950 C.3   314  GLU314      0.1160
     84  CD        11.9810   51.6360   -3.1020 C.2   314  GLU314      0.3649
     85  OE1       12.1820   52.0580   -4.2810 O.co2 314  GLU314     -0.2457
     86  OE2       11.8420   52.3950   -2.1340 O.co2 314  GLU314     -0.2457
     87  N         16.7870   45.0330   -3.6610 N.3   318  PHE318     -0.1241
     88  CA        18.1330   45.4760   -3.3420 C.3   318  PHE318      0.1605
     89  C         18.8530   44.4180   -2.5110 C.2   318  PHE318      0.2264
     90  O         19.9470   43.9720   -2.8650 O.2   318  PHE318     -0.2867
     91  CB        18.0900   46.8040   -2.5880 C.3   318  PHE318      0.0534
     92  CG        19.4140   47.1880   -1.9710 C.ar  318  PHE318     -0.0203
     93  CD1       20.3980   47.8280   -2.7260 C.ar  318  PHE318     -0.0042
     94  CD2       19.6750   46.9050   -0.6250 C.ar  318  PHE318     -0.0042
     95  CE1       21.6060   48.2000   -2.1460 C.ar  318  PHE318     -0.0003
     96  CE2       20.8940   47.2680   -0.0470 C.ar  318  PHE318     -0.0003
     97  CZ        21.8570   47.9170   -0.8080 C.ar  318  PHE318     -0.0000
@<TRIPOS>BOND
     1    85    84   ar
     2    82    79    1
     3    82    83    1
     4    79    78    1
     5    79    80    1
     6    87    88    1
     7    88    91    1
     8    88    89    1
     9    81    80    2
    10    84    83    1
    11    84    86   ar
    12    90    89    2
    13    12    11    1
    14    93    95   ar
    15    93    92   ar
    16    91    92    1
    17    95    97   ar
    18    92    94   ar
    19     9    11   ar
    20     9     7   ar
    21    11    10   ar
    22    50    49    1
    23    45    44    2
    24    97    96   ar
    25    48    49    1
    26    48    47    1
    27    94    96   ar
    28    10     8   ar
    29     7     6   ar
    30    44    43    1
    31    46    47    1
    32    46    43    1
    33     4     3    2
    34    52    51    1
    35    52    53    1
    36    30    28    1
    37    43    42    1
    38     8     6   ar
    39     6     5    1
    40    54    53    2
    41    53    55   am
    42     3     2    1
    43     3    13   am
    44    76    75   ar
    45    16    15    2
    46    28    27    2
    47    28    29    1
    48     2     5    1
    49     2     1    1
    50    15    14    1
    51    14    13    1
    52    14    17    1
    53    27    26    1
    54    69    67    1
    55    55    56    1
    56    75    77   ar
    57    75    74    1
    58    40    39    1
    59    39    41    1
    60    39    38    2
    61    19    17    1
    62    17    18    1
    63    37    38    1
    64    37    36    1
    65    34    33    2
    66    36    35    1
    67    58    57    2
    68    74    71    1
    69    71    72    1
    70    71    70    1
    71    67    68    1
    72    67    66    1
    73    56    57    1
    74    56    59    1
    75    73    72    2
    76    26    25    1
    77    57    62   am
    78    25    24    1
    79    33    32    1
    80    62    63    1
    81    63    66    1
    82    63    64    1
    83    35    32    1
    84    61    59    1
    85    20    21    1
    86    59    60    1
    87    32    31    1
    88    24    21    1
    89    21    22    1
    90    64    65    2
    91    22    23    2
