@<TRIPOS>MOLECULE
tmp/5g0aA01.pdb
 140 132 0 0 0
SMALL
GASTEIGER

@<TRIPOS>ATOM
      1  N         23.3790   35.0300    3.2390 N.3    19  PHE19      -0.1241
      2  CA        24.5940   34.3650    2.7310 C.3    19  PHE19       0.1605
      3  C         24.5820   34.0590    1.2300 C.2    19  PHE19       0.2264
      4  O         25.6450   33.9620    0.6190 O.2    19  PHE19      -0.2867
      5  CB        24.9710   33.1420    3.5770 C.3    19  PHE19       0.0534
      6  CG        25.2060   33.4990    5.0310 C.ar   19  PHE19      -0.0203
      7  CD1       26.4180   34.0530    5.4280 C.ar   19  PHE19      -0.0042
      8  CD2       24.1850   33.3480    5.9650 C.ar   19  PHE19      -0.0042
      9  CE1       26.6280   34.4230    6.7590 C.ar   19  PHE19      -0.0003
     10  CE2       24.3720   33.7210    7.2980 C.ar   19  PHE19      -0.0003
     11  CZ        25.5910   34.2600    7.6890 C.ar   19  PHE19      -0.0000
     12  N         16.9220   24.4830    0.2680 N.3    28  VAL28      -0.1245
     13  CA        17.2090   23.1300    0.7460 C.3    28  VAL28       0.1561
     14  C         16.1200   22.7380    1.7440 C.2    28  VAL28       0.2260
     15  O         16.2180   23.0470    2.9460 O.2    28  VAL28      -0.2867
     16  CB        18.6340   23.0270    1.3600 C.3    28  VAL28       0.0252
     17  CG1       18.9370   21.6090    1.8200 C.3    28  VAL28       0.0019
     18  CG2       19.6850   23.4890    0.3440 C.3    28  VAL28       0.0019
     19  N         27.2530   19.4510   11.5510 N.3    50  PHE50      -0.1241
     20  CA        27.2820   20.7910   12.1190 C.3    50  PHE50       0.1605
     21  C         26.3560   20.9030   13.3510 C.2    50  PHE50       0.2264
     22  O         26.3900   21.9230   14.0390 O.2    50  PHE50      -0.2867
     23  CB        26.7870   21.8230   11.1030 C.3    50  PHE50       0.0534
     24  CG        27.6700   21.9710    9.8850 C.ar   50  PHE50      -0.0203
     25  CD1       28.7660   22.8430    9.8980 C.ar   50  PHE50      -0.0042
     26  CD2       27.3800   21.2590    8.7240 C.ar   50  PHE50      -0.0042
     27  CE1       29.5640   22.9840    8.7590 C.ar   50  PHE50      -0.0003
     28  CE2       28.1700   21.4110    7.5870 C.ar   50  PHE50      -0.0003
     29  CZ        29.2700   22.2540    7.6150 C.ar   50  PHE50      -0.0000
     30  N         23.3330   21.5780   13.2350 N.3    52  GLN52      -0.1231
     31  CA        22.7690   22.8740   12.8050 C.3    52  GLN52       0.1698
     32  C         23.7600   24.0170   13.0270 C.2    52  GLN52       0.2592
     33  O         24.5790   24.3160   12.1440 O.2    52  GLN52      -0.2718
     34  CB        21.3810   23.1110   13.4630 C.3    52  GLN52       0.0381
     35  CG        20.3630   22.1230   12.8980 C.3    52  GLN52       0.0905
     36  CD        20.2080   22.3330   11.3970 C.2    52  GLN52       0.2608
     37  OE1       19.7090   23.3640   10.9640 O.2    52  GLN52      -0.2717
     38  NE2       20.6470   21.3490   10.5940 N.am   52  GLN52      -0.0878
     39  N         23.6830   24.6440   14.1940 N.am   53  LEU53      -0.1966
     40  CA        24.6260   25.6990   14.5940 C.3    53  LEU53       0.1728
     41  C         25.2330   25.3260   15.9490 C.2    53  LEU53       0.2616
     42  O         25.3160   26.1460   16.8600 O.2    53  LEU53      -0.2715
     43  CB        23.9520   27.0790   14.6300 C.3    53  LEU53       0.0311
     44  CG        23.3360   27.5710   13.3080 C.3    53  LEU53       0.0022
     45  CD1       22.4080   28.7600   13.5800 C.3    53  LEU53       0.0001
     46  CD2       24.4500   27.9410   12.3260 C.3    53  LEU53       0.0001
     47  N         25.6830   24.0700   16.0450 N.am   54  TYR54      -0.1974
     48  CA        26.2890   23.5280   17.2630 C.3    54  TYR54       0.1639
     49  C         25.3510   23.7380   18.4220 C.2    54  TYR54       0.2290
     50  O         25.7780   24.1330   19.4950 O.2    54  TYR54      -0.2864
     51  CB        27.6710   24.1700   17.5250 C.3    54  TYR54       0.0560
     52  CG        28.4560   24.1920   16.2330 C.ar   54  TYR54      -0.0198
     53  CD1       29.1920   23.0680   15.8320 C.ar   54  TYR54      -0.0009
     54  CD2       28.3860   25.2850   15.3720 C.ar   54  TYR54      -0.0009
     55  CE1       29.8640   23.0570   14.6140 C.ar   54  TYR54       0.0417
     56  CE2       29.0500   25.2810   14.1440 C.ar   54  TYR54       0.0417
     57  CZ        29.7810   24.1650   13.7740 C.ar   54  TYR54       0.1957
     58  OH        30.4270   24.1650   12.5550 O.3    54  TYR54      -0.2866
     59  N         32.7140   35.9090   18.3360 N.3   142  TYR142     -0.1241
     60  CA        31.3160   36.0450   17.8940 C.3   142  TYR142      0.1605
     61  C         30.4240   35.9890   19.1280 C.2   142  TYR142      0.2264
     62  O         30.4640   35.0080   19.8800 O.2   142  TYR142     -0.2867
     63  CB        30.9210   34.9430   16.9000 C.3   142  TYR142      0.0534
     64  CG        29.4860   35.1780   16.4280 C.ar  142  TYR142     -0.0201
     65  CD1       29.2110   36.1630   15.4720 C.ar  142  TYR142     -0.0009
     66  CD2       28.4070   34.4790   16.9910 C.ar  142  TYR142     -0.0009
     67  CE1       27.9130   36.4340   15.0770 C.ar  142  TYR142      0.0417
     68  CE2       27.1000   34.7310   16.5810 C.ar  142  TYR142      0.0417
     69  CZ        26.8610   35.7210   15.6300 C.ar  142  TYR142      0.1957
     70  OH        25.5710   35.9840   15.2080 O.3   142  TYR142     -0.2866
     71  N         30.6670   38.0440    9.8050 N.3   158  TYR158     -0.1241
     72  CA        29.4230   37.7240   10.4960 C.3   158  TYR158      0.1605
     73  C         28.8550   38.9410   11.1880 C.2   158  TYR158      0.2264
     74  O         28.2720   38.8290   12.2690 O.2   158  TYR158     -0.2867
     75  CB        29.6360   36.5440   11.4800 C.3   158  TYR158      0.0534
     76  CG        29.5420   35.2290   10.7540 C.ar  158  TYR158     -0.0201
     77  CD1       28.2970   34.6120   10.5640 C.ar  158  TYR158     -0.0009
     78  CD2       30.6720   34.6410   10.1800 C.ar  158  TYR158     -0.0009
     79  CE1       28.1940   33.4300    9.8600 C.ar  158  TYR158      0.0417
     80  CE2       30.5670   33.4620    9.4650 C.ar  158  TYR158      0.0417
     81  CZ        29.3180   32.8750    9.3000 C.ar  158  TYR158      0.1957
     82  OH        29.2220   31.6910    8.6040 O.3   158  TYR158     -0.2866
     83  N         32.1670   30.4020   16.1370 N.3   236  ALA236     -0.1245
     84  CA        32.1890   30.7530   14.7120 C.3   236  ALA236      0.1562
     85  C         33.6030   31.0750   14.2600 C.2   236  ALA236      0.2260
     86  O         34.0270   30.6530   13.1690 O.2   236  ALA236     -0.2867
     87  CB        31.2530   31.9360   14.4630 C.3   236  ALA236      0.0290
     88  N         27.5300   28.8850   22.9410 N.3   266  LEU266     -0.1245
     89  CA        27.8670   27.7400   22.1100 C.3   266  LEU266      0.1561
     90  C         28.5340   26.6280   22.9470 C.2   266  LEU266      0.2260
     91  O         28.2270   25.4520   22.7450 O.2   266  LEU266     -0.2867
     92  CB        28.7690   28.1730   20.9280 C.3   266  LEU266      0.0270
     93  CG        28.9610   27.1070   19.8390 C.3   266  LEU266      0.0019
     94  CD1       29.0110   27.7790   18.4610 C.3   266  LEU266      0.0001
     95  CD2       30.2410   26.3280   20.1180 C.3   266  LEU266      0.0001
     96  N         21.3340   28.1910   22.6560 N.3   292  LYS292     -0.1245
     97  CA        21.6300   26.9250   21.9520 C.3   292  LYS292      0.1561
     98  C         21.3270   25.6700   22.7830 C.2   292  LYS292      0.2260
     99  O         20.1800   25.2650   22.8890 O.2   292  LYS292     -0.2867
    100  CB        23.0700   26.9850   21.4320 C.3   292  LYS292      0.0271
    101  CG        23.1820   28.0690   20.3330 C.3   292  LYS292      0.0035
    102  CD        24.5680   28.0790   19.6430 C.3   292  LYS292      0.0206
    103  CE        24.6650   29.0730   18.4350 C.3   292  LYS292      0.1093
    104  NZ        25.5470   30.2050   18.6890 N.3   292  LYS292     -0.1314
    105  N         34.4760   24.7560    2.0250 N.3   414  GLN414     -0.1245
    106  CA        33.3470   24.6140    1.1060 C.3   414  GLN414      0.1566
    107  C         33.5690   23.4040    0.1970 C.2   414  GLN414      0.2260
    108  O         32.6460   22.6270   -0.0590 O.2   414  GLN414     -0.2867
    109  CB        33.1450   25.8830    0.2550 C.3   414  GLN414      0.0367
    110  CG        32.5280   27.0790    0.9880 C.3   414  GLN414      0.0905
    111  CD        31.0950   26.8040    1.4100 C.2   414  GLN414      0.2608
    112  OE1       30.7580   26.8690    2.6070 O.2   414  GLN414     -0.2717
    113  NE2       30.2500   26.4610    0.4460 N.am  414  GLN414     -0.0878
    114  N         32.9900   20.2890    2.3120 N.3   417  MET417     -0.1245
    115  CA        31.5440   20.1100    2.5050 C.3   417  MET417      0.1570
    116  C         30.8180   19.5320    1.2830 C.2   417  MET417      0.2261
    117  O         30.0510   18.5630    1.3910 O.2   417  MET417     -0.2867
    118  CB        30.9050   21.4450    2.9210 C.3   417  MET417      0.0387
    119  CG        29.4720   21.3080    3.3790 C.3   417  MET417      0.0595
    120  SD        28.7270   22.9350    3.6350 S.3   417  MET417     -0.1393
    121  CE        28.3700   23.3270    1.9270 C.3   417  MET417      0.0692
    122  N         26.8470   15.9790    6.1440 N.3   426  LEU426     -0.1245
    123  CA        27.0660   17.4260    6.2270 C.3   426  LEU426      0.1561
    124  C         28.2010   17.6660    7.1880 C.2   426  LEU426      0.2260
    125  O         28.0660   17.4500    8.3940 O.2   426  LEU426     -0.2867
    126  CB        25.7990   18.1400    6.7330 C.3   426  LEU426      0.0270
    127  CG        24.5800   18.0510    5.8200 C.3   426  LEU426      0.0019
    128  CD1       23.2900   18.3180    6.5940 C.3   426  LEU426      0.0001
    129  CD2       24.7160   19.0320    4.6540 C.3   426  LEU426      0.0001
    130  N         32.9180   23.6790    7.7160 N.3   429  GLY429     -0.1210
    131  CA        33.2670   24.7380    8.6640 C.3   429  GLY429      0.1956
    132  C         32.6780   26.0770    8.2970 C.2   429  GLY429      0.2611
    133  O         32.0170   26.2080    7.2700 O.2   429  GLY429     -0.2717
    134  N         32.9390   27.0570    9.1600 N.am  430  VAL430     -0.1979
    135  CA        32.4180   28.4190    9.0790 C.3   430  VAL430      0.1595
    136  C         33.5010   29.3110    8.4530 C.2   430  VAL430      0.2287
    137  O         33.2110   30.2380    7.6800 O.2   430  VAL430     -0.2864
    138  CB        32.1350   28.9220   10.5450 C.3   430  VAL430      0.0276
    139  CG1       31.5070   30.2990   10.5680 C.3   430  VAL430      0.0022
    140  CG2       31.2620   27.9220   11.3080 C.3   430  VAL430      0.0022
@<TRIPOS>BOND
     1   108   107    2
     2   107   106    1
     3   109   110    1
     4   109   106    1
     5    12    13    1
     6    18    16    1
     7   113   111   am
     8     4     3    2
     9    13    16    1
    10    13    14    1
    11   110   111    1
    12   106   105    1
    13     3     2    1
    14   116   117    2
    15   116   115    1
    16    16    17    1
    17   111   112    2
    18    14    15    2
    19   121   120    1
    20   114   115    1
    21   115   118    1
    22     2     1    1
    23     2     5    1
    24   118   119    1
    25   119   120    1
    26     5     6    1
    27   129   127    1
    28     6     7   ar
    29     6     8   ar
    30     7     9   ar
    31   127   128    1
    32   127   126    1
    33     8    10   ar
    34   122   123    1
    35   123   126    1
    36   123   124    1
    37     9    11   ar
    38   124   125    2
    39   133   132    2
    40    10    11   ar
    41    28    29   ar
    42    28    26   ar
    43    29    27   ar
    44   137   136    2
    45   130   131    1
    46   132   131    1
    47   132   134   am
    48   136   135    1
    49    82    81    1
    50    26    24   ar
    51    27    25   ar
    52   135   134    1
    53   135   138    1
    54    81    80   ar
    55    81    79   ar
    56    80    78   ar
    57    71    72    1
    58    79    77   ar
    59    24    25   ar
    60    24    23    1
    61    78    76   ar
    62    72    73    1
    63    72    75    1
    64   138   139    1
    65   138   140    1
    66    77    76   ar
    67    38    36   am
    68    76    75    1
    69    37    36    2
    70    23    20    1
    71    73    74    2
    72    36    35    1
    73    19    20    1
    74    20    21    1
    75    33    32    2
    76    46    44    1
    77    58    57    1
    78    31    32    1
    79    31    30    1
    80    31    34    1
    81    35    34    1
    82    32    39   am
    83    86    85    2
    84    44    45    1
    85    44    43    1
    86    21    22    2
    87    57    56   ar
    88    57    55   ar
    89    56    54   ar
    90    39    40    1
    91    85    84    1
    92    87    84    1
    93    40    43    1
    94    40    41    1
    95    55    53   ar
    96    84    83    1
    97    67    65   ar
    98    67    69   ar
    99    70    69    1
   100    54    52   ar
   101    65    64   ar
   102    69    68   ar
   103    53    52   ar
   104    41    47   am
   105    41    42    2
   106    47    48    1
   107    52    51    1
   108    64    63    1
   109    64    66   ar
   110    68    66   ar
   111    63    60    1
   112    48    51    1
   113    48    49    1
   114    60    59    1
   115    60    61    1
   116    49    50    2
   117   103   104    1
   118   103   102    1
   119    94    93    1
   120    61    62    2
   121   102   101    1
   122    93    95    1
   123    93    92    1
   124   101   100    1
   125    92    89    1
   126   100    97    1
   127    97    96    1
   128    97    98    1
   129    89    88    1
   130    89    90    1
   131    91    90    2
   132    98    99    2
