@<TRIPOS>MOLECULE
tmp/5g0aB05.pdb
 100 94 0 0 0
SMALL
GASTEIGER

@<TRIPOS>ATOM
      1  N          6.7400   40.3350   45.7290 N.3    31  GLN31      -0.1245
      2  CA         5.9640   39.1490   46.0800 C.3    31  GLN31       0.1566
      3  C          5.6160   38.4190   44.7840 C.2    31  GLN31       0.2260
      4  O          4.9930   39.0110   43.9080 O.2    31  GLN31      -0.2867
      5  CB         4.6830   39.5390   46.8140 C.3    31  GLN31       0.0367
      6  CG         4.9090   40.2670   48.1340 C.3    31  GLN31       0.0905
      7  CD         3.6670   40.9810   48.6400 C.2    31  GLN31       0.2608
      8  OE1        3.2540   40.7880   49.7810 O.2    31  GLN31      -0.2717
      9  NE2        3.0700   41.8160   47.7960 N.am   31  GLN31      -0.0878
     10  N          3.7970   36.1520   41.9890 N.3    33  VAL33      -0.1245
     11  CA         2.3950   35.9390   41.6590 C.3    33  VAL33       0.1561
     12  C          2.3500   34.7200   40.7370 C.2    33  VAL33       0.2260
     13  O          2.4900   34.8530   39.5160 O.2    33  VAL33      -0.2867
     14  CB         1.7440   37.1920   41.0030 C.3    33  VAL33       0.0252
     15  CG1        0.3080   36.9180   40.5830 C.3    33  VAL33       0.0019
     16  CG2        1.7770   38.3910   41.9570 C.3    33  VAL33       0.0019
     17  N         -4.9620   43.5520   30.5870 N.3    55  PHE55      -0.1241
     18  CA        -3.7020   43.9470   29.9280 C.3    55  PHE55       0.1605
     19  C         -3.3920   43.0420   28.7410 C.2    55  PHE55       0.2264
     20  O         -2.5190   43.3950   27.9270 O.2    55  PHE55      -0.2867
     21  CB        -2.5220   43.8770   30.8810 C.3    55  PHE55       0.0534
     22  CG        -2.5980   44.8600   32.0080 C.ar   55  PHE55      -0.0203
     23  CD1       -2.1690   46.1640   31.8400 C.ar   55  PHE55      -0.0042
     24  CD2       -3.1060   44.4690   33.2450 C.ar   55  PHE55      -0.0042
     25  CE1       -2.2470   47.0740   32.8810 C.ar   55  PHE55      -0.0003
     26  CE2       -3.1790   45.3680   34.2960 C.ar   55  PHE55      -0.0003
     27  CZ        -2.7510   46.6780   34.1120 C.ar   55  PHE55      -0.0000
     28  N         -1.7660   40.4140   28.9830 N.3    57  GLN57      -0.1231
     29  CA        -0.3210   40.3660   29.3580 C.3    57  GLN57       0.1698
     30  C          0.4140   41.6510   28.9760 C.2    57  GLN57       0.2592
     31  O          0.4830   42.5710   29.7770 O.2    57  GLN57      -0.2718
     32  CB         0.3820   39.1110   28.8060 C.3    57  GLN57       0.0381
     33  CG        -0.1800   37.8410   29.4670 C.3    57  GLN57       0.0905
     34  CD         0.1080   37.8550   30.9550 C.2    57  GLN57       0.2608
     35  OE1        1.2510   37.7840   31.3680 O.2    57  GLN57      -0.2717
     36  NE2       -0.9450   37.9560   31.7740 N.am   57  GLN57      -0.0878
     37  N          0.9550   41.6900   27.7600 N.am   58  LEU58      -0.1966
     38  CA         1.6100   42.8890   27.2340 C.3    58  LEU58       0.1728
     39  C          0.9660   43.2290   25.9020 C.2    58  LEU58       0.2616
     40  O          1.6610   43.4800   24.9160 O.2    58  LEU58      -0.2715
     41  CB         3.1350   42.6590   27.1000 C.3    58  LEU58       0.0311
     42  CG         3.8500   42.4010   28.4420 C.3    58  LEU58       0.0022
     43  CD1        5.2900   41.9310   28.2130 C.3    58  LEU58       0.0001
     44  CD2        3.8340   43.6380   29.3380 C.3    58  LEU58       0.0001
     45  N         -0.3740   43.2330   25.8770 N.am   59  TYR59      -0.1974
     46  CA        -1.1390   43.5190   24.6600 C.3    59  TYR59       0.1639
     47  C         -0.6970   42.5900   23.5590 C.2    59  TYR59       0.2290
     48  O         -0.4930   43.0120   22.4310 O.2    59  TYR59      -0.2864
     49  CB        -0.9750   45.0060   24.2650 C.3    59  TYR59       0.0560
     50  CG        -1.1210   45.8730   25.4910 C.ar   59  TYR59      -0.0198
     51  CD1       -2.3810   46.1970   25.9690 C.ar   59  TYR59      -0.0009
     52  CD2       -0.0050   46.2780   26.2300 C.ar   59  TYR59      -0.0009
     53  CE1       -2.5370   46.9360   27.1370 C.ar   59  TYR59       0.0417
     54  CE2       -0.1490   47.0190   27.4000 C.ar   59  TYR59       0.0417
     55  CZ        -1.4120   47.3370   27.8440 C.ar   59  TYR59       0.1957
     56  OH        -1.5810   48.0790   28.9870 O.3    59  TYR59      -0.2866
     57  N         11.6190   53.0270   30.4570 N.3   163  TYR163     -0.1241
     58  CA        11.6980   51.6930   29.8910 C.3   163  TYR163      0.1605
     59  C         13.0020   51.4310   29.1460 C.2   163  TYR163      0.2264
     60  O         13.0300   50.6440   28.2030 O.2   163  TYR163     -0.2867
     61  CB        10.4620   51.4230   29.0080 C.3   163  TYR163      0.0534
     62  CG         9.2680   51.0280   29.8430 C.ar  163  TYR163     -0.0201
     63  CD1        9.0570   49.6920   30.1910 C.ar  163  TYR163     -0.0009
     64  CD2        8.3770   51.9860   30.3200 C.ar  163  TYR163     -0.0009
     65  CE1        7.9780   49.3230   30.9770 C.ar  163  TYR163      0.0417
     66  CE2        7.2880   51.6190   31.1010 C.ar  163  TYR163      0.0417
     67  CZ         7.1060   50.2920   31.4300 C.ar  163  TYR163      0.1957
     68  OH         6.0400   49.9050   32.2080 O.3   163  TYR163     -0.2866
     69  N          3.5200   51.4080   24.8560 N.3   241  ALA241     -0.1245
     70  CA         3.9790   51.7020   26.2140 C.3   241  ALA241      0.1562
     71  C          3.8570   53.2000   26.5150 C.2   241  ALA241      0.2260
     72  O          3.4770   53.5970   27.6310 O.2   241  ALA241     -0.2867
     73  CB         5.4150   51.2260   26.4090 C.3   241  ALA241      0.0290
     74  N         -5.5150   50.1080   39.3600 N.3   422  MET422     -0.1245
     75  CA        -5.1920   48.6780   39.2380 C.3   422  MET422      0.1570
     76  C         -5.4570   47.9440   40.5520 C.2   422  MET422      0.2261
     77  O         -6.1090   46.8980   40.5730 O.2   422  MET422     -0.2867
     78  CB        -3.7370   48.4790   38.7910 C.3   422  MET422      0.0387
     79  CG        -3.2910   47.0190   38.6970 C.3   422  MET422      0.0595
     80  SD        -1.5650   46.8660   38.1790 S.3   422  MET422     -0.1393
     81  CE        -0.7180   47.2740   39.7020 C.3   422  MET422      0.0692
     82  N         -7.7570   42.5530   36.2470 N.3   431  LEU431     -0.1245
     83  CA        -6.4620   43.2080   36.0180 C.3   431  LEU431      0.1561
     84  C         -6.6630   44.2870   34.9680 C.2   431  LEU431      0.2260
     85  O         -6.9430   43.9890   33.8120 O.2   431  LEU431     -0.2867
     86  CB        -5.4110   42.1840   35.5230 C.3   431  LEU431      0.0270
     87  CG        -5.1140   41.0300   36.4960 C.3   431  LEU431      0.0019
     88  CD1       -4.4170   39.8590   35.8120 C.3   431  LEU431      0.0001
     89  CD2       -4.2700   41.5360   37.6610 C.3   431  LEU431      0.0001
     90  N         -2.5520   50.6950   33.7020 N.3   434  GLY434     -0.1210
     91  CA        -1.7050   51.3030   32.6680 C.3   434  GLY434      0.1956
     92  C         -0.2200   51.2390   32.9650 C.2   434  GLY434      0.2611
     93  O          0.1950   50.8620   34.0660 O.2   434  GLY434     -0.2717
     94  N          0.5790   51.6210   31.9740 N.am  435  VAL435     -0.1979
     95  CA         2.0420   51.6380   32.1130 C.3   435  VAL435      0.1595
     96  C          2.5660   53.0270   32.4820 C.2   435  VAL435      0.2287
     97  O          3.5960   53.1620   33.1540 O.2   435  VAL435     -0.2864
     98  CB         2.7250   51.1310   30.8300 C.3   435  VAL435      0.0276
     99  CG1        2.3240   49.6940   30.5650 C.3   435  VAL435      0.0022
    100  CG2        2.3480   51.9720   29.6310 C.3   435  VAL435      0.0022
@<TRIPOS>BOND
     1    48    47    2
     2    47    46    1
     3    49    46    1
     4    49    50    1
     5    46    45    1
     6    69    70    1
     7    40    39    2
     8    50    51   ar
     9    50    52   ar
    10    45    39   am
    11    39    38    1
    12    51    53   ar
    13    70    73    1
    14    70    71    1
    15    52    54   ar
    16    71    72    2
    17    41    38    1
    18    41    42    1
    19    53    55   ar
    20    38    37    1
    21    54    55   ar
    22    37    30   am
    23    55    56    1
    24    20    19    2
    25    60    59    2
    26    43    42    1
    27    42    44    1
    28    19    18    1
    29    32    29    1
    30    32    33    1
    31    30    29    1
    32    30    31    2
    33    28    29    1
    34    61    62    1
    35    61    58    1
    36    59    58    1
    37    33    34    1
    38   100    98    1
    39    62    63   ar
    40    62    64   ar
    41    58    57    1
    42    18    17    1
    43    18    21    1
    44    63    65   ar
    45    64    66   ar
    46    99    98    1
    47    98    95    1
    48    21    22    1
    49    34    35    2
    50    34    36   am
    51    65    67   ar
    52    66    67   ar
    53    67    68    1
    54    23    22   ar
    55    23    25   ar
    56    94    95    1
    57    94    92   am
    58    22    24   ar
    59    95    96    1
    60    96    97    2
    61    91    92    1
    62    91    90    1
    63    25    27   ar
    64    92    93    2
    65    24    26   ar
    66    85    84    2
    67    27    26   ar
    68    84    83    1
    69    86    83    1
    70    86    87    1
    71    88    87    1
    72    83    82    1
    73    87    89    1
    74    80    79    1
    75    80    81    1
    76    79    78    1
    77    78    75    1
    78    75    74    1
    79    75    76    1
    80    13    12    2
    81    76    77    2
    82    15    14    1
    83    12    11    1
    84    14    11    1
    85    14    16    1
    86    11    10    1
    87     4     3    2
    88     3     2    1
    89     1     2    1
    90     2     5    1
    91     5     6    1
    92     9     7   am
    93     6     7    1
    94     7     8    2
