@<TRIPOS>MOLECULE
tmp/5g0iA01.pdb
 167 165 0 0 0
SMALL
GASTEIGER

@<TRIPOS>ATOM
      1  N        -34.5330  -35.0350   39.3610 N.3    22  ASP22      -0.1239
      2  CA       -33.9840  -33.6860   39.1380 C.3    22  ASP22       0.1674
      3  C        -32.4860  -33.7420   38.7420 C.2    22  ASP22       0.2266
      4  O        -31.6250  -33.9140   39.6150 O.2    22  ASP22      -0.2867
      5  CB       -34.2320  -32.7750   40.3770 C.3    22  ASP22       0.1410
      6  CG       -33.6180  -31.3640   40.3370 C.2    22  ASP22       0.3668
      7  OD1      -33.3240  -30.8620   39.2170 O.co2  22  ASP22      -0.2456
      8  OD2      -33.4370  -30.7630   41.4250 O.co2  22  ASP22      -0.2456
      9  N        -29.9770  -31.3840   40.5600 N.3    25  HIS25      -0.1227
     10  CA       -29.7600  -31.5360   42.0090 C.3    25  HIS25       0.1737
     11  C        -28.2990  -31.2470   42.3980 C.2    25  HIS25       0.2438
     12  O        -27.3890  -31.8290   41.8030 O.2    25  HIS25      -0.2733
     13  CB       -30.2400  -32.8880   42.5600 C.3    25  HIS25       0.0758
     14  CG       -30.5070  -32.8540   44.0400 C.ar   25  HIS25       0.0818
     15  ND1      -29.4700  -32.8310   44.9710 N.ar   25  HIS25      -0.2268
     16  CD2      -31.6850  -32.8020   44.7070 C.ar   25  HIS25       0.1154
     17  CE1      -30.0480  -32.7670   46.1640 C.ar   25  HIS25       0.1986
     18  NE2      -31.3780  -32.7550   46.0630 N.ar   25  HIS25      -0.2212
     19  N        -28.0660  -30.3040   43.3500 N.am   26  PRO26      -0.2729
     20  CA       -26.6810  -29.9610   43.7340 C.3    26  PRO26       0.1401
     21  C        -25.8770  -31.1130   44.3670 C.2    26  PRO26       0.2269
     22  O        -24.6560  -31.1620   44.1940 O.2    26  PRO26      -0.2865
     23  CB       -26.8620  -28.7770   44.7050 C.3    26  PRO26       0.0296
     24  CG       -28.2220  -28.9620   45.2650 C.3    26  PRO26       0.0237
     25  CD       -29.0460  -29.5280   44.1390 C.3    26  PRO26       0.0939
     26  N        -37.3580  -33.6000   55.2180 N.3    92  ASP92      -0.1225
     27  CA       -36.9780  -32.2850   54.6960 C.3    92  ASP92       0.1805
     28  C        -35.6730  -32.3600   53.8520 C.2    92  ASP92       0.2598
     29  O        -34.6690  -32.8850   54.3380 O.2    92  ASP92      -0.2718
     30  CB       -36.8410  -31.2700   55.8440 C.3    92  ASP92       0.1424
     31  CG       -36.4640  -29.8500   55.4330 C.2    92  ASP92       0.3668
     32  OD1      -36.8360  -29.4300   54.3050 O.co2  92  ASP92      -0.2456
     33  OD2      -35.8600  -29.1340   56.2630 O.co2  92  ASP92      -0.2456
     34  N        -35.7160  -31.8350   52.5940 N.am   93  SER93      -0.1952
     35  CA       -34.6100  -31.7220   51.6110 C.3    93  SER93       0.1924
     36  C        -33.7970  -33.0060   51.4690 C.2    93  SER93       0.2314
     37  O        -32.5990  -33.0590   51.7910 O.2    93  SER93      -0.2863
     38  CB       -33.6920  -30.5350   51.9180 C.3    93  SER93       0.2116
     39  OG       -34.4250  -29.3310   52.0910 O.3    93  SER93      -0.2180
     40  N        -23.4360  -36.9700   52.4850 N.3   133  PRO133     -0.2116
     41  CA       -22.9720  -36.3440   53.7440 C.3   133  PRO133      0.1372
     42  C        -23.7270  -36.9300   54.9500 C.2   133  PRO133      0.2244
     43  O        -24.6310  -37.7870   54.7940 O.2   133  PRO133     -0.2868
     44  CB       -23.2820  -34.8530   53.5300 C.3   133  PRO133      0.0268
     45  CG       -24.4460  -34.8490   52.5920 C.3   133  PRO133      0.0207
     46  CD       -24.2250  -36.0150   51.6690 C.3   133  PRO133      0.0892
     47  N        -23.9690  -34.9360   58.6360 N.3   135  HIS135     -0.1226
     48  CA       -24.2360  -34.1240   59.8380 C.3   135  HIS135      0.1752
     49  C        -25.7240  -33.7190   60.0950 C.2   135  HIS135      0.2596
     50  O        -26.0330  -33.4050   61.2520 O.2   135  HIS135     -0.2718
     51  CB       -23.2980  -32.9010   59.9320 C.3   135  HIS135      0.0759
     52  CG       -23.5290  -31.7680   58.9760 C.ar  135  HIS135      0.0818
     53  ND1      -23.1780  -30.4660   59.3180 N.ar  135  HIS135     -0.2268
     54  CD2      -24.0800  -31.7580   57.7400 C.ar  135  HIS135      0.1154
     55  CE1      -23.5020  -29.7200   58.2770 C.ar  135  HIS135      0.1986
     56  NE2      -24.0510  -30.4490   57.3080 N.ar  135  HIS135     -0.2212
     57  N        -26.6460  -33.8100   59.0900 N.am  136  HIS136     -0.1975
     58  CA       -28.0640  -33.4820   59.3400 C.3   136  HIS136      0.1656
     59  C        -28.8950  -34.6880   59.7600 C.2   136  HIS136      0.2291
     60  O        -29.9940  -34.5080   60.2840 O.2   136  HIS136     -0.2864
     61  CB       -28.7200  -32.8270   58.1140 C.3   136  HIS136      0.0771
     62  CG       -28.1230  -31.5130   57.7230 C.ar  136  HIS136      0.0820
     63  ND1      -28.1060  -30.4390   58.5960 N.ar  136  HIS136     -0.2267
     64  CD2      -27.5900  -31.1260   56.5420 C.ar  136  HIS136      0.1154
     65  CE1      -27.5090  -29.4590   57.9410 C.ar  136  HIS136      0.1986
     66  NE2      -27.2190  -29.8130   56.6940 N.ar  136  HIS136     -0.2212
     67  N        -31.6590  -33.0370   55.1130 N.3   144  GLY144     -0.1210
     68  CA       -30.6730  -32.2590   54.3590 C.3   144  GLY144      0.1956
     69  C        -29.6280  -33.0550   53.5910 C.2   144  GLY144      0.2611
     70  O        -28.4290  -32.8400   53.7900 O.2   144  GLY144     -0.2717
     71  N        -30.0950  -34.0170   52.7300 N.am  145  PHE145     -0.1976
     72  CA       -29.3100  -34.9120   51.8540 C.3   145  PHE145      0.1639
     73  C        -28.5500  -36.0340   52.6100 C.2   145  PHE145      0.2290
     74  O        -27.7470  -36.7520   52.0020 O.2   145  PHE145     -0.2864
     75  CB       -28.3360  -34.1240   50.9290 C.3   145  PHE145      0.0560
     76  CG       -28.7690  -32.8060   50.3100 C.ar  145  PHE145     -0.0200
     77  CD1      -30.0830  -32.6070   49.8910 C.ar  145  PHE145     -0.0042
     78  CD2      -27.8340  -31.8070   50.0400 C.ar  145  PHE145     -0.0042
     79  CE1      -30.4720  -31.3950   49.3040 C.ar  145  PHE145     -0.0003
     80  CE2      -28.2160  -30.6110   49.4110 C.ar  145  PHE145     -0.0003
     81  CZ       -29.5360  -30.4090   49.0660 C.ar  145  PHE145     -0.0000
     82  N        -18.9730  -26.6260   58.0020 N.3   173  ASP173     -0.1239
     83  CA       -19.9560  -26.5830   56.9120 C.3   173  ASP173      0.1674
     84  C        -20.8600  -25.3480   57.1880 C.2   173  ASP173      0.2266
     85  O        -21.0810  -25.0180   58.3570 O.2   173  ASP173     -0.2867
     86  CB       -20.7940  -27.8740   56.9360 C.3   173  ASP173      0.1410
     87  CG       -21.8470  -27.9730   55.8560 C.2   173  ASP173      0.3668
     88  OD1      -22.8820  -27.2690   55.9630 O.co2 173  ASP173     -0.2456
     89  OD2      -21.6650  -28.7770   54.9320 O.co2 173  ASP173     -0.2456
     90  N        -23.9840  -24.8890   57.0890 N.3   175  HIS175     -0.1241
     91  CA       -25.2260  -25.2300   57.7730 C.3   175  HIS175      0.1621
     92  C        -24.9490  -25.8020   59.1430 C.2   175  HIS175      0.2264
     93  O        -23.8950  -26.3960   59.3770 O.2   175  HIS175     -0.2867
     94  CB       -26.0550  -26.2400   56.9460 C.3   175  HIS175      0.0745
     95  CG       -26.4040  -25.7400   55.5850 C.ar  175  HIS175      0.0817
     96  ND1      -25.6790  -26.1070   54.4820 N.ar  175  HIS175     -0.2268
     97  CD2      -27.3610  -24.8650   55.2060 C.ar  175  HIS175      0.1154
     98  CE1      -26.2220  -25.4630   53.4620 C.ar  175  HIS175      0.1986
     99  NE2      -27.2280  -24.7000   53.8510 N.ar  175  HIS175     -0.2212
    100  N        -32.1400  -18.4480   57.8350 N.3   203  PHE203     -0.1227
    101  CA       -31.4160  -19.4010   57.0010 C.3   203  PHE203      0.1736
    102  C        -31.7140  -20.8420   57.4520 C.2   203  PHE203      0.2595
    103  O        -31.8070  -21.1050   58.6530 O.2   203  PHE203     -0.2718
    104  CB       -29.9040  -19.1090   57.0210 C.3   203  PHE203      0.0547
    105  CG       -29.0950  -19.8500   55.9820 C.ar  203  PHE203     -0.0202
    106  CD1      -29.2280  -19.5520   54.6270 C.ar  203  PHE203     -0.0042
    107  CD2      -28.1770  -20.8280   56.3590 C.ar  203  PHE203     -0.0042
    108  CE1      -28.4550  -20.2260   53.6670 C.ar  203  PHE203     -0.0003
    109  CE2      -27.3830  -21.4760   55.4060 C.ar  203  PHE203     -0.0003
    110  CZ       -27.5430  -21.1870   54.0640 C.ar  203  PHE203     -0.0000
    111  N        -31.8780  -21.7630   56.4730 N.am  204  TRP204     -0.1976
    112  CA       -32.1380  -23.1950   56.6850 C.3   204  TRP204      0.1640
    113  C        -31.0600  -23.8200   57.6350 C.2   204  TRP204      0.2290
    114  O        -29.8910  -23.4550   57.4880 O.2   204  TRP204     -0.2864
    115  CB       -32.1390  -23.9300   55.3220 C.3   204  TRP204      0.0576
    116  CG       -32.6440  -25.3390   55.4140 C.ar  204  TRP204      0.0006
    117  CD1      -33.9420  -25.7500   55.3110 C.ar  204  TRP204      0.0946
    118  CD2      -31.8790  -26.5040   55.7520 C.ar  204  TRP204      0.0152
    119  NE1      -34.0310  -27.1010   55.5400 N.ar  204  TRP204     -0.2442
    120  CE2      -32.7810  -27.5900   55.8290 C.ar  204  TRP204      0.0810
    121  CE3      -30.5160  -26.7350   56.0100 C.ar  204  TRP204      0.0012
    122  CZ2      -32.3650  -28.8920   56.1310 C.ar  204  TRP204      0.0191
    123  CZ3      -30.1110  -28.0150   56.3610 C.ar  204  TRP204      0.0001
    124  CH2      -31.0260  -29.0800   56.4050 C.ar  204  TRP204      0.0015
    125  N        -33.5860  -23.2670   59.8570 N.3   206  HIS206     -0.1241
    126  CA       -34.5580  -22.3870   60.5440 C.3   206  HIS206      0.1621
    127  C        -34.8980  -22.8350   61.9870 C.2   206  HIS206      0.2264
    128  O        -36.0670  -22.8170   62.3990 O.2   206  HIS206     -0.2867
    129  CB       -35.8660  -22.2100   59.7200 C.3   206  HIS206      0.0745
    130  CG       -35.6790  -22.1170   58.2390 C.ar  206  HIS206      0.0817
    131  ND1      -35.2590  -20.9460   57.6330 N.ar  206  HIS206     -0.2268
    132  CD2      -35.9070  -23.0470   57.2850 C.ar  206  HIS206      0.1154
    133  CE1      -35.2250  -21.2060   56.3370 C.ar  206  HIS206      0.1986
    134  NE2      -35.6080  -22.4560   56.0790 N.ar  206  HIS206     -0.2212
    135  N        -19.2990  -25.3810   51.7370 N.3   266  ASP266     -0.1239
    136  CA       -20.3380  -24.5020   51.2060 C.3   266  ASP266      0.1674
    137  C        -20.2130  -23.0580   51.7520 C.2   266  ASP266      0.2266
    138  O        -20.9740  -22.1870   51.3210 O.2   266  ASP266     -0.2867
    139  CB       -21.7660  -25.1000   51.3510 C.3   266  ASP266      0.1410
    140  CG       -22.0340  -25.9660   52.5820 C.2   266  ASP266      0.3668
    141  OD1      -21.2550  -25.8700   53.5700 O.co2 266  ASP266     -0.2456
    142  OD2      -23.0460  -26.7090   52.5760 O.co2 266  ASP266     -0.2456
    143  N        -25.1590  -21.9830   47.5980 N.3   273  LYS273     -0.1245
    144  CA       -25.9130  -22.2630   48.8280 C.3   273  LYS273      0.1561
    145  C        -25.4890  -21.4380   50.0490 C.2   273  LYS273      0.2260
    146  O        -26.3410  -21.1070   50.8870 O.2   273  LYS273     -0.2867
    147  CB       -25.7860  -23.7670   49.1960 C.3   273  LYS273      0.0271
    148  CG       -26.1990  -24.7360   48.0810 C.3   273  LYS273      0.0035
    149  CD       -27.4950  -25.4470   48.4230 C.3   273  LYS273      0.0206
    150  CE       -28.1520  -26.0420   47.2140 C.3   273  LYS273      0.1093
    151  NZ       -28.6850  -25.0080   46.2870 N.3   273  LYS273     -0.1314
    152  N        -21.1240  -30.8010   53.0380 N.3   304  GLY304     -0.1225
    153  CA       -21.6040  -30.0070   51.9060 C.3   304  GLY304      0.1811
    154  C        -20.4900  -29.3790   51.0840 C.2   304  GLY304      0.2280
    155  O        -19.3010  -29.6820   51.2640 O.2   304  GLY304     -0.2866
    156  N        -21.1300  -27.2490   47.1460 N.3   306  TYR306     -0.1241
    157  CA       -21.8560  -27.5020   45.8980 C.3   306  TYR306      0.1605
    158  C        -21.2880  -26.7850   44.6710 C.2   306  TYR306      0.2264
    159  O        -21.6710  -27.1080   43.5390 O.2   306  TYR306     -0.2867
    160  CB       -23.3530  -27.2170   46.1130 C.3   306  TYR306      0.0534
    161  CG       -23.8460  -28.0570   47.2700 C.ar  306  TYR306     -0.0201
    162  CD1      -24.0150  -29.4360   47.1280 C.ar  306  TYR306     -0.0009
    163  CD2      -23.9220  -27.5220   48.5610 C.ar  306  TYR306     -0.0009
    164  CE1      -24.3450  -30.2440   48.2130 C.ar  306  TYR306      0.0417
    165  CE2      -24.2470  -28.3240   49.6590 C.ar  306  TYR306      0.0417
    166  CZ       -24.4760  -29.6830   49.4730 C.ar  306  TYR306      0.1957
    167  OH       -24.7710  -30.5020   50.5280 O.3   306  TYR306     -0.2866
@<TRIPOS>BOND
     1     3     2    1
     2     3     4    2
     3     2     1    1
     4     2     5    1
     5     7     6   ar
     6     6     5    1
     7     6     8   ar
     8     9    10    1
     9    12    11    2
    10    10    11    1
    11    10    13    1
    12    11    19   am
    13    13    14    1
    14    19    20    1
    15    19    25    1
    16   159   158    2
    17    20    21    1
    18    20    23    1
    19    14    16   ar
    20    14    15   ar
    21    25    24    1
    22    22    21    2
    23   158   157    1
    24    23    24    1
    25    16    18   ar
    26    15    17   ar
    27   157   160    1
    28   157   156    1
    29    18    17   ar
    30   160   161    1
    31   151   150    1
    32   162   161   ar
    33   162   164   ar
    34   150   149    1
    35   161   163   ar
    36   143   144    1
    37   148   149    1
    38   148   147    1
    39   164   166   ar
    40   163   165   ar
    41   144   147    1
    42   144   145    1
    43    81    79   ar
    44    81    80   ar
    45    79    77   ar
    46    80    78   ar
    47   166   165   ar
    48   166   167    1
    49    77    76   ar
    50    78    76   ar
    51   145   146    2
    52    76    75    1
    53    75    72    1
    54   154   155    2
    55   154   153    1
    56   136   139    1
    57   136   135    1
    58   136   137    1
    59   138   137    2
    60   139   140    1
    61    36    35    1
    62    36    37    2
    63    35    38    1
    64    35    34    1
    65    46    40    1
    66    46    45    1
    67    72    73    1
    68    72    71    1
    69   153   152    1
    70    38    39    1
    71    74    73    2
    72    40    41    1
    73   142   140   ar
    74   140   141   ar
    75    45    44    1
    76    34    28   am
    77    71    69   am
    78    98    99   ar
    79    98    96   ar
    80    44    41    1
    81    69    70    2
    82    69    68    1
    83   108   110   ar
    84   108   106   ar
    85    41    42    1
    86    99    97   ar
    87    28    29    2
    88    28    27    1
    89   110   109   ar
    90    32    31   ar
    91    68    67    1
    92    96    95   ar
    93   106   105   ar
    94    27    26    1
    95    27    30    1
    96    43    42    2
    97    89    87   ar
    98    97    95   ar
    99   117   116   ar
   100   117   119   ar
   101   115   116    1
   102   115   112    1
   103   109   107   ar
   104   116   118   ar
   105    31    30    1
   106    31    33   ar
   107   119   120   ar
   108    95    94    1
   109   118   120   ar
   110   118   121   ar
   111   120   122   ar
   112    87    88   ar
   113    87    86    1
   114   105   107   ar
   115   105   104    1
   116   121   123   ar
   117   134   133   ar
   118   134   132   ar
   119   122   124   ar
   120   133   131   ar
   121   123   124   ar
   122   111   112    1
   123   111   102   am
   124    64    66   ar
   125    64    62   ar
   126   112   113    1
   127    66    65   ar
   128    83    86    1
   129    83    84    1
   130    83    82    1
   131    94    91    1
   132   101   104    1
   133   101   102    1
   134   101   100    1
   135    90    91    1
   136    84    85    2
   137   132   130   ar
   138    56    54   ar
   139    56    55   ar
   140   102   103    2
   141   114   113    2
   142   131   130   ar
   143    62    61    1
   144    62    63   ar
   145    54    52   ar
   146    91    92    1
   147    65    63   ar
   148    61    58    1
   149   130   129    1
   150    55    53   ar
   151    47    48    1
   152    52    53   ar
   153    52    51    1
   154    57    58    1
   155    57    49   am
   156    92    93    2
   157    58    59    1
   158   129   126    1
   159    59    60    2
   160    48    51    1
   161    48    49    1
   162   125   126    1
   163    49    50    2
   164   126   127    1
   165   127   128    2
