@<TRIPOS>MOLECULE
tmp/5g0iA00.pdb
 166 162 0 0 0
SMALL
GASTEIGER

@<TRIPOS>ATOM
      1  N         34.9300  -15.9360   86.1300 N.3   381  ASP381     -0.1239
      2  CA        33.9210  -16.8090   86.7230 C.3   381  ASP381      0.1674
      3  C         33.5420  -17.9060   85.7200 C.2   381  ASP381      0.2266
      4  O         32.6840  -17.6940   84.8620 O.2   381  ASP381     -0.2867
      5  CB        32.7000  -15.9760   87.1700 C.3   381  ASP381      0.1410
      6  CG        31.5400  -16.7550   87.7670 C.2   381  ASP381      0.3668
      7  OD1       31.7340  -17.9390   88.1200 O.co2 381  ASP381     -0.2456
      8  OD2       30.4340  -16.1760   87.8830 O.co2 381  ASP381     -0.2456
      9  N         31.8360  -20.5340   86.2050 N.3   383  HIS383     -0.1226
     10  CA        30.4920  -21.0450   86.4840 C.3   383  HIS383      0.1752
     11  C         29.3860  -20.0470   86.1270 C.2   383  HIS383      0.2596
     12  O         28.2080  -20.3190   86.3960 O.2   383  HIS383     -0.2718
     13  CB        30.3730  -21.5440   87.9340 C.3   383  HIS383      0.0759
     14  CG        31.2590  -22.7190   88.2070 C.ar  383  HIS383      0.0818
     15  ND1       32.4230  -22.5890   88.9480 N.ar  383  HIS383     -0.2268
     16  CD2       31.1640  -23.9940   87.7590 C.ar  383  HIS383      0.1154
     17  CE1       32.9760  -23.7920   88.9590 C.ar  383  HIS383      0.1986
     18  NE2       32.2610  -24.6670   88.2450 N.ar  383  HIS383     -0.2212
     19  N         29.7460  -18.9210   85.4700 N.am  384  HIS384     -0.1962
     20  CA        28.7660  -17.9280   85.0070 C.3   384  HIS384      0.1772
     21  C         27.7350  -18.6620   84.0990 C.2   384  HIS384      0.2462
     22  O         28.1540  -19.4480   83.2420 O.2   384  HIS384     -0.2730
     23  CB        29.4500  -16.7850   84.2580 C.3   384  HIS384      0.0785
     24  CG        28.5130  -15.6750   83.9160 C.ar  384  HIS384      0.0821
     25  ND1       27.5760  -15.8050   82.9010 N.ar  384  HIS384     -0.2267
     26  CD2       28.3760  -14.4550   84.4850 C.ar  384  HIS384      0.1154
     27  CE1       26.9090  -14.6670   82.8830 C.ar  384  HIS384      0.1986
     28  NE2       27.3590  -13.8190   83.8110 N.ar  384  HIS384     -0.2212
     29  N         26.4050  -18.4700   84.3280 N.am  385  PRO385     -0.2727
     30  CA        25.3890  -19.2510   83.5890 C.3   385  PRO385      0.1402
     31  C         25.4200  -19.1780   82.0600 C.2   385  PRO385      0.2269
     32  O         24.9640  -20.1360   81.4300 O.2   385  PRO385     -0.2865
     33  CB        24.0560  -18.7240   84.1400 C.3   385  PRO385      0.0296
     34  CG        24.3820  -17.4390   84.8240 C.3   385  PRO385      0.0237
     35  CD        25.7690  -17.6100   85.3430 C.3   385  PRO385      0.0939
     36  N         26.0730   -3.0740   82.0230 N.3   451  ASN451     -0.1225
     37  CA        25.2240   -3.8060   82.9490 C.3   451  ASN451      0.1785
     38  C         25.2340   -5.2790   82.5210 C.2   451  ASN451      0.2597
     39  O         24.7760   -5.6000   81.4180 O.2   451  ASN451     -0.2718
     40  CB        23.7950   -3.2380   82.9020 C.3   451  ASN451      0.1169
     41  CG        22.7990   -3.8280   83.8890 C.2   451  ASN451      0.2627
     42  OD1       23.0500   -4.8220   84.5880 O.2   451  ASN451     -0.2716
     43  ND2       21.6210   -3.2160   83.9630 N.am  451  ASN451     -0.0877
     44  N         25.7820   -6.1620   83.3910 N.am  452  SER452     -0.1952
     45  CA        25.8510   -7.6270   83.2250 C.3   452  SER452      0.1924
     46  C         26.5550   -8.0700   81.9300 C.2   452  SER452      0.2314
     47  O         25.9510   -8.7150   81.0690 O.2   452  SER452     -0.2863
     48  CB        24.4530   -8.2440   83.3390 C.3   452  SER452      0.2116
     49  OG        23.8870   -7.9270   84.5970 O.3   452  SER452     -0.2180
     50  N         23.7900  -14.1740   73.3670 N.3   492  PRO492     -0.2116
     51  CA        22.4440  -13.6870   72.9540 C.3   492  PRO492      0.1372
     52  C         22.4530  -12.2220   72.4580 C.2   492  PRO492      0.2244
     53  O         23.5030  -11.5690   72.4740 O.2   492  PRO492     -0.2868
     54  CB        21.6180  -13.8440   74.2290 C.3   492  PRO492      0.0268
     55  CG        22.6080  -13.6920   75.3300 C.3   492  PRO492      0.0207
     56  CD        23.8580  -14.3600   74.8350 C.3   492  PRO492      0.0892
     57  N         19.0360   -9.7640   72.4270 N.3   494  HIS494     -0.1226
     58  CA        17.8710   -8.8930   72.6320 C.3   494  HIS494      0.1752
     59  C         18.0200   -7.7540   73.6850 C.2   494  HIS494      0.2596
     60  O         17.2720   -6.7780   73.5800 O.2   494  HIS494     -0.2718
     61  CB        16.5740   -9.7080   72.8490 C.3   494  HIS494      0.0759
     62  CG        16.4060  -10.3680   74.1840 C.ar  494  HIS494      0.0818
     63  ND1       15.1480  -10.6340   74.6870 N.ar  494  HIS494     -0.2268
     64  CD2       17.3330  -10.7840   75.0800 C.ar  494  HIS494      0.1154
     65  CE1       15.3370  -11.1890   75.8740 C.ar  494  HIS494      0.1986
     66  NE2       16.6320  -11.3170   76.1460 N.ar  494  HIS494     -0.2212
     67  N         19.0090   -7.8150   74.6060 N.am  495  HIS495     -0.1975
     68  CA        19.2680   -6.7160   75.5510 C.3   495  HIS495      0.1656
     69  C         20.1620   -5.6180   74.9450 C.2   495  HIS495      0.2291
     70  O         20.1910   -4.5150   75.4850 O.2   495  HIS495     -0.2864
     71  CB        19.8670   -7.2190   76.8770 C.3   495  HIS495      0.0771
     72  CG        18.9430   -8.0950   77.6670 C.ar  495  HIS495      0.0820
     73  ND1       17.6850   -7.6570   78.0460 N.ar  495  HIS495     -0.2267
     74  CD2       19.1330   -9.3460   78.1480 C.ar  495  HIS495      0.1154
     75  CE1       17.1620   -8.6430   78.7560 C.ar  495  HIS495      0.1986
     76  NE2       17.9900   -9.6800   78.8430 N.ar  495  HIS495     -0.2212
     77  N         23.2620   -7.0850   79.4720 N.3   503  GLY503     -0.1210
     78  CA        22.7450   -8.4080   79.8420 C.3   503  GLY503      0.1956
     79  C         23.1720   -9.5880   78.9880 C.2   503  GLY503      0.2612
     80  O         22.3200  -10.3050   78.4480 O.2   503  GLY503     -0.2717
     81  N         24.5170   -9.7760   78.8520 N.am  504  PHE504     -0.1962
     82  CA        25.2120  -10.8330   78.0880 C.3   504  PHE504      0.1771
     83  C         25.1250  -10.6610   76.5600 C.2   504  PHE504      0.2619
     84  O         25.5690  -11.5490   75.8320 O.2   504  PHE504     -0.2715
     85  CB        24.7780  -12.2770   78.4990 C.3   504  PHE504      0.0574
     86  CG        24.4530  -12.5600   79.9520 C.ar  504  PHE504     -0.0200
     87  CD1       25.1310  -11.9090   80.9780 C.ar  504  PHE504     -0.0042
     88  CD2       23.5070  -13.5220   80.2930 C.ar  504  PHE504     -0.0042
     89  CE1       24.8170  -12.1630   82.3190 C.ar  504  PHE504     -0.0003
     90  CE2       23.2250  -13.8110   81.6350 C.ar  504  PHE504     -0.0003
     91  CZ        23.8750  -13.1230   82.6400 C.ar  504  PHE504     -0.0000
     92  N         24.5910   -9.5250   76.0850 N.am  505  CYS505     -0.1968
     93  CA        24.3500   -9.2380   74.6620 C.3   505  CYS505      0.1712
     94  C         25.2600   -8.1480   74.1540 C.2   505  CYS505      0.2296
     95  O         25.3340   -7.0920   74.7720 O.2   505  CYS505     -0.2864
     96  CB        22.8900   -8.8600   74.4270 C.3   505  CYS505      0.0983
     97  SG        21.6930  -10.0300   75.1080 S.3   505  CYS505     -0.0798
     98  N         11.7070  -15.2420   75.5490 N.3   533  ASP533     -0.1239
     99  CA        12.7310  -15.2640   76.5880 C.3   533  ASP533      0.1674
    100  C         12.0470  -14.6110   77.8300 C.2   533  ASP533      0.2266
    101  O         11.2660  -13.6780   77.6390 O.2   533  ASP533     -0.2867
    102  CB        13.9270  -14.4150   76.1280 C.3   533  ASP533      0.1410
    103  CG        15.0730  -14.3480   77.1160 C.2   533  ASP533      0.3668
    104  OD1       14.9120  -13.6890   78.1720 O.co2 533  ASP533     -0.2456
    105  OD2       16.1430  -14.9200   76.8230 O.co2 533  ASP533     -0.2456
    106  N         12.9890  -12.5320   79.9700 N.3   535  HIS535     -0.1241
    107  CA        13.3500  -11.1340   80.1390 C.3   535  HIS535      0.1621
    108  C         12.8220  -10.2920   78.9820 C.2   535  HIS535      0.2264
    109  O         12.6490  -10.7780   77.8560 O.2   535  HIS535     -0.2867
    110  CB        14.8750  -10.9630   80.2430 C.3   535  HIS535      0.0745
    111  CG        15.4920  -11.7180   81.3860 C.ar  535  HIS535      0.0817
    112  ND1       16.1090  -12.9340   81.1930 N.ar  535  HIS535     -0.2268
    113  CD2       15.5520  -11.3990   82.6990 C.ar  535  HIS535      0.1154
    114  CE1       16.5480  -13.3070   82.3880 C.ar  535  HIS535      0.1986
    115  NE2       16.2340  -12.4180   83.3230 N.ar  535  HIS535     -0.2212
    116  N         15.0720   -8.1470   86.0560 N.3   564  PHE564     -0.1241
    117  CA        15.9760   -7.6290   85.0120 C.3   564  PHE564      0.1605
    118  C         15.2110   -7.5330   83.6570 C.2   564  PHE564      0.2264
    119  O         14.4270   -8.4300   83.3700 O.2   564  PHE564     -0.2867
    120  CB        17.2380   -8.5320   84.8850 C.3   564  PHE564      0.0534
    121  CG        18.2760   -7.9990   83.9230 C.ar  564  PHE564     -0.0203
    122  CD1       19.2430   -7.0920   84.3510 C.ar  564  PHE564     -0.0042
    123  CD2       18.2470   -8.3490   82.5700 C.ar  564  PHE564     -0.0042
    124  CE1       20.1610   -6.5370   83.4450 C.ar  564  PHE564     -0.0003
    125  CE2       19.1490   -7.7690   81.6600 C.ar  564  PHE564     -0.0003
    126  CZ        20.1140   -6.8880   82.1080 C.ar  564  PHE564     -0.0000
    127  N         14.7730   -4.3660   84.7010 N.3   566  ASN566     -0.1240
    128  CA        14.2950   -3.4040   85.7190 C.3   566  ASN566      0.1653
    129  C         13.8470   -2.0220   85.2100 C.2   566  ASN566      0.2266
    130  O         14.0930   -1.0120   85.8700 O.2   566  ASN566     -0.2867
    131  CB        15.3770   -3.1930   86.8310 C.3   566  ASN566      0.1155
    132  CG        15.9850   -4.4670   87.3430 C.2   566  ASN566      0.2627
    133  OD1       17.0380   -4.8910   86.8950 O.2   566  ASN566     -0.2716
    134  ND2       15.3250   -5.1010   88.2820 N.am  566  ASN566     -0.0877
    135  N         14.8140  -19.4190   79.1600 N.3   626  ASP626     -0.1239
    136  CA        14.9960  -19.1040   80.5740 C.3   626  ASP626      0.1674
    137  C         13.6440  -18.9670   81.3250 C.2   626  ASP626      0.2266
    138  O         13.6590  -18.8340   82.5460 O.2   626  ASP626     -0.2867
    139  CB        15.9360  -17.9030   80.8000 C.3   626  ASP626      0.1410
    140  CG        15.7230  -16.6980   79.9090 C.2   626  ASP626      0.3668
    141  OD1       14.7180  -16.6850   79.1390 O.co2 626  ASP626     -0.2456
    142  OD2       16.5390  -15.7580   79.9920 O.co2 626  ASP626     -0.2456
    143  N         17.6100  -18.9100   86.8010 N.3   633  LEU633     -0.1245
    144  CA        17.4360  -17.4580   86.7350 C.3   633  LEU633      0.1561
    145  C         15.9790  -17.0040   86.5510 C.2   633  LEU633      0.2260
    146  O         15.5890  -15.9900   87.1270 O.2   633  LEU633     -0.2867
    147  CB        18.3290  -16.8870   85.6010 C.3   633  LEU633      0.0270
    148  CG        19.7510  -16.3690   85.9830 C.3   633  LEU633      0.0019
    149  CD1       20.5620  -17.3790   86.8050 C.3   633  LEU633      0.0001
    150  CD2       20.5460  -16.0100   84.7540 C.3   633  LEU633      0.0001
    151  N         18.4070  -16.4430   75.7450 N.3   664  GLY664     -0.1225
    152  CA        18.7900  -16.9610   77.0600 C.3   664  GLY664      0.1811
    153  C         18.4340  -18.4250   77.2630 C.2   664  GLY664      0.2280
    154  O         18.1390  -19.1350   76.2970 O.2   664  GLY664     -0.2866
    155  N         19.3890  -21.1880   80.8270 N.3   666  TYR666     -0.1241
    156  CA        20.5670  -21.5380   81.6110 C.3   666  TYR666      0.1605
    157  C         20.5570  -22.9300   82.2740 C.2   666  TYR666      0.2264
    158  O         21.5770  -23.3230   82.8390 O.2   666  TYR666     -0.2867
    159  CB        20.8220  -20.4020   82.6310 C.3   666  TYR666      0.0534
    160  CG        20.9050  -19.0850   81.8780 C.ar  666  TYR666     -0.0201
    161  CD1       21.9810  -18.8130   81.0320 C.ar  666  TYR666     -0.0009
    162  CD2       19.8180  -18.2040   81.8530 C.ar  666  TYR666     -0.0009
    163  CE1       21.9970  -17.6860   80.2130 C.ar  666  TYR666      0.0417
    164  CE2       19.8330  -17.0580   81.0510 C.ar  666  TYR666      0.0417
    165  CZ        20.9290  -16.8050   80.2370 C.ar  666  TYR666      0.1957
    166  OH        20.9810  -15.6860   79.4490 O.3   666  TYR666     -0.2866
@<TRIPOS>BOND
     1    57    58    1
     2    52    53    2
     3    52    51    1
     4    58    61    1
     5    58    59    1
     6    61    62    1
     7    51    50    1
     8    51    54    1
     9    50    56    1
    10    60    59    2
    11    59    67   am
    12    94    93    1
    13    94    95    2
    14    62    63   ar
    15    62    64   ar
    16    54    55    1
    17    96    93    1
    18    96    97    1
    19    67    68    1
    20    93    92    1
    21    63    65   ar
    22    56    55    1
    23    69    70    2
    24    69    68    1
    25    64    66   ar
    26    98    99    1
    27    68    71    1
    28   151   152    1
    29    84    83    2
    30    65    66   ar
    31    92    83   am
    32   102    99    1
    33   102   103    1
    34   154   153    2
    35    83    82    1
    36    99   100    1
    37   105   103   ar
    38    71    72    1
    39   152   153    1
    40   103   104   ar
    41   101   100    2
    42    72    73   ar
    43    72    74   ar
    44   109   108    2
    45    73    75   ar
    46    82    85    1
    47    82    81    1
    48    74    76   ar
    49    80    79    2
    50    85    86    1
    51    75    76   ar
    52    81    79   am
    53   108   107    1
    54    79    78    1
    55   141   140   ar
    56   135   136    1
    57   166   165    1
    58    77    78    1
    59   140   142   ar
    60   140   139    1
    61    86    88   ar
    62    86    87   ar
    63   106   107    1
    64   107   110    1
    65   163   165   ar
    66   163   161   ar
    67   165   164   ar
    68   110   111    1
    69    88    90   ar
    70   136   139    1
    71   136   137    1
    72   155   156    1
    73    87    89   ar
    74   161   160   ar
    75   164   162   ar
    76    47    46    2
    77   112   111   ar
    78   112   114   ar
    79   137   138    2
    80   111   113   ar
    81    39    38    2
    82    32    31    2
    83   156   157    1
    84   156   159    1
    85    90    91   ar
    86   125   126   ar
    87   125   123   ar
    88   162   160   ar
    89   160   159    1
    90    46    45    1
    91    36    37    1
    92    31    30    1
    93   126   124   ar
    94   157   158    2
    95    89    91   ar
    96   114   115   ar
    97    38    37    1
    98    38    44   am
    99   123   121   ar
   100   113   115   ar
   101    27    25   ar
   102    27    28   ar
   103    25    24   ar
   104    40    37    1
   105    40    41    1
   106    45    48    1
   107    45    44    1
   108    22    21    2
   109    48    49    1
   110   119   118    2
   111   124   122   ar
   112    30    33    1
   113    30    29    1
   114   118   117    1
   115    28    26   ar
   116    41    43   am
   117    41    42    2
   118    24    23    1
   119    24    26   ar
   120   121   122   ar
   121   121   120    1
   122    21    29   am
   123    21    20    1
   124    33    34    1
   125    23    20    1
   126    29    35    1
   127   127   128    1
   128   150   148    1
   129    34    35    1
   130     4     3    2
   131   120   117    1
   132    20    19    1
   133   117   116    1
   134   129   128    1
   135   129   130    2
   136    19    11   am
   137   147   148    1
   138   147   144    1
   139   128   131    1
   140     3     2    1
   141   148   149    1
   142    11    12    2
   143    11    10    1
   144     1     2    1
   145     9    10    1
   146    10    13    1
   147   145   144    1
   148   145   146    2
   149     2     5    1
   150   144   143    1
   151   131   132    1
   152   133   132    2
   153     5     6    1
   154   132   134   am
   155    16    14   ar
   156    16    18   ar
   157     6     8   ar
   158     6     7   ar
   159    13    14    1
   160    14    15   ar
   161    18    17   ar
   162    15    17   ar
