@<TRIPOS>MOLECULE
tmp/5g0jA00.pdb
 160 156 0 0 0
SMALL
GASTEIGER

@<TRIPOS>ATOM
      1  N        -33.0840   69.1110  -10.9590 N.3   407  ASP407     -0.1239
      2  CA       -33.4170   67.7560  -11.3910 C.3   407  ASP407      0.1674
      3  C        -34.7040   67.7990  -12.2230 C.2   407  ASP407      0.2266
      4  O        -35.8140   67.6760  -11.6930 O.2   407  ASP407     -0.2867
      5  CB       -33.5110   66.7600  -10.2060 C.3   407  ASP407      0.1410
      6  CG       -33.7680   65.2970  -10.5900 C.2   407  ASP407      0.3668
      7  OD1      -33.3570   64.8860  -11.7100 O.co2 407  ASP407     -0.2456
      8  OD2      -34.3390   64.5510   -9.7530 O.co2 407  ASP407     -0.2456
      9  N        -35.7760   65.6550  -13.9710 N.3   409  HIS409     -0.1226
     10  CA       -36.2600   64.2790  -13.9120 C.3   409  HIS409      0.1752
     11  C        -36.9480   64.0100  -12.5490 C.2   409  HIS409      0.2596
     12  O        -36.9680   62.8660  -12.0710 O.2   409  HIS409     -0.2718
     13  CB       -35.0800   63.3050  -14.1700 C.3   409  HIS409      0.0759
     14  CG       -34.4530   63.4320  -15.5360 C.ar  409  HIS409      0.0818
     15  ND1      -33.9810   64.6530  -16.0160 N.ar  409  HIS409     -0.2268
     16  CD2      -34.2090   62.4780  -16.4690 C.ar  409  HIS409      0.1154
     17  CE1      -33.4940   64.4030  -17.2230 C.ar  409  HIS409      0.1986
     18  NE2      -33.6030   63.1090  -17.5380 N.ar  409  HIS409     -0.2212
     19  N        -37.5200   65.0780  -11.9320 N.am  410  HIS410     -0.1962
     20  CA       -38.2230   64.9620  -10.6540 C.3   410  HIS410      0.1772
     21  C        -39.6830   64.5820  -10.8870 C.2   410  HIS410      0.2462
     22  O        -40.3690   65.2860  -11.6320 O.2   410  HIS410     -0.2730
     23  CB       -38.1040   66.2210   -9.8170 C.3   410  HIS410      0.0785
     24  CG       -38.2730   65.9420   -8.3660 C.ar  410  HIS410      0.0821
     25  ND1      -39.5130   65.6570   -7.8290 N.ar  410  HIS410     -0.2267
     26  CD2      -37.3410   65.8710   -7.3860 C.ar  410  HIS410      0.1154
     27  CE1      -39.3030   65.4620   -6.5400 C.ar  410  HIS410      0.1986
     28  NE2      -38.0120   65.5740   -6.2260 N.ar  410  HIS410     -0.2212
     29  N        -40.1550   63.4640  -10.2660 N.am  411  PRO411     -0.2727
     30  CA       -41.5080   62.9340  -10.5550 C.3   411  PRO411      0.1402
     31  C        -42.6980   63.8880  -10.4410 C.2   411  PRO411      0.2269
     32  O        -43.6740   63.7030  -11.1720 O.2   411  PRO411     -0.2865
     33  CB       -41.6570   61.7600   -9.5760 C.3   411  PRO411      0.0296
     34  CG       -40.4890   61.8440   -8.6340 C.3   411  PRO411      0.0237
     35  CD       -39.4070   62.5300   -9.4000 C.3   411  PRO411      0.0939
     36  N        -37.0900   67.3500    4.0400 N.3   477  ASN477     -0.1225
     37  CA       -36.9960   65.9980    3.5050 C.3   477  ASN477      0.1785
     38  C        -37.7930   66.0540    2.1850 C.2   477  ASN477      0.2597
     39  O        -38.9260   66.5510    2.1780 O.2   477  ASN477     -0.2718
     40  CB       -37.6010   64.9800    4.5160 C.3   477  ASN477      0.1169
     41  CG       -37.4300   63.4850    4.2180 C.2   477  ASN477      0.2627
     42  OD1      -36.8080   63.0630    3.2240 O.2   477  ASN477     -0.2716
     43  ND2      -37.9870   62.6400    5.0970 N.am  477  ASN477     -0.0877
     44  N        -37.1600   65.6430    1.0620 N.am  478  SER478     -0.1952
     45  CA       -37.7150   65.6110   -0.3070 C.3   478  SER478      0.1924
     46  C        -38.5310   66.8680   -0.7500 C.2   478  SER478      0.2314
     47  O        -39.6530   66.7080   -1.2100 O.2   478  SER478     -0.2863
     48  CB       -38.5450   64.3470   -0.5090 C.3   478  SER478      0.2116
     49  OG       -37.7300   63.1970   -0.3940 O.3   478  SER478     -0.2180
     50  N        -48.9090   68.7100   -4.0810 N.3   518  PRO518     -0.2116
     51  CA       -49.7100   67.9630   -3.0770 C.3   518  PRO518      0.1372
     52  C        -49.6460   68.5010   -1.6160 C.2   518  PRO518      0.2244
     53  O        -48.9750   69.5140   -1.3510 O.2   518  PRO518     -0.2868
     54  CB       -49.1650   66.5280   -3.1920 C.3   518  PRO518      0.0268
     55  CG       -47.7970   66.6830   -3.6840 C.3   518  PRO518      0.0207
     56  CD       -47.8370   67.8580   -4.6290 C.3   518  PRO518      0.0892
     57  N        -50.6740   66.1240    1.7490 N.3   520  HIS520     -0.1226
     58  CA       -50.7880   65.1930    2.8830 C.3   520  HIS520      0.1752
     59  C        -49.4780   64.9250    3.7400 C.2   520  HIS520      0.2596
     60  O        -49.5910   64.3620    4.8470 O.2   520  HIS520     -0.2718
     61  CB       -51.4300   63.8670    2.4500 C.3   520  HIS520      0.0759
     62  CG       -50.5570   62.9520    1.6640 C.ar  520  HIS520      0.0818
     63  ND1      -50.5440   61.5850    1.9140 N.ar  520  HIS520     -0.2268
     64  CD2      -49.7400   63.2150    0.6200 C.ar  520  HIS520      0.1154
     65  CE1      -49.6940   61.0670    1.0450 C.ar  520  HIS520      0.1986
     66  NE2      -49.1920   62.0060    0.2370 N.ar  520  HIS520     -0.2212
     67  N        -48.2810   65.3670    3.2670 N.am  521  HIS521     -0.1975
     68  CA       -47.0220   65.2000    3.9980 C.3   521  HIS521      0.1656
     69  C        -46.6790   66.4260    4.8410 C.2   521  HIS521      0.2291
     70  O        -46.0340   66.2840    5.8930 O.2   521  HIS521     -0.2864
     71  CB       -45.8750   64.8350    3.0560 C.3   521  HIS521      0.0771
     72  CG       -45.9600   63.4450    2.5100 C.ar  521  HIS521      0.0820
     73  ND1      -46.2330   62.3590    3.3270 N.ar  521  HIS521     -0.2267
     74  CD2      -45.7590   63.0000    1.2480 C.ar  521  HIS521      0.1154
     75  CE1      -46.2080   61.2940    2.5380 C.ar  521  HIS521      0.1986
     76  NE2      -45.9290   61.6270    1.2770 N.ar  521  HIS521     -0.2212
     77  N        -42.0300   65.8070    1.6720 N.3   529  GLY529     -0.1210
     78  CA       -42.4510   65.0340    0.5020 C.3   529  GLY529      0.1956
     79  C        -43.2500   65.7100   -0.6150 C.2   529  GLY529      0.2611
     80  O        -44.2910   65.1930   -1.0310 O.2   529  GLY529     -0.2717
     81  N        -42.7600   66.8760   -1.1130 N.am  530  PHE530     -0.1976
     82  CA       -43.2780   67.7210   -2.2140 C.3   530  PHE530      0.1639
     83  C        -44.4490   68.6120   -1.8070 C.2   530  PHE530      0.2290
     84  O        -44.9120   69.4280   -2.6080 O.2   530  PHE530     -0.2864
     85  CB       -43.6250   66.9140   -3.4960 C.3   530  PHE530      0.0560
     86  CG       -42.7730   65.7040   -3.8300 C.ar  530  PHE530     -0.0200
     87  CD1      -41.3930   65.7290   -3.6550 C.ar  530  PHE530     -0.0042
     88  CD2      -43.3510   64.5450   -4.3290 C.ar  530  PHE530     -0.0042
     89  CE1      -40.6230   64.5900   -3.8900 C.ar  530  PHE530     -0.0003
     90  CE2      -42.5640   63.4330   -4.6440 C.ar  530  PHE530     -0.0003
     91  CZ       -41.2040   63.4680   -4.4320 C.ar  530  PHE530     -0.0000
     92  N        -53.5600   57.3670   -1.4760 N.3   559  ASP559     -0.1239
     93  CA       -52.1900   57.5900   -1.9260 C.3   559  ASP559      0.1674
     94  C        -51.3250   56.4390   -1.3030 C.2   559  ASP559      0.2266
     95  O        -51.6330   56.0220   -0.1880 O.2   559  ASP559     -0.2867
     96  CB       -51.7560   58.9610   -1.4070 C.3   559  ASP559      0.1410
     97  CG       -50.3960   59.4120   -1.8680 C.2   559  ASP559      0.3668
     98  OD1      -49.4060   58.6910   -1.5980 O.co2 559  ASP559     -0.2456
     99  OD2      -50.3020   60.5240   -2.4360 O.co2 559  ASP559     -0.2456
    100  N        -48.4630   56.3860    0.0230 N.3   561  HIS561     -0.1241
    101  CA       -47.7290   56.7790    1.2120 C.3   561  HIS561      0.1621
    102  C        -48.6880   57.2310    2.2840 C.2   561  HIS561      0.2264
    103  O        -49.7250   57.8190    1.9850 O.2   561  HIS561     -0.2867
    104  CB       -46.7150   57.9030    0.9160 C.3   561  HIS561      0.0745
    105  CG       -45.7290   57.5690   -0.1640 C.ar  561  HIS561      0.0817
    106  ND1      -45.9580   57.9250   -1.4880 N.ar  561  HIS561     -0.2268
    107  CD2      -44.5570   56.8900   -0.0870 C.ar  561  HIS561      0.1154
    108  CE1      -44.9260   57.4490   -2.1670 C.ar  561  HIS561      0.1986
    109  NE2      -44.0580   56.8170   -1.3680 N.ar  561  HIS561     -0.2212
    110  N        -41.3560   55.4220    2.6940 N.3   590  PHE590     -0.1241
    111  CA       -41.5020   56.8490    3.0340 C.3   590  PHE590      0.1605
    112  C        -42.8610   57.1940    3.7260 C.2   590  PHE590      0.2264
    113  O        -43.8990   56.6310    3.3320 O.2   590  PHE590     -0.2867
    114  CB       -41.3060   57.7180    1.7750 C.3   590  PHE590      0.0534
    115  CG       -41.3420   59.2190    1.9870 C.ar  590  PHE590     -0.0203
    116  CD1      -40.1860   59.9250    2.2780 C.ar  590  PHE590     -0.0042
    117  CD2      -42.5330   59.9240    1.8930 C.ar  590  PHE590     -0.0042
    118  CE1      -40.2190   61.3140    2.4690 C.ar  590  PHE590     -0.0003
    119  CE2      -42.5680   61.3070    2.1170 C.ar  590  PHE590     -0.0003
    120  CZ       -41.4080   61.9970    2.3790 C.ar  590  PHE590     -0.0000
    121  N        -40.9370   56.8870    6.3730 N.3   592  ASN592     -0.1240
    122  CA       -40.1970   55.9230    7.1960 C.3   592  ASN592      0.1653
    123  C        -40.5830   55.8470    8.7020 C.2   592  ASN592      0.2266
    124  O        -39.9010   55.1440    9.4570 O.2   592  ASN592     -0.2867
    125  CB       -38.6940   56.1470    7.0410 C.3   592  ASN592      0.1155
    126  CG       -38.1620   55.8120    5.6710 C.2   592  ASN592      0.2627
    127  OD1      -38.5150   56.4300    4.6580 O.2   592  ASN592     -0.2716
    128  ND2      -37.2430   54.8630    5.6270 N.am  592  ASN592     -0.0877
    129  N        -50.3630   57.1110   -7.0430 N.3   652  ASP652     -0.1239
    130  CA       -49.0270   56.5760   -6.9020 C.3   652  ASP652      0.1674
    131  C        -49.1490   55.1340   -6.4050 C.2   652  ASP652      0.2266
    132  O        -48.1770   54.3820   -6.4340 O.2   652  ASP652     -0.2867
    133  CB       -48.1520   57.4630   -6.0010 C.3   652  ASP652      0.1410
    134  CG       -48.6020   57.5930   -4.5610 C.2   652  ASP652      0.3668
    135  OD1      -49.8160   57.4940   -4.3090 O.co2 652  ASP652     -0.2456
    136  OD2      -47.7320   57.7900   -3.6830 O.co2 652  ASP652     -0.2456
    137  N        -42.8830   55.0410   -8.3240 N.3   659  LEU659     -0.1245
    138  CA       -42.6470   55.1230   -6.8750 C.3   659  LEU659      0.1561
    139  C        -43.5270   54.2240   -5.9830 C.2   659  LEU659      0.2260
    140  O        -43.1670   53.9680   -4.8360 O.2   659  LEU659     -0.2867
    141  CB       -42.7900   56.5890   -6.4260 C.3   659  LEU659      0.0270
    142  CG       -41.6930   57.5440   -6.8870 C.3   659  LEU659      0.0019
    143  CD1      -42.0160   58.1640   -8.2220 C.3   659  LEU659      0.0001
    144  CD2      -41.5360   58.6620   -5.9170 C.3   659  LEU659      0.0001
    145  N        -50.5250   62.3310   -4.6480 N.3   690  GLY690     -0.1225
    146  CA       -49.5220   61.6080   -5.4280 C.3   690  GLY690      0.1811
    147  C        -50.0220   61.1120   -6.7740 C.2   690  GLY690      0.2280
    148  O        -51.1310   61.4450   -7.2180 O.2   690  GLY690     -0.2866
    149  N        -47.5050   59.4220  -10.1530 N.3   692  TYR692     -0.1241
    150  CA       -46.3900   59.9660  -10.9180 C.3   692  TYR692      0.1605
    151  C        -46.2590   59.4640  -12.3740 C.2   692  TYR692      0.2264
    152  O        -45.5190   60.1010  -13.1280 O.2   692  TYR692     -0.2867
    153  CB       -45.0840   59.8080  -10.1180 C.3   692  TYR692      0.0534
    154  CG       -45.2030   60.6110   -8.8410 C.ar  692  TYR692     -0.0201
    155  CD1      -45.2070   62.0090   -8.8720 C.ar  692  TYR692     -0.0009
    156  CD2      -45.5320   59.9900   -7.6350 C.ar  692  TYR692     -0.0009
    157  CE1      -45.4360   62.7630   -7.7200 C.ar  692  TYR692      0.0417
    158  CE2      -45.7990   60.7360   -6.4840 C.ar  692  TYR692      0.0417
    159  CZ       -45.7360   62.1220   -6.5280 C.ar  692  TYR692      0.1957
    160  OH       -45.9690   62.8610   -5.3880 O.3   692  TYR692     -0.2866
@<TRIPOS>BOND
     1    18    17   ar
     2    18    16   ar
     3    17    15   ar
     4    16    14   ar
     5    15    14   ar
     6    14    13    1
     7    13    10    1
     8     9    10    1
     9    10    11    1
    10   152   151    2
    11    11    12    2
    12    11    19   am
    13   151   150    1
    14     3     4    2
    15     3     2    1
    16    19    20    1
    17     7     6   ar
    18    22    21    2
    19     2     1    1
    20     2     5    1
    21    32    31    2
    22   150   149    1
    23   150   153    1
    24    21    20    1
    25    21    29   am
    26    20    23    1
    27     6     5    1
    28     6     8   ar
    29    30    31    1
    30    30    29    1
    31    30    33    1
    32    29    35    1
    33   153   154    1
    34    23    24    1
    35    33    34    1
    36    35    34    1
    37   155   154   ar
    38   155   157   ar
    39   154   156   ar
    40    24    25   ar
    41    24    26   ar
    42   137   138    1
    43   143   142    1
    44    25    27   ar
    45   157   159   ar
    46   156   158   ar
    47    26    28   ar
    48   148   147    2
    49   129   130    1
    50   130   131    1
    51   130   133    1
    52   142   141    1
    53   142   144    1
    54   138   141    1
    55   138   139    1
    56   147   146    1
    57    27    28   ar
    58   159   158   ar
    59   159   160    1
    60   132   131    2
    61   133   134    1
    62   139   140    2
    63   146   145    1
    64    90    91   ar
    65    90    88   ar
    66    56    50    1
    67    56    55    1
    68   134   135   ar
    69   134   136   ar
    70    91    89   ar
    71    88    86   ar
    72    50    51    1
    73    89    87   ar
    74    86    87   ar
    75    86    85    1
    76    55    54    1
    77    85    82    1
    78    54    51    1
    79    51    52    1
    80    84    83    2
    81    99    97   ar
    82    82    83    1
    83    82    81    1
    84   108   106   ar
    85   108   109   ar
    86    93    92    1
    87    93    96    1
    88    93    94    1
    89    97    98   ar
    90    97    96    1
    91    52    53    2
    92   106   105   ar
    93   109   107   ar
    94    94    95    2
    95    47    46    2
    96    81    79   am
    97    80    79    2
    98    46    45    1
    99    79    78    1
   100    48    49    1
   101    48    45    1
   102    45    44    1
   103   105   107   ar
   104   105   104    1
   105   100   101    1
   106    66    64   ar
   107    66    65   ar
   108    78    77    1
   109    64    62   ar
   110   104   101    1
   111    65    63   ar
   112    44    38   am
   113   101   102    1
   114    74    76   ar
   115    74    72   ar
   116    76    75   ar
   117    62    63   ar
   118    62    61    1
   119    57    58    1
   120   114   115    1
   121   114   111    1
   122   117   115   ar
   123   117   119   ar
   124   103   102    2
   125   115   116   ar
   126   119   120   ar
   127    39    38    2
   128    38    37    1
   129   116   118   ar
   130   120   118   ar
   131    61    58    1
   132    72    71    1
   133    72    73   ar
   134    75    73   ar
   135   110   111    1
   136    58    59    1
   137   111   112    1
   138    71    68    1
   139    42    41    2
   140    67    59   am
   141    67    68    1
   142   113   112    2
   143    37    36    1
   144    37    40    1
   145    59    60    2
   146    68    69    1
   147    41    40    1
   148    41    43   am
   149   127   126    2
   150    69    70    2
   151   128   126   am
   152   126   125    1
   153   121   122    1
   154   125   122    1
   155   122   123    1
   156   123   124    2
