@<TRIPOS>MOLECULE
tmp/5g0pA02.pdb
 153 151 0 0 0
SMALL
GASTEIGER

@<TRIPOS>ATOM
      1  N          2.8250    8.9820   34.6590 N.3    38  VAL38      -0.1231
      2  CA         3.2710    8.5950   33.3150 C.3    38  VAL38       0.1692
      3  C          3.1230    9.7530   32.3060 C.2    38  VAL38       0.2591
      4  O          4.0420   10.0190   31.5340 O.2    38  VAL38      -0.2718
      5  CB         2.5590    7.3280   32.7980 C.3    38  VAL38       0.0266
      6  CG1        3.0670    6.9690   31.3960 C.3    38  VAL38       0.0020
      7  CG2        2.7850    6.1520   33.7570 C.3    38  VAL38       0.0020
      8  N          1.9830   10.4500   32.3480 N.am   39  LEU39      -0.1980
      9  CA         1.7040   11.5650   31.4330 C.3    39  LEU39       0.1596
     10  C          1.2440   12.8320   32.1510 C.2    39  LEU39       0.2287
     11  O          0.0460   13.0430   32.3210 O.2    39  LEU39      -0.2864
     12  CB         0.6170   11.1600   30.4440 C.3    39  LEU39       0.0297
     13  CG         0.7580    9.7550   29.8600 C.3    39  LEU39       0.0022
     14  CD1       -0.5400    9.2720   29.2140 C.3    39  LEU39       0.0001
     15  CD2        1.9120    9.7090   28.8620 C.3    39  LEU39       0.0001
     16  N          1.7310    1.9590   17.6950 N.3   168  SER168     -0.1202
     17  CA         2.6090    2.4880   18.7340 C.3   168  SER168      0.2020
     18  C          4.0520    2.0120   18.5400 C.2   168  SER168      0.2618
     19  O          5.0060    2.7440   18.8610 O.2   168  SER168     -0.2717
     20  CB         2.1180    2.0590   20.1170 C.3   168  SER168      0.2103
     21  OG         2.2490    0.6580   20.2810 O.3   168  SER168     -0.2182
     22  N          4.2150    0.7810   18.0400 N.am  169  GLN169     -0.1979
     23  CA         5.5290    0.2930   17.5900 C.3   169  GLN169      0.1601
     24  C          5.3850   -0.2640   16.1660 C.2   169  GLN169      0.2287
     25  O          4.3220   -0.7880   15.8130 O.2   169  GLN169     -0.2864
     26  CB         6.1210   -0.7750   18.5400 C.3   169  GLN169      0.0394
     27  CG         6.2770   -0.3560   20.0230 C.3   169  GLN169      0.0908
     28  CD         6.8230   -1.4730   20.9280 C.2   169  GLN169      0.2608
     29  OE1        7.7260   -2.2160   20.5440 O.2   169  GLN169     -0.2717
     30  NE2        6.2660   -1.5920   22.1280 N.am  169  GLN169     -0.0878
     31  N          4.4590   -5.0380   16.5600 N.3   172  ARG172     -0.1245
     32  CA         3.8050   -5.5310   17.7810 C.3   172  ARG172      0.1563
     33  C          2.8310   -6.6750   17.4710 C.2   172  ARG172      0.2260
     34  O          2.2720   -6.7560   16.3770 O.2   172  ARG172     -0.2867
     35  CB         3.0510   -4.4240   18.5330 C.3   172  ARG172      0.0307
     36  CG         3.9030   -3.2710   19.0310 C.3   172  ARG172      0.0489
     37  CD         3.2320   -2.4420   20.1300 C.3   172  ARG172      0.2205
     38  NE         3.0890   -3.1910   21.3800 N.pl3 172  ARG172     -0.0865
     39  CZ         2.5530   -2.7040   22.5000 C.cat 172  ARG172      0.5346
     40  NH1        2.1020   -1.4550   22.5400 N.pl3 172  ARG172      0.1354
     41  NH2        2.4560   -3.4730   23.5810 N.pl3 172  ARG172      0.1354
     42  N         12.8890   -3.1950   18.5720 N.3   256  PRO256     -0.2116
     43  CA        11.9730   -2.2750   19.2570 C.3   256  PRO256      0.1372
     44  C         11.9640   -0.9460   18.5140 C.2   256  PRO256      0.2244
     45  O         13.0160   -0.3550   18.2680 O.2   256  PRO256     -0.2868
     46  CB        12.6030   -2.1090   20.6530 C.3   256  PRO256      0.0268
     47  CG        14.0960   -2.2670   20.4150 C.3   256  PRO256      0.0207
     48  CD        14.2290   -3.2430   19.1950 C.3   256  PRO256      0.0892
     49  N          9.7190    2.5350   18.3250 N.3   258  VAL258     -0.1245
     50  CA         8.6510    3.4240   18.7450 C.3   258  VAL258      0.1561
     51  C          8.2090    4.3010   17.5890 C.2   258  VAL258      0.2260
     52  O          9.0380    4.9580   16.9380 O.2   258  VAL258     -0.2867
     53  CB         9.1410    4.3270   19.8950 C.3   258  VAL258      0.0252
     54  CG1        8.1200    5.4520   20.1800 C.3   258  VAL258      0.0019
     55  CG2        9.4000    3.4770   21.1220 C.3   258  VAL258      0.0019
     56  N          5.4740    8.7030   18.7300 N.3   261  MET261     -0.1245
     57  CA         5.8680    9.9500   19.3740 C.3   261  MET261      0.1570
     58  C          5.9920   11.1260   18.4150 C.2   261  MET261      0.2261
     59  O          6.0160   10.9460   17.1860 O.2   261  MET261     -0.2867
     60  CB         7.1250    9.7510   20.2010 C.3   261  MET261      0.0387
     61  CG         6.8370    8.8840   21.4240 C.3   261  MET261      0.0595
     62  SD         8.1900    8.8110   22.5990 S.3   261  MET261     -0.1393
     63  CE         7.8560   10.2660   23.6330 C.3   261  MET261      0.0692
     64  N         11.3350    5.6140   15.3660 N.3   275  PHE275     -0.1227
     65  CA        12.7330    5.3300   15.6920 C.3   275  PHE275      0.1736
     66  C         12.8540    3.9940   16.4280 C.2   275  PHE275      0.2596
     67  O         11.8780    3.5000   17.0150 O.2   275  PHE275     -0.2718
     68  CB        13.3400    6.4410   16.5410 C.3   275  PHE275      0.0547
     69  CG        12.6080    6.6920   17.8410 C.ar  275  PHE275     -0.0202
     70  CD1       12.8880    5.9350   18.9820 C.ar  275  PHE275     -0.0042
     71  CD2       11.6660    7.7080   17.9290 C.ar  275  PHE275     -0.0042
     72  CE1       12.2340    6.1950   20.1930 C.ar  275  PHE275     -0.0003
     73  CE2       11.0000    7.9660   19.1230 C.ar  275  PHE275     -0.0003
     74  CZ        11.2950    7.2090   20.2680 C.ar  275  PHE275     -0.0000
     75  N         14.0610    3.4270   16.4000 N.am  276  SER276     -0.1938
     76  CA        14.2940    2.0800   16.8770 C.3   276  SER276      0.2055
     77  C         15.7240    1.9980   17.3610 C.2   276  SER276      0.2644
     78  O         16.5930    2.7170   16.8610 O.2   276  SER276     -0.2714
     79  CB        14.0800    1.0550   15.7490 C.3   276  SER276      0.2130
     80  OG        14.9380    1.3000   14.6390 O.3   276  SER276     -0.2179
     81  N         15.9630    1.1340   18.3450 N.am  277  GLY277     -0.1939
     82  CA        17.3170    0.8190   18.7720 C.3   277  GLY277      0.2014
     83  C         17.4250   -0.6910   18.9130 C.2   277  GLY277      0.2639
     84  O         17.2800   -1.4390   17.9330 O.2   277  GLY277     -0.2714
     85  N         17.6660   -1.1420   20.1390 N.am  278  TRP278     -0.1959
     86  CA        17.6360   -2.5650   20.4560 C.3   278  TRP278      0.1771
     87  C         17.2050   -2.7800   21.9100 C.2   278  TRP278      0.2620
     88  O         17.3560   -1.8930   22.7740 O.2   278  TRP278     -0.2715
     89  CB        18.9790   -3.2530   20.1710 C.3   278  TRP278      0.0590
     90  CG        20.1350   -2.6700   20.9250 C.ar  278  TRP278      0.0006
     91  CD1       20.4470   -2.8680   22.2550 C.ar  278  TRP278      0.0946
     92  CD2       21.1430   -1.7960   20.4020 C.ar  278  TRP278      0.0152
     93  NE1       21.5810   -2.1630   22.5770 N.ar  278  TRP278     -0.2442
     94  CE2       22.0280   -1.4940   21.4620 C.ar  278  TRP278      0.0810
     95  CE3       21.3790   -1.2320   19.1410 C.ar  278  TRP278      0.0012
     96  CZ2       23.1380   -0.6550   21.2920 C.ar  278  TRP278      0.0191
     97  CZ3       22.4760   -0.4010   18.9750 C.ar  278  TRP278      0.0001
     98  CH2       23.3430   -0.1230   20.0400 C.ar  278  TRP278      0.0015
     99  N         16.6720   -3.9680   22.1620 N.am  279  TYR279     -0.1960
    100  CA        16.0530   -4.2840   23.4410 C.3   279  TYR279      0.1771
    101  C         17.0140   -4.3720   24.6200 C.2   279  TYR279      0.2619
    102  O         18.1280   -4.8840   24.4970 O.2   279  TYR279     -0.2715
    103  CB        15.3080   -5.6090   23.3160 C.3   279  TYR279      0.0574
    104  CG        13.8500   -5.4450   22.9600 C.ar  279  TYR279     -0.0198
    105  CD1       13.0150   -4.6070   23.7070 C.ar  279  TYR279     -0.0009
    106  CD2       13.2960   -6.1480   21.9020 C.ar  279  TYR279     -0.0009
    107  CE1       11.6650   -4.4740   23.3900 C.ar  279  TYR279      0.0417
    108  CE2       11.9530   -6.0160   21.5760 C.ar  279  TYR279      0.0417
    109  CZ        11.1460   -5.1810   22.3140 C.ar  279  TYR279      0.1957
    110  OH         9.8130   -5.0640   21.9720 O.3   279  TYR279     -0.2866
    111  N         16.5750   -3.8710   25.7700 N.am  280  MET280     -0.1977
    112  CA        17.1720   -4.2970   27.0210 C.3   280  MET280      0.1605
    113  C         16.3730   -5.5320   27.4200 C.2   280  MET280      0.2287
    114  O         15.1430   -5.5590   27.2440 O.2   280  MET280     -0.2864
    115  CB        17.0910   -3.1940   28.0850 C.3   280  MET280      0.0413
    116  CG        17.6610   -3.6420   29.4520 C.3   280  MET280      0.0598
    117  SD        18.0150   -2.2260   30.5250 S.3   280  MET280     -0.1393
    118  CE        16.3350   -1.6860   30.9120 C.3   280  MET280      0.0692
    119  N         12.7670   -5.5140   29.3340 N.3   283  GLU283     -0.1245
    120  CA        11.6140   -4.9940   28.6130 C.3   283  GLU283      0.1567
    121  C         10.7340   -6.1580   28.1540 C.2   283  GLU283      0.2260
    122  O          9.5040   -6.1160   28.2780 O.2   283  GLU283     -0.2867
    123  CB        12.0560   -4.1870   27.3990 C.3   283  GLU283      0.0388
    124  CG        12.7550   -2.8630   27.7220 C.3   283  GLU283      0.1160
    125  CD        13.0860   -2.0710   26.4390 C.2   283  GLU283      0.3649
    126  OE1       12.1970   -1.3190   25.9760 O.co2 283  GLU283     -0.2457
    127  OE2       14.2100   -2.2290   25.8850 O.co2 283  GLU283     -0.2457
    128  N         12.0900    5.7590   35.4690 N.3   369  TRP369     -0.1241
    129  CA        12.1730    4.9630   34.2330 C.3   369  TRP369      0.1605
    130  C         13.5370    4.3270   33.9900 C.2   369  TRP369      0.2264
    131  O         13.6310    3.2340   33.4270 O.2   369  TRP369     -0.2867
    132  CB        11.7710    5.8220   33.0310 C.3   369  TRP369      0.0550
    133  CG        10.3000    5.9960   32.9710 C.ar  369  TRP369      0.0003
    134  CD1        9.4930    6.6220   33.9000 C.ar  369  TRP369      0.0946
    135  CD2        9.4390    5.5250   31.9350 C.ar  369  TRP369      0.0152
    136  NE1        8.1820    6.5630   33.4850 N.ar  369  TRP369     -0.2442
    137  CE2        8.1230    5.8970   32.2840 C.ar  369  TRP369      0.0810
    138  CE3        9.6550    4.8390   30.7380 C.ar  369  TRP369      0.0012
    139  CZ2        7.0280    5.5970   31.4740 C.ar  369  TRP369      0.0191
    140  CZ3        8.5710    4.5390   29.9360 C.ar  369  TRP369      0.0001
    141  CH2        7.2730    4.9140   30.3080 C.ar  369  TRP369      0.0015
    142  N          5.0770   12.9100   23.8410 N.3   397  TYR397     -0.1241
    143  CA         3.8840   12.1170   23.6100 C.3   397  TYR397      0.1605
    144  C          2.9240   12.9660   22.8020 C.2   397  TYR397      0.2264
    145  O          3.0300   14.1950   22.7880 O.2   397  TYR397     -0.2867
    146  CB         3.2330   11.7130   24.9240 C.3   397  TYR397      0.0534
    147  CG         4.1150   10.8270   25.7520 C.ar  397  TYR397     -0.0201
    148  CD1        4.4950    9.5700   25.2900 C.ar  397  TYR397     -0.0009
    149  CD2        4.5940   11.2510   26.9880 C.ar  397  TYR397     -0.0009
    150  CE1        5.3150    8.7570   26.0450 C.ar  397  TYR397      0.0417
    151  CE2        5.4110   10.4430   27.7500 C.ar  397  TYR397      0.0417
    152  CZ         5.7640    9.2000   27.2760 C.ar  397  TYR397      0.1957
    153  OH         6.5760    8.4050   28.0390 O.3   397  TYR397     -0.2866
@<TRIPOS>BOND
     1    80    79    1
     2    64    65    1
     3    65    66    1
     4    65    68    1
     5    79    76    1
     6    25    24    2
     7    24    23    1
     8    34    33    2
     9    75    66   am
    10    75    76    1
    11    66    67    2
    12    68    69    1
    13    31    32    1
    14    78    77    2
    15    76    77    1
    16    52    51    2
    17    59    58    2
    18    77    81   am
    19    33    32    1
    20    51    50    1
    21    23    22    1
    22    23    26    1
    23    16    17    1
    24    32    35    1
    25    69    71   ar
    26    69    70   ar
    27    71    73   ar
    28    84    83    2
    29    22    18   am
    30    45    44    2
    31    49    50    1
    32    81    82    1
    33    58    57    1
    34    44    43    1
    35    35    36    1
    36    26    27    1
    37    18    17    1
    38    18    19    2
    39    42    48    1
    40    42    43    1
    41    56    57    1
    42    17    20    1
    43    50    53    1
    44    82    83    1
    45    83    85   am
    46    97    95   ar
    47    97    98   ar
    48    70    72   ar
    49    36    37    1
    50    73    74   ar
    51    95    92   ar
    52    48    47    1
    53    43    46    1
    54    57    60    1
    55    53    54    1
    56    53    55    1
    57    27    28    1
    58    98    96   ar
    59    20    21    1
    60    37    38    1
    61    85    86    1
    62    89    86    1
    63    89    90    1
    64    72    74   ar
    65    60    61    1
    66    92    90   ar
    67    92    94   ar
    68    47    46    1
    69    86    87    1
    70    29    28    2
    71    90    91   ar
    72    28    30   am
    73    96    94   ar
    74    38    39    2
    75    61    62    1
    76    94    93   ar
    77   108   106   ar
    78   108   109   ar
    79   106   104   ar
    80    87    99   am
    81    87    88    2
    82   110   109    1
    83    99   100    1
    84    91    93   ar
    85   109   107   ar
    86    39    40    1
    87    39    41    1
    88    62    63    1
    89   145   144    2
    90   144   143    1
    91   104   103    1
    92   104   105   ar
    93   103   100    1
    94   107   105   ar
    95   100   101    1
    96   143   142    1
    97   143   146    1
    98   102   101    2
    99   101   111   am
   100   146   147    1
   101   148   147   ar
   102   148   150   ar
   103   147   149   ar
   104   111   112    1
   105   127   125   ar
   106   126   125   ar
   107   150   152   ar
   108   125   124    1
   109   149   151   ar
   110   112   113    1
   111   112   115    1
   112   114   113    2
   113   152   151   ar
   114   152   153    1
   115   123   124    1
   116   123   120    1
   117   115   116    1
   118   121   122    2
   119   121   120    1
   120   120   119    1
   121    15    13    1
   122    14    13    1
   123   116   117    1
   124    13    12    1
   125   140   141   ar
   126   140   138   ar
   127   141   139   ar
   128    12     9    1
   129   117   118    1
   130   138   135   ar
   131     6     5    1
   132     9    10    1
   133     9     8    1
   134   139   137   ar
   135     4     3    2
   136   135   137   ar
   137   135   133   ar
   138    10    11    2
   139   137   136   ar
   140     3     8   am
   141     3     2    1
   142     5     2    1
   143     5     7    1
   144   133   132    1
   145   133   134   ar
   146   132   129    1
   147     2     1    1
   148   131   130    2
   149   136   134   ar
   150   130   129    1
   151   129   128    1
