@<TRIPOS>MOLECULE
tmp/5g0qA00.pdb
 187 181 0 0 0
SMALL
GASTEIGER

@<TRIPOS>ATOM
      1  N        -28.7710    2.5670   18.2450 N.3    28  GLU28      -0.1245
      2  CA       -28.7350    3.2230   16.9520 C.3    28  GLU28       0.1567
      3  C        -28.5580    2.2160   15.8270 C.2    28  GLU28       0.2260
      4  O        -27.6610    1.3580   15.8740 O.2    28  GLU28      -0.2867
      5  CB       -27.5790    4.1920   16.9330 C.3    28  GLU28       0.0388
      6  CG       -27.7140    5.4040   17.8630 C.3    28  GLU28       0.1160
      7  CD       -28.8590    6.3720   17.5360 C.2    28  GLU28       0.3649
      8  OE1      -29.3180    6.4440   16.3430 O.co2  28  GLU28      -0.2457
      9  OE2      -29.2250    7.1560   18.5050 O.co2  28  GLU28      -0.2457
     10  N        -33.5850    4.6980   16.1100 N.3    62  GLY62      -0.1210
     11  CA       -33.0340    5.9590   16.5100 C.3    62  GLY62       0.1956
     12  C        -32.7930    6.9580   15.3750 C.2    62  GLY62       0.2611
     13  O        -33.1710    6.7020   14.2480 O.2    62  GLY62      -0.2717
     14  N        -32.2090    8.1110   15.7040 N.am   63  ASN63      -0.1974
     15  CA       -31.9980    9.1760   14.7090 C.3    63  ASN63       0.1688
     16  C        -31.1910    8.6330   13.5270 C.2    63  ASN63       0.2292
     17  O        -31.4160    9.0390   12.3640 O.2    63  ASN63      -0.2864
     18  CB       -31.2050   10.3370   15.3200 C.3    63  ASN63       0.1181
     19  CG       -32.0050   11.1300   16.2810 C.2    63  ASN63       0.2629
     20  OD1      -33.2610   10.9630   16.4190 O.2    63  ASN63      -0.2716
     21  ND2      -31.2920   12.0320   16.9930 N.am   63  ASN63      -0.0877
     22  N        -25.3660    6.9230   21.2930 N.3    87  PRO87      -0.2102
     23  CA       -26.6170    7.6150   21.0350 C.3    87  PRO87       0.1504
     24  C        -26.3530    8.9200   20.3000 C.2    87  PRO87       0.2576
     25  O        -25.3840    9.6450   20.5990 O.2    87  PRO87      -0.2718
     26  CB       -27.1500    7.9190   22.4260 C.3    87  PRO87       0.0282
     27  CG       -26.6270    6.8170   23.1790 C.3    87  PRO87       0.0208
     28  CD       -25.2270    6.5150   22.6870 C.3    87  PRO87       0.0893
     29  N        -27.1740    9.1670   19.2840 N.am   88  ASP88      -0.1960
     30  CA       -27.0210   10.3110   18.4630 C.3    88  ASP88       0.1840
     31  C        -27.4030   11.5760   19.2640 C.2    88  ASP88       0.2621
     32  O        -28.4020   11.5690   20.0120 O.2    88  ASP88      -0.2715
     33  CB       -27.9130   10.1820   17.2270 C.3    88  ASP88       0.1450
     34  CG       -27.6610   11.3350   16.2430 C.2    88  ASP88       0.3671
     35  OD1      -26.5890   11.2780   15.5130 O.co2  88  ASP88      -0.2456
     36  OD2      -28.5100   12.2780   16.2500 O.co2  88  ASP88      -0.2456
     37  N        -26.6300   12.6680   19.1220 N.am   89  LYS89      -0.1977
     38  CA       -26.9020   13.8480   19.9640 C.3    89  LYS89       0.1596
     39  C        -28.0010   14.7510   19.4060 C.2    89  LYS89       0.2287
     40  O        -28.5140   15.6670   20.1140 O.2    89  LYS89      -0.2864
     41  CB       -25.6120   14.6180   20.1940 C.3    89  LYS89       0.0298
     42  CG       -24.6900   13.8760   21.1160 C.3    89  LYS89       0.0038
     43  CD       -23.4740   14.7470   21.4110 C.3    89  LYS89       0.0206
     44  CE       -22.6640   14.2300   22.5590 C.3    89  LYS89       0.1093
     45  NZ       -22.0640   12.9200   22.2310 N.3    89  LYS89      -0.1314
     46  N        -38.3720    7.2670   12.8810 N.3   155  ASN155     -0.1225
     47  CA       -38.0690    7.4730   14.2660 C.3   155  ASN155      0.1785
     48  C        -38.3670    8.9380   14.5310 C.2   155  ASN155      0.2597
     49  O        -37.8820    9.8080   13.8450 O.2   155  ASN155     -0.2718
     50  CB       -36.5780    7.1590   14.5160 C.3   155  ASN155      0.1169
     51  CG       -36.1060    7.6350   15.8660 C.2   155  ASN155      0.2627
     52  OD1      -36.3690    7.0070   16.9030 O.2   155  ASN155     -0.2716
     53  ND2      -35.4510    8.7610   15.8860 N.am  155  ASN155     -0.0877
     54  N        -39.1460    9.2120   15.5970 N.am  156  GLU156     -0.1979
     55  CA       -39.4300   10.6070   16.0020 C.3   156  GLU156      0.1602
     56  C        -39.8220   11.5210   14.7850 C.2   156  GLU156      0.2287
     57  O        -39.2260   12.6000   14.5540 O.2   156  GLU156     -0.2864
     58  CB       -38.3170   11.1710   16.8790 C.3   156  GLU156      0.0415
     59  CG       -38.1380   10.2730   18.1250 C.3   156  GLU156      0.1163
     60  CD       -37.2010   10.7350   19.1880 C.2   156  GLU156      0.3649
     61  OE1      -36.2310   11.4440   18.8890 O.co2 156  GLU156     -0.2457
     62  OE2      -37.3970   10.2660   20.3670 O.co2 156  GLU156     -0.2457
     63  N        -40.1770   15.2230   14.9240 N.3   159  LEU159     -0.1245
     64  CA       -39.0060   16.0810   14.9630 C.3   159  LEU159      0.1561
     65  C        -38.2730   16.1880   13.6360 C.2   159  LEU159      0.2260
     66  O        -37.2570   16.8520   13.5750 O.2   159  LEU159     -0.2867
     67  CB       -38.0260   15.6380   16.0600 C.3   159  LEU159      0.0270
     68  CG       -38.5810   15.6260   17.4720 C.3   159  LEU159      0.0019
     69  CD1      -37.5400   15.0630   18.4150 C.3   159  LEU159      0.0001
     70  CD2      -38.9320   17.0670   17.8500 C.3   159  LEU159      0.0001
     71  N        -38.1200   20.2160   12.5510 N.3   162  ARG162     -0.1245
     72  CA       -37.0300   20.8890   13.2840 C.3   162  ARG162      0.1563
     73  C        -35.6120   20.3490   12.9240 C.2   162  ARG162      0.2260
     74  O        -34.5970   21.0760   12.9390 O.2   162  ARG162     -0.2867
     75  CB       -37.2840   20.7320   14.8230 C.3   162  ARG162      0.0307
     76  CG       -36.2100   21.3810   15.6950 C.3   162  ARG162      0.0489
     77  CD       -36.6090   21.3930   17.1740 C.3   162  ARG162      0.2205
     78  NE       -36.4680   20.0860   17.8120 N.pl3 162  ARG162     -0.0865
     79  CZ       -35.3050   19.4570   17.9910 C.cat 162  ARG162      0.5346
     80  NH1      -34.1550   20.0000   17.5740 N.pl3 162  ARG162      0.1354
     81  NH2      -35.2850   18.2930   18.6330 N.pl3 162  ARG162      0.1354
     82  N        -38.5300   10.7090   27.7570 N.3   226  TYR226     -0.1241
     83  CA       -37.3050   11.1850   28.3590 C.3   226  TYR226      0.1605
     84  C        -37.6910   11.9920   29.6050 C.2   226  TYR226      0.2264
     85  O        -38.6940   12.7610   29.5540 O.2   226  TYR226     -0.2867
     86  CB       -36.4530   11.9960   27.3130 C.3   226  TYR226      0.0534
     87  CG       -35.5670   11.0210   26.4580 C.ar  226  TYR226     -0.0201
     88  CD1      -36.0890   10.2930   25.4610 C.ar  226  TYR226     -0.0009
     89  CD2      -34.1910   10.7800   26.8010 C.ar  226  TYR226     -0.0009
     90  CE1      -35.3320    9.3730   24.7460 C.ar  226  TYR226      0.0417
     91  CE2      -33.4080    9.8280   26.1210 C.ar  226  TYR226      0.0417
     92  CZ       -33.9760    9.1380   25.1000 C.ar  226  TYR226      0.1957
     93  OH       -33.1710    8.2030   24.4600 O.3   226  TYR226     -0.2866
     94  N        -36.1970   14.3550   31.1090 N.3   228  GLU228     -0.1231
     95  CA       -35.8930   15.7660   30.8100 C.3   228  GLU228      0.1699
     96  C        -36.9670   16.3270   29.9300 C.2   228  GLU228      0.2593
     97  O        -37.3580   15.7030   28.9130 O.2   228  GLU228     -0.2718
     98  CB       -34.5580   15.8490   30.0500 C.3   228  GLU228      0.0402
     99  CG       -34.0680   17.2720   29.8980 C.3   228  GLU228      0.1161
    100  CD       -32.7740   17.3750   29.1020 C.2   228  GLU228      0.3649
    101  OE1      -32.2310   16.3420   28.6120 O.co2 228  GLU228     -0.2457
    102  OE2      -32.3290   18.5330   28.8930 O.co2 228  GLU228     -0.2457
    103  N        -37.4860   17.4840   30.3410 N.am  229  GLY229     -0.1943
    104  CA       -38.4520   18.1500   29.5490 C.3   229  GLY229      0.1998
    105  C        -37.9160   19.0260   28.4320 C.2   229  GLY229      0.2481
    106  O        -36.7770   18.8570   27.9900 O.2   229  GLY229     -0.2729
    107  N        -38.7350   19.9980   27.9890 N.am  230  PRO230     -0.2715
    108  CA       -38.2870   20.8630   26.9290 C.3   230  PRO230      0.1521
    109  C        -36.9290   21.5100   27.1610 C.2   230  PRO230      0.2440
    110  O        -36.5360   21.7330   28.3180 O.2   230  PRO230     -0.2731
    111  CB       -39.3200   21.9820   26.9330 C.3   230  PRO230      0.0310
    112  CG       -40.5320   21.3860   27.4870 C.3   230  PRO230      0.0237
    113  CD       -40.0360   20.4510   28.5440 C.3   230  PRO230      0.0939
    114  N        -36.2440   21.9050   26.0610 N.am  231  PRO231     -0.2727
    115  CA       -34.9160   22.5270   26.2200 C.3   231  PRO231      0.1402
    116  C        -34.8870   23.7700   27.0960 C.2   231  PRO231      0.2269
    117  O        -33.8470   24.0930   27.6780 O.2   231  PRO231     -0.2865
    118  CB       -34.5060   22.8830   24.7670 C.3   231  PRO231      0.0296
    119  CG       -35.3430   22.0440   23.8890 C.3   231  PRO231      0.0237
    120  CD       -36.6010   21.6900   24.6440 C.3   231  PRO231      0.0939
    121  N        -45.6910   15.0280   33.4570 N.3   247  ARG247     -0.1245
    122  CA       -45.7810   14.7450   32.0530 C.3   247  ARG247      0.1563
    123  C        -45.7850   13.2410   31.7830 C.2   247  ARG247      0.2260
    124  O        -46.5300   12.7910   30.9140 O.2   247  ARG247     -0.2867
    125  CB       -44.6060   15.3950   31.3590 C.3   247  ARG247      0.0307
    126  CG       -44.5990   15.2380   29.8600 C.3   247  ARG247      0.0489
    127  CD       -43.6060   16.2130   29.2160 C.3   247  ARG247      0.2205
    128  NE       -42.3220   16.0370   29.8640 N.pl3 247  ARG247     -0.0865
    129  CZ       -41.4440   15.0400   29.6020 C.cat 247  ARG247      0.5346
    130  NH1      -41.6920   14.0770   28.7270 N.pl3 247  ARG247      0.1354
    131  NH2      -40.3370   14.9790   30.2860 N.pl3 247  ARG247      0.1354
    132  N        -38.2100    3.7930   23.2410 N.3   270  GLU270     -0.1245
    133  CA       -36.9650    4.5220   23.4280 C.3   270  GLU270      0.1567
    134  C        -37.1160    5.4070   24.6170 C.2   270  GLU270      0.2260
    135  O        -38.0250    6.2680   24.6360 O.2   270  GLU270     -0.2867
    136  CB       -36.6980    5.4240   22.2360 C.3   270  GLU270      0.0388
    137  CG       -35.2700    5.9790   22.2790 C.3   270  GLU270      0.1160
    138  CD       -35.0360    6.9550   21.1560 C.2   270  GLU270      0.3649
    139  OE1      -35.5270    6.7900   20.0280 O.co2 270  GLU270     -0.2457
    140  OE2      -34.2040    7.9560   21.4190 O.co2 270  GLU270     -0.2457
    141  N        -31.9990   13.6950   27.1860 N.3   275  TYR275     -0.1227
    142  CA       -31.8670   13.4650   25.7540 C.3   275  TYR275      0.1736
    143  C        -30.5460   14.0670   25.2820 C.2   275  TYR275      0.2595
    144  O        -29.7140   14.4230   26.0850 O.2   275  TYR275     -0.2718
    145  CB       -33.0930   13.8650   24.9650 C.3   275  TYR275      0.0548
    146  CG       -33.5880   15.2420   25.2060 C.ar  275  TYR275     -0.0200
    147  CD1      -33.0070   16.3490   24.6240 C.ar  275  TYR275     -0.0009
    148  CD2      -34.6740   15.4250   26.0260 C.ar  275  TYR275     -0.0009
    149  CE1      -33.4680   17.6270   24.9290 C.ar  275  TYR275      0.0417
    150  CE2      -35.1430   16.6690   26.3010 C.ar  275  TYR275      0.0417
    151  CZ       -34.5670   17.7720   25.7770 C.ar  275  TYR275      0.1957
    152  OH       -35.1310   19.0110   26.1440 O.3   275  TYR275     -0.2866
    153  N        -30.3480   14.1560   23.9610 N.am  276  GLN276     -0.1965
    154  CA       -29.0560   14.4880   23.3360 C.3   276  GLN276      0.1733
    155  C        -27.9190   13.6810   23.8410 C.2   276  GLN276      0.2616
    156  O        -26.8240   14.1970   23.9470 O.2   276  GLN276     -0.2715
    157  CB       -28.7390   15.9740   23.4820 C.3   276  GLN276      0.0408
    158  CG       -29.7980   16.7820   22.8180 C.3   276  GLN276      0.0908
    159  CD       -29.5580   18.2880   22.7900 C.2   276  GLN276      0.2608
    160  OE1      -29.1420   18.9350   23.7980 O.2   276  GLN276     -0.2717
    161  NE2      -29.8610   18.8730   21.6330 N.am  276  GLN276     -0.0878
    162  N        -28.1810   12.4020   24.1200 N.am  277  GLY277     -0.1955
    163  CA       -27.1840   11.4230   24.5250 C.3   277  GLY277      0.1869
    164  C        -26.9050   11.3790   26.0390 C.2   277  GLY277      0.2309
    165  O        -26.1110   10.6180   26.4710 O.2   277  GLY277     -0.2863
    166  N        -32.4650    3.4270   25.7260 N.3   310  HIS310     -0.1241
    167  CA       -31.5260    3.7820   24.6840 C.3   310  HIS310      0.1621
    168  C        -30.1210    3.7920   25.2220 C.2   310  HIS310      0.2264
    169  O        -29.8590    4.0970   26.3690 O.2   310  HIS310     -0.2867
    170  CB       -31.9360    5.0780   23.9940 C.3   310  HIS310      0.0745
    171  CG       -31.3860    5.2440   22.6420 C.ar  310  HIS310      0.0817
    172  ND1      -31.6650    4.3800   21.6040 N.ar  310  HIS310     -0.2268
    173  CD2      -30.5560    6.2080   22.1280 C.ar  310  HIS310      0.1154
    174  CE1      -31.0050    4.7720   20.5310 C.ar  310  HIS310      0.1986
    175  NE2      -30.3650    5.8900   20.7990 N.ar  310  HIS310     -0.2212
    176  N        -25.8110    7.9370   29.0990 N.3   317  TYR317     -0.1241
    177  CA       -26.9320    7.1700   29.7070 C.3   317  TYR317      0.1605
    178  C        -26.9880    5.6830   29.3910 C.2   317  TYR317      0.2264
    179  O        -27.9290    5.0100   29.7590 O.2   317  TYR317     -0.2867
    180  CB       -28.2570    7.8250   29.4030 C.3   317  TYR317      0.0534
    181  CG       -28.6820    8.0200   27.9890 C.ar  317  TYR317     -0.0201
    182  CD1      -28.6300    6.9840   27.0380 C.ar  317  TYR317     -0.0009
    183  CD2      -29.2540    9.2340   27.5960 C.ar  317  TYR317     -0.0009
    184  CE1      -29.0960    7.2130   25.7700 C.ar  317  TYR317      0.0417
    185  CE2      -29.7330    9.4500   26.3210 C.ar  317  TYR317      0.0417
    186  CZ       -29.6290    8.4380   25.4030 C.ar  317  TYR317      0.1957
    187  OH       -30.1270    8.6120   24.1330 O.3   317  TYR317     -0.2866
@<TRIPOS>BOND
     1    17    16    2
     2    71    72    1
     3    46    47    1
     4    73    74    2
     5    73    72    1
     6    72    75    1
     7    16    15    1
     8    66    65    2
     9    65    64    1
    10    49    48    2
    11    13    12    2
    12    47    50    1
    13    47    48    1
    14    50    51    1
    15    48    54   am
    16    57    56    2
    17    15    18    1
    18    15    14    1
    19    56    55    1
    20    75    76    1
    21    63    64    1
    22    64    67    1
    23    18    19    1
    24    12    14   am
    25    12    11    1
    26    35    34   ar
    27    54    55    1
    28    76    77    1
    29     3     4    2
    30     3     2    1
    31    51    53   am
    32    51    52    2
    33    55    58    1
    34    67    68    1
    35    10    11    1
    36    34    36   ar
    37    34    33    1
    38    19    20    2
    39    19    21   am
    40     8     7   ar
    41    58    59    1
    42     5     2    1
    43     5     6    1
    44     2     1    1
    45    77    78    1
    46    33    30    1
    47    68    70    1
    48    68    69    1
    49     7     6    1
    50     7     9   ar
    51    80    79    1
    52    78    79    2
    53    79    81    1
    54    59    60    1
    55    30    31    1
    56    30    29    1
    57    61    60   ar
    58    37    31   am
    59    37    38    1
    60    60    62   ar
    61    31    32    2
    62    29    24   am
    63    39    38    1
    64    39    40    2
    65    38    41    1
    66   139   138   ar
    67    41    42    1
    68    24    25    2
    69    24    23    1
    70   174   175   ar
    71   174   172   ar
    72   175   173   ar
    73    23    22    1
    74    23    26    1
    75    42    43    1
    76   138   140   ar
    77   138   137    1
    78    22    28    1
    79    43    44    1
    80   172   171   ar
    81   161   159   am
    82   173   171   ar
    83    45    44    1
    84   136   137    1
    85   136   133    1
    86    26    27    1
    87   171   170    1
    88    28    27    1
    89   159   158    1
    90   159   160    2
    91   158   157    1
    92   132   133    1
    93   154   157    1
    94   154   155    1
    95   154   153    1
    96   133   134    1
    97   155   156    2
    98   155   162   am
    99   119   120    1
   100   119   118    1
   101   153   143   am
   102   170   167    1
   103   162   163    1
   104   187   186    1
   105    93    92    1
   106   163   164    1
   107   134   135    2
   108   147   149   ar
   109   147   146   ar
   110   120   114    1
   111   167   168    1
   112   167   166    1
   113    90    92   ar
   114    90    88   ar
   115   118   115    1
   116   149   151   ar
   117   145   146    1
   118   145   142    1
   119    92    91   ar
   120   146   148   ar
   121   168   169    2
   122   143   142    1
   123   143   144    2
   124   186   184   ar
   125   186   185   ar
   126    88    87   ar
   127   142   141    1
   128   184   182   ar
   129   151   152    1
   130   151   150   ar
   131   148   150   ar
   132   164   165    2
   133   114   115    1
   134   114   109   am
   135    91    89   ar
   136   115   116    1
   137   185   183   ar
   138    87    89   ar
   139    87    86    1
   140   108   111    1
   141   108   109    1
   142   108   107    1
   143   111   112    1
   144   182   181   ar
   145   116   117    2
   146   109   110    2
   147    86    83    1
   148   112   113    1
   149   183   181   ar
   150    82    83    1
   151   107   105   am
   152   107   113    1
   153   181   180    1
   154   106   105    2
   155    83    84    1
   156   105   104    1
   157   101   100   ar
   158   130   129    1
   159   102   100   ar
   160    97    96    2
   161   176   177    1
   162   100    99    1
   163   127   126    1
   164   127   128    1
   165   178   177    1
   166   178   179    2
   167   180   177    1
   168   104   103    1
   169    85    84    2
   170   129   128    2
   171   129   131    1
   172   126   125    1
   173    99    98    1
   174    96   103   am
   175    96    95    1
   176    98    95    1
   177    95    94    1
   178   124   123    2
   179   125   122    1
   180   123   122    1
   181   122   121    1
