@<TRIPOS>MOLECULE
tmp/5g0rF00.pdb
 90 89 0 0 0
SMALL
GASTEIGER

@<TRIPOS>ATOM
      1  N         27.0840   35.4650  -72.9250 N.3    85  GLN85      -0.1245
      2  CA        27.9190   36.3500  -72.1300 C.3    85  GLN85       0.1566
      3  C         29.1980   36.6710  -72.8830 C.2    85  GLN85       0.2260
      4  O         29.8120   35.7690  -73.4520 O.2    85  GLN85      -0.2867
      5  CB        28.2350   35.6800  -70.7850 C.3    85  GLN85       0.0367
      6  CG        29.1650   36.4720  -69.8640 C.3    85  GLN85       0.0905
      7  CD        29.0730   36.0230  -68.4300 C.2    85  GLN85       0.2608
      8  OE1       28.2690   36.5620  -67.6640 O.2    85  GLN85      -0.2717
      9  NE2       29.9260   35.0710  -68.0390 N.am   85  GLN85      -0.0878
     10  N         29.1830   43.6060  -65.5400 N.3   116  LEU116     -0.1231
     11  CA        30.3090   43.4410  -64.6200 C.3   116  LEU116      0.1693
     12  C         31.5520   43.9340  -65.3300 C.2   116  LEU116      0.2593
     13  O         31.5500   44.1130  -66.5490 O.2   116  LEU116     -0.2718
     14  CB        30.4770   41.9800  -64.1650 C.3   116  LEU116      0.0284
     15  CG        29.2310   41.2650  -63.6310 C.3   116  LEU116      0.0019
     16  CD1       28.2690   40.7410  -64.7200 C.3   116  LEU116      0.0001
     17  CD2       29.6240   40.0880  -62.7690 C.3   116  LEU116      0.0001
     18  N         32.6660   44.0830  -64.6170 N.am  117  SER117     -0.1938
     19  CA        33.8450   44.6160  -65.2970 C.3   117  SER117      0.2055
     20  C         34.3910   43.6340  -66.3280 C.2   117  SER117      0.2644
     21  O         34.8730   44.0440  -67.4060 O.2   117  SER117     -0.2714
     22  CB        34.9370   45.0460  -64.2940 C.3   117  SER117      0.2130
     23  OG        35.5740   43.9610  -63.6190 O.3   117  SER117     -0.2179
     24  N         34.3330   42.3610  -66.0240 N.am  118  GLY118     -0.1939
     25  CA        34.9590   41.3380  -66.8240 C.3   118  GLY118      0.2014
     26  C         34.0470   40.4940  -67.6880 C.2   118  GLY118      0.2638
     27  O         34.5170   39.5520  -68.3190 O.2   118  GLY118     -0.2714
     28  N         32.7520   40.8000  -67.6750 N.am  119  ARG119     -0.1977
     29  CA        31.7200   39.9620  -68.3150 C.3   119  ARG119      0.1597
     30  C         30.4390   40.7760  -68.3840 C.2   119  ARG119      0.2287
     31  O         30.1590   41.5730  -67.4830 O.2   119  ARG119     -0.2864
     32  CB        31.4710   38.6300  -67.4890 C.3   119  ARG119      0.0334
     33  CG        31.4380   38.8180  -65.9180 C.3   119  ARG119      0.0492
     34  CD        31.1040   37.5610  -65.0730 C.3   119  ARG119      0.2205
     35  NE        29.7250   37.1340  -65.2710 N.pl3 119  ARG119     -0.0865
     36  CZ        28.8760   36.6730  -64.3530 C.cat 119  ARG119      0.5346
     37  NH1       29.1730   36.6080  -63.0540 N.pl3 119  ARG119      0.1354
     38  NH2       27.6810   36.3300  -64.7620 N.pl3 119  ARG119      0.1354
     39  N         31.9750   31.3030  -68.2560 N.3   152  LYS152     -0.1231
     40  CA        32.7370   31.1350  -67.0230 C.3   152  LYS152      0.1693
     41  C         34.2070   31.4040  -67.3100 C.2   152  LYS152      0.2593
     42  O         34.6160   31.4110  -68.4800 O.2   152  LYS152     -0.2718
     43  CB        32.5640   29.7360  -66.4340 C.3   152  LYS152      0.0285
     44  CG        33.4150   28.6390  -67.0570 C.3   152  LYS152      0.0035
     45  CD        33.5040   27.4200  -66.1500 C.3   152  LYS152      0.0206
     46  CE        34.5010   26.3910  -66.6660 C.3   152  LYS152      0.1093
     47  NZ        34.5820   25.1960  -65.7900 N.3   152  LYS152     -0.1314
     48  N         34.9740   31.6070  -66.2430 N.am  153  SER153     -0.1938
     49  CA        36.4240   31.7830  -66.3290 C.3   153  SER153      0.2055
     50  C         36.7280   32.9190  -67.2840 C.2   153  SER153      0.2643
     51  O         37.3640   32.7330  -68.3310 O.2   153  SER153     -0.2714
     52  CB        37.1050   30.4980  -66.7300 C.3   153  SER153      0.2130
     53  OG        36.7620   29.4610  -65.8410 O.3   153  SER153     -0.2179
     54  N         36.2580   34.1050  -66.9160 N.am  154  VAL154     -0.1963
     55  CA        36.1510   35.2480  -67.8250 C.3   154  VAL154      0.1727
     56  C         37.3520   36.1730  -67.8710 C.2   154  VAL154      0.2616
     57  O         37.3980   37.0440  -68.7410 O.2   154  VAL154     -0.2715
     58  CB        34.8780   36.1190  -67.4450 C.3   154  VAL154      0.0290
     59  CG1       33.5960   35.2410  -67.4900 C.3   154  VAL154      0.0023
     60  CG2       34.9990   36.8310  -66.0850 C.3   154  VAL154      0.0023
     61  N         38.2960   35.9840  -66.9370 N.am  155  HIS155     -0.1959
     62  CA        39.5200   36.7910  -66.8190 C.3   155  HIS155      0.1787
     63  C         40.0710   37.1720  -68.1960 C.2   155  HIS155      0.2621
     64  O         40.1710   36.3200  -69.0970 O.2   155  HIS155     -0.2715
     65  CB        40.5390   35.9590  -66.0590 C.3   155  HIS155      0.0785
     66  CG        41.6820   36.6960  -65.4400 C.ar  155  HIS155      0.0821
     67  ND1       41.5340   37.5510  -64.3820 N.ar  155  HIS155     -0.2267
     68  CD2       43.0150   36.6130  -65.6630 C.ar  155  HIS155      0.1154
     69  CE1       42.7280   37.9750  -63.9900 C.ar  155  HIS155      0.1986
     70  NE2       43.6380   37.4080  -64.7390 N.ar  155  HIS155     -0.2212
     71  N         40.4150   38.4310  -68.3540 N.am  156  GLY156     -0.1940
     72  CA        41.0690   38.8680  -69.5690 C.3   156  GLY156      0.2014
     73  C         40.7800   40.2900  -69.9860 C.2   156  GLY156      0.2639
     74  O         41.5600   40.8700  -70.7530 O.2   156  GLY156     -0.2714
     75  N         39.6880   40.8840  -69.5270 N.am  157  HIS157     -0.1959
     76  CA        39.3450   42.2200  -70.0240 C.3   157  HIS157      0.1787
     77  C         40.4610   43.2280  -69.7750 C.2   157  HIS157      0.2620
     78  O         40.6490   44.1690  -70.5510 O.2   157  HIS157     -0.2715
     79  CB        38.0140   42.7300  -69.4210 C.3   157  HIS157      0.0785
     80  CG        38.1140   43.2750  -68.0230 C.ar  157  HIS157      0.0821
     81  ND1       38.1360   42.4840  -66.8930 N.ar  157  HIS157     -0.2267
     82  CD2       38.1780   44.5530  -67.5680 C.ar  157  HIS157      0.1154
     83  CE1       38.2370   43.2510  -65.8190 C.ar  157  HIS157      0.1986
     84  NE2       38.2490   44.5080  -66.1960 N.ar  157  HIS157     -0.2212
     85  N         41.1560   43.0380  -68.6570 N.am  158  SER158     -0.1950
     86  CA        42.1710   43.9550  -68.1680 C.3   158  SER158      0.1924
     87  C         43.5950   43.4700  -68.4100 C.2   158  SER158      0.2314
     88  O         44.5470   44.1050  -67.9500 O.2   158  SER158     -0.2863
     89  CB        41.9270   44.2020  -66.6730 C.3   158  SER158      0.2116
     90  OG        41.7870   42.9400  -66.0450 O.3   158  SER158     -0.2180
@<TRIPOS>BOND
     1     4     3    2
     2     1     2    1
     3     3     2    1
     4     2     5    1
     5     5     6    1
     6    74    73    2
     7    78    77    2
     8    76    77    1
     9    76    75    1
    10    76    79    1
    11    73    72    1
    12    73    75   am
    13     6     7    1
    14    77    85   am
    15    72    71    1
    16    79    80    1
    17    64    63    2
    18    57    56    2
    19    85    86    1
    20    42    41    2
    21     7     9   am
    22     7     8    2
    23    87    86    1
    24    87    88    2
    25    30    29    1
    26    30    31    2
    27    71    63   am
    28    51    50    2
    29    27    26    2
    30    29    28    1
    31    29    32    1
    32    39    40    1
    33    63    62    1
    34    86    89    1
    35    80    82   ar
    36    80    81   ar
    37    56    55    1
    38    56    61   am
    39    55    58    1
    40    55    54    1
    41    26    28   am
    42    26    25    1
    43    82    84   ar
    44    59    58    1
    45    32    33    1
    46    58    60    1
    47    21    20    2
    48    41    40    1
    49    41    48   am
    50    50    54   am
    51    50    49    1
    52    44    43    1
    53    44    45    1
    54    40    43    1
    55    61    62    1
    56    81    83   ar
    57    25    24    1
    58    62    65    1
    59    52    49    1
    60    52    53    1
    61    89    90    1
    62    46    45    1
    63    46    47    1
    64    13    12    2
    65    49    48    1
    66    20    24   am
    67    20    19    1
    68    84    83   ar
    69    65    66    1
    70    33    34    1
    71    68    66   ar
    72    68    70   ar
    73    10    11    1
    74    66    67   ar
    75    12    11    1
    76    12    18   am
    77    19    18    1
    78    19    22    1
    79    35    34    1
    80    35    36    2
    81    38    36    1
    82    70    69   ar
    83    16    15    1
    84    11    14    1
    85    67    69   ar
    86    36    37    1
    87    22    23    1
    88    14    15    1
    89    15    17    1
