@<TRIPOS>MOLECULE
tmp/5g0sB01.pdb
 176 169 0 0 0
SMALL
GASTEIGER

@<TRIPOS>ATOM
      1  N         26.1510  -21.6290   17.9130 N.3    95  GLY95      -0.1210
      2  CA        25.8310  -21.0750   19.2190 C.3    95  GLY95       0.1956
      3  C         26.0820  -22.1050   20.2870 C.2    95  GLY95       0.2612
      4  O         25.9560  -23.3050   20.0270 O.2    95  GLY95      -0.2717
      5  N         26.4040  -21.6360   21.4960 N.am   96  PHE96      -0.1962
      6  CA        26.6210  -22.4900   22.6630 C.3    96  PHE96       0.1771
      7  C         26.7310  -21.6260   23.8910 C.2    96  PHE96       0.2619
      8  O         27.3210  -20.5530   23.8320 O.2    96  PHE96      -0.2715
      9  CB        27.9060  -23.3390   22.5160 C.3    96  PHE96       0.0574
     10  CG        28.1780  -24.2660   23.6820 C.ar   96  PHE96      -0.0200
     11  CD1       27.4870  -25.4640   23.8160 C.ar   96  PHE96      -0.0042
     12  CD2       29.1640  -23.9640   24.6190 C.ar   96  PHE96      -0.0042
     13  CE1       27.7400  -26.3190   24.8910 C.ar   96  PHE96      -0.0003
     14  CE2       29.4210  -24.8300   25.6910 C.ar   96  PHE96      -0.0003
     15  CZ        28.7100  -25.9990   25.8150 C.ar   96  PHE96      -0.0000
     16  N         26.1820  -22.0990   25.0070 N.am   97  MET97      -0.1964
     17  CA        26.3290  -21.4170   26.2930 C.3    97  MET97       0.1722
     18  C         26.3460  -22.5230   27.3840 C.2    97  MET97       0.2458
     19  O         25.3620  -23.2530   27.4960 O.2    97  MET97      -0.2730
     20  CB        25.2230  -20.3610   26.5050 C.3    97  MET97       0.0427
     21  CG        25.3280  -19.5620   27.8220 C.3    97  MET97       0.0599
     22  SD        26.8840  -18.6850   28.0860 S.3    97  MET97      -0.1393
     23  CE        26.7020  -17.3190   26.9110 C.3    97  MET97       0.0692
     24  N         27.4460  -22.7150   28.1580 N.am   98  PRO98      -0.2716
     25  CA        27.4440  -23.7860   29.1820 C.3    98  PRO98       0.1536
     26  C         26.2250  -23.7620   30.1260 C.2    98  PRO98       0.2598
     27  O         25.6910  -22.6910   30.4020 O.2    98  PRO98      -0.2715
     28  CB        28.7830  -23.6000   29.9020 C.3    98  PRO98       0.0310
     29  CG        29.6600  -22.9080   28.9040 C.3    98  PRO98       0.0237
     30  CD        28.7400  -21.9960   28.1330 C.3    98  PRO98       0.0939
     31  N         25.7260  -24.9570   30.5210 N.am   99  GLN99      -0.1978
     32  CA        24.5320  -25.2350   31.3520 C.3    99  GLN99       0.1601
     33  C         24.2140  -24.1960   32.4250 C.2    99  GLN99       0.2287
     34  O         23.0440  -23.8290   32.5850 O.2    99  GLN99      -0.2864
     35  CB        24.6350  -26.6300   32.0020 C.3    99  GLN99       0.0394
     36  CG        23.4140  -27.0350   32.8260 C.3    99  GLN99       0.0908
     37  CD        22.1530  -27.1780   31.9850 C.2    99  GLN99       0.2608
     38  OE1       22.1970  -27.6670   30.8540 O.2    99  GLN99      -0.2717
     39  NE2       21.0250  -26.7420   32.5340 N.am   99  GLN99      -0.0878
     40  N         22.1480  -20.9550   31.4610 N.3   102  MET102     -0.1245
     41  CA        20.8260  -21.1470   30.8630 C.3   102  MET102      0.1570
     42  C         19.8890  -21.9250   31.7900 C.2   102  MET102      0.2261
     43  O         20.3410  -22.6650   32.6700 O.2   102  MET102     -0.2867
     44  CB        20.9540  -21.9120   29.5310 C.3   102  MET102      0.0387
     45  CG        21.1600  -21.0350   28.3050 C.3   102  MET102      0.0595
     46  SD        21.4090  -22.0560   26.8220 S.3   102  MET102     -0.1393
     47  CE        20.2500  -21.3470   25.7740 C.3   102  MET102      0.0692
     48  N         18.5920  -14.5900   17.7870 N.3   148  PHE148     -0.1241
     49  CA        17.3170  -14.7290   18.5050 C.3   148  PHE148      0.1605
     50  C         17.1680  -13.3800   19.2060 C.2   148  PHE148      0.2264
     51  O         18.0140  -13.0230   20.0400 O.2   148  PHE148     -0.2867
     52  CB        17.3260  -15.9040   19.5140 C.3   148  PHE148      0.0534
     53  CG        15.9490  -16.1740   20.1100 C.ar  148  PHE148     -0.0203
     54  CD1       14.8900  -16.6050   19.3020 C.ar  148  PHE148     -0.0042
     55  CD2       15.7310  -16.0420   21.4770 C.ar  148  PHE148     -0.0042
     56  CE1       13.6220  -16.8640   19.8470 C.ar  148  PHE148     -0.0003
     57  CE2       14.4710  -16.3320   22.0380 C.ar  148  PHE148     -0.0003
     58  CZ        13.4190  -16.7190   21.2120 C.ar  148  PHE148     -0.0000
     59  N         14.2010  -12.3030   29.0960 N.3   154  MET154     -0.1231
     60  CA        13.1840  -13.3480   29.0660 C.3   154  MET154      0.1687
     61  C         13.6060  -14.4780   29.9980 C.2   154  MET154      0.2434
     62  O         14.7830  -14.5930   30.3240 O.2   154  MET154     -0.2733
     63  CB        13.0350  -13.8830   27.6180 C.3   154  MET154      0.0400
     64  CG        14.2840  -14.5430   27.0800 C.3   154  MET154      0.0596
     65  SD        14.1930  -14.9450   25.3370 S.3   154  MET154     -0.1393
     66  CE        14.6240  -13.3830   24.5960 C.3   154  MET154      0.0692
     67  N         12.6780  -15.3620   30.4030 N.am  155  PRO155     -0.2718
     68  CA        13.1090  -16.4700   31.2720 C.3   155  PRO155      0.1535
     69  C         14.0290  -17.4420   30.5400 C.2   155  PRO155      0.2598
     70  O         13.9790  -17.5410   29.3160 O.2   155  PRO155     -0.2715
     71  CB        11.7990  -17.1440   31.6990 C.3   155  PRO155      0.0310
     72  CG        10.7470  -16.6680   30.7430 C.3   155  PRO155      0.0237
     73  CD        11.2240  -15.3860   30.1180 C.3   155  PRO155      0.0939
     74  N         14.9120  -18.1140   31.3000 N.am  156  ALA156     -0.1964
     75  CA        15.7740  -19.2200   30.9160 C.3   156  ALA156      0.1728
     76  C         16.8920  -18.9490   29.8960 C.2   156  ALA156      0.2616
     77  O         17.9430  -19.5450   30.0610 O.2   156  ALA156     -0.2715
     78  CB        14.9380  -20.3980   30.4260 C.3   156  ALA156      0.0334
     79  N         16.6880  -18.1310   28.8560 N.am  157  TYR157     -0.1974
     80  CA        17.7320  -17.8860   27.8410 C.3   157  TYR157      0.1639
     81  C         18.9890  -17.2410   28.4570 C.2   157  TYR157      0.2290
     82  O         20.0940  -17.4400   27.9530 O.2   157  TYR157     -0.2864
     83  CB        17.1800  -17.0570   26.6690 C.3   157  TYR157      0.0560
     84  CG        17.8900  -17.2590   25.3440 C.ar  157  TYR157     -0.0198
     85  CD1       18.1110  -18.5360   24.8360 C.ar  157  TYR157     -0.0009
     86  CD2       18.2410  -16.1740   24.5480 C.ar  157  TYR157     -0.0009
     87  CE1       18.7030  -18.7270   23.5830 C.ar  157  TYR157      0.0417
     88  CE2       18.8480  -16.3490   23.3000 C.ar  157  TYR157      0.0417
     89  CZ        19.0430  -17.6280   22.8060 C.ar  157  TYR157      0.1957
     90  OH        19.6280  -17.8210   21.5750 O.3   157  TYR157     -0.2866
     91  N         22.7170  -16.6030   27.2450 N.3   160  MET160     -0.1245
     92  CA        22.6830  -16.7510   25.7750 C.3   160  MET160      0.1570
     93  C         22.0400  -15.4760   25.1700 C.2   160  MET160      0.2261
     94  O         22.4620  -15.0390   24.1000 O.2   160  MET160     -0.2867
     95  CB        21.9610  -18.0370   25.3340 C.3   160  MET160      0.0387
     96  CG        22.1490  -18.3650   23.8540 C.3   160  MET160      0.0595
     97  SD        23.8810  -18.6960   23.3940 S.3   160  MET160     -0.1393
     98  CE        23.7380  -18.3980   21.6290 C.3   160  MET160      0.0692
     99  N         23.6760  -13.0490   22.2860 N.3   164  LYS164     -0.1245
    100  CA        22.9880  -12.5470   21.0810 C.3   164  LYS164      0.1561
    101  C         23.0620  -10.9980   20.9850 C.2   164  LYS164      0.2260
    102  O         23.2390  -10.4670   19.8810 O.2   164  LYS164     -0.2867
    103  CB        21.5250  -13.0260   21.0110 C.3   164  LYS164      0.0271
    104  CG        21.3740  -14.5560   20.7770 C.3   164  LYS164      0.0035
    105  CD        22.1140  -15.0410   19.5040 C.3   164  LYS164      0.0206
    106  CE        21.6870  -16.4450   19.1210 C.3   164  LYS164      0.1093
    107  NZ        22.5290  -16.9790   18.0090 N.3   164  LYS164     -0.1314
    108  N         11.2900  -19.2990   17.6510 N.3   192  PRO192     -0.2102
    109  CA        11.8080  -20.5570   18.2200 C.3   192  PRO192      0.1504
    110  C         11.5420  -21.7700   17.3120 C.2   192  PRO192      0.2575
    111  O         10.4500  -21.9110   16.7670 O.2   192  PRO192     -0.2718
    112  CB        11.0460  -20.6710   19.5600 C.3   192  PRO192      0.0282
    113  CG         9.7550  -19.9320   19.3240 C.3   192  PRO192      0.0208
    114  CD        10.1790  -18.7560   18.4620 C.3   192  PRO192      0.0893
    115  N         12.5440  -22.6170   17.1360 N.am  193  ILE193     -0.1980
    116  CA        12.4670  -23.8320   16.3130 C.3   193  ILE193      0.1595
    117  C         12.8300  -24.9990   17.2130 C.2   193  ILE193      0.2287
    118  O         13.8660  -24.9480   17.8890 O.2   193  ILE193     -0.2864
    119  CB        13.4160  -23.7530   15.0730 C.3   193  ILE193      0.0276
    120  CG1       13.0710  -22.5570   14.1120 C.3   193  ILE193      0.0022
    121  CG2       13.4760  -25.1140   14.3100 C.3   193  ILE193      0.0022
    122  CD1       11.7230  -22.7140   13.2720 C.3   193  ILE193      0.0001
    123  N         14.6440  -27.5690   17.8440 N.3   195  THR195     -0.1218
    124  CA        15.9020  -28.2700   17.5630 C.3   195  THR195      0.1862
    125  C         16.1590  -29.1360   18.8240 C.2   195  THR195      0.2287
    126  O         15.2800  -29.1860   19.7030 O.2   195  THR195     -0.2866
    127  CB        17.0330  -27.2600   17.2640 C.3   195  THR195      0.1770
    128  OG1       17.0620  -26.2840   18.3010 O.3   195  THR195     -0.2211
    129  CG2       16.8470  -26.5450   15.9540 C.3   195  THR195      0.0375
    130  N         18.2940  -28.7580   21.5210 N.3   197  ALA197     -0.1231
    131  CA        18.3790  -27.9560   22.7500 C.3   197  ALA197      0.1694
    132  C         17.0190  -27.4360   23.2100 C.2   197  ALA197      0.2591
    133  O         16.7150  -27.5230   24.3980 O.2   197  ALA197     -0.2718
    134  CB        19.3450  -26.7910   22.5680 C.3   197  ALA197      0.0304
    135  N         16.2060  -26.9070   22.2700 N.am  198  MET198     -0.1979
    136  CA        14.8640  -26.3600   22.5070 C.3   198  MET198      0.1605
    137  C         13.9070  -27.3930   23.0880 C.2   198  MET198      0.2287
    138  O         13.1870  -27.0760   24.0350 O.2   198  MET198     -0.2864
    139  CB        14.2910  -25.7920   21.2100 C.3   198  MET198      0.0413
    140  CG        14.9280  -24.4910   20.8060 C.3   198  MET198      0.0598
    141  SD        14.0350  -23.0470   21.4280 S.3   198  MET198     -0.1393
    142  CE        12.3760  -23.5040   21.1030 C.3   198  MET198      0.0692
    143  N         14.8040  -30.1720   24.6840 N.3   200  ALA200     -0.1231
    144  CA        15.3600  -30.5760   25.9780 C.3   200  ALA200      0.1694
    145  C         14.9550  -29.5910   27.0700 C.2   200  ALA200      0.2591
    146  O         14.5300  -30.0300   28.1410 O.2   200  ALA200     -0.2718
    147  CB        16.8760  -30.6810   25.8910 C.3   200  ALA200      0.0304
    148  N         15.0600  -28.2610   26.7900 N.am  201  ILE201     -0.1980
    149  CA        14.6940  -27.1730   27.7070 C.3   201  ILE201      0.1595
    150  C         13.2060  -27.2390   28.0490 C.2   201  ILE201      0.2287
    151  O         12.8590  -27.2050   29.2300 O.2   201  ILE201     -0.2864
    152  CB        15.1060  -25.7800   27.1600 C.3   201  ILE201      0.0276
    153  CG1       16.6440  -25.6690   27.2080 C.3   201  ILE201      0.0022
    154  CG2       14.4290  -24.6670   27.9220 C.3   201  ILE201      0.0022
    155  CD1       17.1940  -24.4840   26.4630 C.3   201  ILE201      0.0001
    156  N         14.9740  -30.3980   30.9580 N.3   205  ALA205     -0.1245
    157  CA        16.3880  -30.7530   31.1190 C.3   205  ALA205      0.1562
    158  C         17.3340  -29.7170   30.5220 C.2   205  ALA205      0.2260
    159  O         17.1220  -29.2410   29.4100 O.2   205  ALA205     -0.2867
    160  CB        16.6560  -32.1240   30.5150 C.3   205  ALA205      0.0290
    161  N          9.4300  -21.7220   28.8940 N.3   213  ILE213     -0.1245
    162  CA         9.7550  -21.8300   27.4650 C.3   213  ILE213      0.1561
    163  C          8.5340  -22.3580   26.6870 C.2   213  ILE213      0.2260
    164  O          8.3080  -21.9170   25.5580 O.2   213  ILE213     -0.2867
    165  CB        11.0910  -22.6000   27.2410 C.3   213  ILE213      0.0252
    166  CG1       12.2690  -21.8790   27.9700 C.3   213  ILE213      0.0019
    167  CG2       11.4320  -22.8080   25.7570 C.3   213  ILE213      0.0019
    168  CD1       12.2790  -20.2400   27.8970 C.3   213  ILE213      0.0001
    169  N          6.6100  -19.2320   26.2880 N.3   216  LEU216     -0.1245
    170  CA         7.2810  -18.4110   25.2570 C.3   216  LEU216      0.1561
    171  C          6.8370  -18.8550   23.8430 C.2   216  LEU216      0.2260
    172  O          6.4580  -18.0140   23.0340 O.2   216  LEU216     -0.2867
    173  CB         8.8070  -18.5040   25.4280 C.3   216  LEU216      0.0270
    174  CG         9.6580  -17.5550   24.5580 C.3   216  LEU216      0.0019
    175  CD1       10.6220  -16.7600   25.4010 C.3   216  LEU216      0.0001
    176  CD2       10.3960  -18.3290   23.4860 C.3   216  LEU216      0.0001
@<TRIPOS>BOND
     1   122   120    1
     2   120   119    1
     3   121   119    1
     4   119   116    1
     5   129   127    1
     6   116   115    1
     7   116   117    1
     8   111   110    2
     9   115   110   am
    10   117   118    2
    11   127   124    1
    12   127   128    1
    13   110   109    1
    14   124   123    1
    15   124   125    1
    16   108   109    1
    17   108   114    1
    18    48    49    1
    19     1     2    1
    20   107   106    1
    21   109   112    1
    22   114   113    1
    23    49    50    1
    24    49    52    1
    25   125   126    2
    26   106   105    1
    27    50    51    2
    28     2     3    1
    29    54    56   ar
    30    54    53   ar
    31   113   112    1
    32   105   104    1
    33    52    53    1
    34    56    58   ar
    35   102   101    2
    36     4     3    2
    37    53    55   ar
    38     3     5   am
    39   104   103    1
    40   140   139    1
    41   140   141    1
    42   101   100    1
    43   103   100    1
    44   100    99    1
    45   142   141    1
    46   139   136    1
    47    58    57   ar
    48    55    57   ar
    49     5     6    1
    50   130   131    1
    51    90    89    1
    52    98    97    1
    53   135   136    1
    54   135   132   am
    55   136   137    1
    56     9     6    1
    57     9    10    1
    58   134   131    1
    59     6     7    1
    60   131   132    1
    61    89    88   ar
    62    89    87   ar
    63   172   171    2
    64   137   138    2
    65   132   133    2
    66    88    86   ar
    67    97    96    1
    68   176   174    1
    69    87    85   ar
    70    10    11   ar
    71    10    12   ar
    72    11    13   ar
    73     8     7    2
    74   171   170    1
    75    96    95    1
    76     7    16   am
    77    94    93    2
    78    86    84   ar
    79   174   175    1
    80   174   173    1
    81    66    65    1
    82    12    14   ar
    83   143   144    1
    84    85    84   ar
    85    13    15   ar
    86    16    17    1
    87    93    92    1
    88   170   173    1
    89   170   169    1
    90    95    92    1
    91    65    64    1
    92    84    83    1
    93   164   163    2
    94    14    15   ar
    95   167   165    1
    96    47    46    1
    97    92    91    1
    98   147   144    1
    99   144   145    1
   100    17    20    1
   101    17    18    1
   102   155   153    1
   103    20    21    1
   104    83    80    1
   105   163   162    1
   106   148   145   am
   107   148   149    1
   108    46    45    1
   109    23    22    1
   110   145   146    2
   111    64    63    1
   112   152   153    1
   113   152   149    1
   114   152   154    1
   115   165   162    1
   116   165   166    1
   117    18    19    2
   118    18    24   am
   119   162   161    1
   120    63    60    1
   121   149   150    1
   122    21    22    1
   123    80    81    1
   124    80    79    1
   125   168   166    1
   126    82    81    2
   127   150   151    2
   128    30    24    1
   129    30    29    1
   130    24    25    1
   131    45    44    1
   132    79    76   am
   133    29    28    1
   134    60    59    1
   135    60    61    1
   136    25    28    1
   137    25    26    1
   138    70    69    2
   139   159   158    2
   140    44    41    1
   141    76    77    2
   142    76    75    1
   143    61    62    2
   144    61    67   am
   145    73    67    1
   146    73    72    1
   147    26    27    2
   148    26    31   am
   149    67    68    1
   150    78    75    1
   151   160   157    1
   152    31    32    1
   153   158   157    1
   154    69    68    1
   155    69    74   am
   156    72    71    1
   157    38    37    2
   158    41    40    1
   159    41    42    1
   160    75    74    1
   161   156   157    1
   162    68    71    1
   163    32    35    1
   164    32    33    1
   165    42    43    2
   166    37    39   am
   167    37    36    1
   168    35    36    1
   169    33    34    2
