@<TRIPOS>MOLECULE
tmp/5g0tD01.pdb
 167 162 0 0 0
SMALL
GASTEIGER

@<TRIPOS>ATOM
      1  N         34.6420    0.1620   33.6190 N.3    90  GLY90      -0.1210
      2  CA        34.7920   -0.2290   32.2280 C.3    90  GLY90       0.1956
      3  C         36.2510   -0.4380   31.9210 C.2    90  GLY90       0.2612
      4  O         37.1120    0.1520   32.5770 O.2    90  GLY90      -0.2717
      5  N         36.5200   -1.3130   30.9390 N.am   91  PHE91      -0.1962
      6  CA        37.8850   -1.6500   30.5470 C.3    91  PHE91       0.1771
      7  C         37.8770   -2.3400   29.2130 C.2    91  PHE91       0.2619
      8  O         37.0570   -3.2350   28.9750 O.2    91  PHE91      -0.2715
      9  CB        38.5850   -2.5620   31.5840 C.3    91  PHE91       0.0574
     10  CG        39.9620   -3.0720   31.1850 C.ar   91  PHE91      -0.0200
     11  CD1       41.0930   -2.2900   31.3740 C.ar   91  PHE91      -0.0042
     12  CD2       40.1130   -4.3170   30.5890 C.ar   91  PHE91      -0.0042
     13  CE1       42.3540   -2.7520   30.9870 C.ar   91  PHE91      -0.0003
     14  CE2       41.3770   -4.7890   30.2370 C.ar   91  PHE91      -0.0003
     15  CZ        42.4800   -3.9910   30.4070 C.ar   91  PHE91      -0.0000
     16  N         38.8540   -1.9520   28.3630 N.am   92  MET92      -0.1964
     17  CA        39.0870   -2.6130   27.0820 C.3    92  MET92       0.1722
     18  C         40.5320   -2.3930   26.6860 C.2    92  MET92       0.2458
     19  O         40.9350   -1.2300   26.5720 O.2    92  MET92      -0.2730
     20  CB        38.1080   -2.1570   25.9710 C.3    92  MET92       0.0427
     21  CG        38.1690   -3.0130   24.6950 C.3    92  MET92       0.0599
     22  SD        37.8340   -4.8070   24.8780 S.3    92  MET92      -0.1393
     23  CE        36.0990   -4.8010   25.2480 C.3    92  MET92       0.0692
     24  N         41.3370   -3.4740   26.4910 N.am   93  PRO93      -0.2716
     25  CA        42.7290   -3.2660   26.0270 C.3    93  PRO93       0.1536
     26  C         42.7780   -2.5270   24.6700 C.2    93  PRO93       0.2598
     27  O         41.8060   -2.5640   23.8860 O.2    93  PRO93      -0.2715
     28  CB        43.2890   -4.7010   25.9070 C.3    93  PRO93       0.0310
     29  CG        42.4170   -5.5360   26.8360 C.3    93  PRO93       0.0237
     30  CD        41.0310   -4.9190   26.6330 C.3    93  PRO93       0.0939
     31  N         43.9290   -1.8620   24.3710 N.am   94  GLN94      -0.1978
     32  CA        44.1510   -1.1110   23.1250 C.3    94  GLN94       0.1601
     33  C         43.9490   -1.9960   21.8740 C.2    94  GLN94       0.2287
     34  O         43.6440   -1.4710   20.8120 O.2    94  GLN94      -0.2864
     35  CB        45.5580   -0.4830   23.1030 C.3    94  GLN94       0.0394
     36  CG        45.8480    0.3740   21.8710 C.3    94  GLN94       0.0908
     37  CD        44.9580    1.6050   21.7850 C.2    94  GLN94       0.2608
     38  OE1       44.6560    2.2420   22.7960 O.2    94  GLN94      -0.2717
     39  NE2       44.5290    1.9390   20.5730 N.am   94  GLN94      -0.0878
     40  N         40.0170   -1.4220   21.2810 N.3    97  MET97      -0.1245
     41  CA        39.4490   -0.0620   21.2510 C.3    97  MET97       0.1570
     42  C         40.5970    0.8850   20.9000 C.2    97  MET97       0.2261
     43  O         41.6640    0.7940   21.5110 O.2    97  MET97      -0.2867
     44  CB        38.9310    0.2670   22.6660 C.3    97  MET97       0.0387
     45  CG        38.3160    1.6370   22.8110 C.3    97  MET97       0.0595
     46  SD        37.7710    1.8910   24.5040 S.3    97  MET97      -0.1393
     47  CE        37.4680    3.6740   24.4720 C.3    97  MET97       0.0692
     48  N         27.2580    3.6870   27.0940 N.3   143  PHE143     -0.1241
     49  CA        27.5460    4.5680   25.9460 C.3   143  PHE143      0.1605
     50  C         26.7760    3.9040   24.8240 C.2   143  PHE143      0.2264
     51  O         27.0510    2.7360   24.5160 O.2   143  PHE143     -0.2867
     52  CB        29.0430    4.6910   25.6360 C.3   143  PHE143      0.0534
     53  CG        29.3720    5.7270   24.5850 C.ar  143  PHE143     -0.0203
     54  CD1       29.1270    7.0770   24.8140 C.ar  143  PHE143     -0.0042
     55  CD2       29.9380    5.3540   23.3670 C.ar  143  PHE143     -0.0042
     56  CE1       29.4160    8.0380   23.8340 C.ar  143  PHE143     -0.0003
     57  CE2       30.2280    6.3160   22.3870 C.ar  143  PHE143     -0.0003
     58  CZ        29.9670    7.6490   22.6270 C.ar  143  PHE143     -0.0000
     59  N         30.4950    2.5340   15.2130 N.3   149  MET149     -0.1231
     60  CA        31.1740    3.8110   15.0590 C.3   149  MET149      0.1687
     61  C         32.6920    3.5750   14.9820 C.2   149  MET149      0.2434
     62  O         33.1740    2.4980   15.3590 O.2   149  MET149     -0.2733
     63  CB        30.8510    4.7060   16.2700 C.3   149  MET149      0.0400
     64  CG        31.4430    4.1920   17.5610 C.3   149  MET149      0.0596
     65  SD        30.7710    5.1120   18.9550 S.3   149  MET149     -0.1393
     66  CE        29.1830    4.1820   19.2330 C.3   149  MET149      0.0692
     67  N         33.4720    4.5760   14.5530 N.am  150  PRO150     -0.2718
     68  CA        34.9320    4.4030   14.5580 C.3   150  PRO150      0.1535
     69  C         35.4940    4.2330   15.9720 C.2   150  PRO150      0.2598
     70  O         34.9310    4.7700   16.9360 O.2   150  PRO150     -0.2715
     71  CB        35.4620    5.7450   14.0040 C.3   150  PRO150      0.0310
     72  CG        34.3020    6.4280   13.4060 C.3   150  PRO150      0.0237
     73  CD        33.0690    5.9090   14.0520 C.3   150  PRO150      0.0939
     74  N         36.6400    3.5240   16.0750 N.am  151  ALA151     -0.1964
     75  CA        37.4820    3.3670   17.2710 C.3   151  ALA151      0.1728
     76  C         36.8890    2.6140   18.4520 C.2   151  ALA151      0.2616
     77  O         37.6200    1.8360   19.0620 O.2   151  ALA151     -0.2715
     78  CB        37.9950    4.7330   17.7650 C.3   151  ALA151      0.0334
     79  N         35.6230    2.8500   18.8200 N.am  152  TYR152     -0.1974
     80  CA        35.0410    2.2130   20.0280 C.3   152  TYR152      0.1639
     81  C         35.0260    0.6890   19.9200 C.2   152  TYR152      0.2290
     82  O         35.1530    0.0000   20.9250 O.2   152  TYR152     -0.2864
     83  CB        33.6770    2.8140   20.3540 C.3   152  TYR152      0.0560
     84  CG        33.2750    2.7530   21.8200 C.ar  152  TYR152     -0.0198
     85  CD1       34.0800    3.3160   22.8120 C.ar  152  TYR152     -0.0009
     86  CD2       32.0500    2.2190   22.2040 C.ar  152  TYR152     -0.0009
     87  CE1       33.6980    3.2910   24.1590 C.ar  152  TYR152      0.0417
     88  CE2       31.6590    2.1830   23.5470 C.ar  152  TYR152      0.0417
     89  CZ        32.4760    2.7380   24.5200 C.ar  152  TYR152      0.1957
     90  OH        32.0830    2.6880   25.8480 O.3   152  TYR152     -0.2866
     91  N         34.6610   -2.2610   22.6320 N.3   155  MET155     -0.1245
     92  CA        34.0220   -1.6530   23.8020 C.3   155  MET155      0.1570
     93  C         32.5320   -1.4240   23.4570 C.2   155  MET155      0.2261
     94  O         31.6840   -1.5650   24.3420 O.2   155  MET155     -0.2867
     95  CB        34.7060   -0.3550   24.2490 C.3   155  MET155      0.0387
     96  CG        34.1930    0.1460   25.5920 C.3   155  MET155      0.0595
     97  SD        34.5950   -0.9750   26.9470 S.3   155  MET155     -0.1393
     98  CE        33.3960   -0.4650   28.1430 C.3   155  MET155      0.0692
     99  N         29.3410   -2.8080   25.5960 N.3   159  LYS159     -0.1245
    100  CA        28.1570   -2.0260   26.0230 C.3   159  LYS159      0.1561
    101  C         26.8630   -2.6770   25.5720 C.2   159  LYS159      0.2260
    102  O         25.8650   -2.6520   26.3180 O.2   159  LYS159     -0.2867
    103  CB        28.2280   -0.5600   25.5520 C.3   159  LYS159      0.0271
    104  CG        29.3210    0.2670   26.2490 C.3   159  LYS159      0.0035
    105  CD        29.1890    0.2590   27.7920 C.3   159  LYS159      0.0206
    106  CE        30.1240    1.2850   28.4160 C.3   159  LYS159      0.1093
    107  NZ        30.1350    1.2280   29.9260 N.3   159  LYS159     -0.1314
    108  N         29.8640   11.6830   25.1890 N.3   187  PRO187     -0.2102
    109  CA        31.2980   11.5690   25.4740 C.3   187  PRO187      0.1504
    110  C         31.7880   12.5890   26.5010 C.2   187  PRO187      0.2575
    111  O         31.3930   13.7500   26.4540 O.2   187  PRO187     -0.2718
    112  CB        31.9530   11.7430   24.1030 C.3   187  PRO187      0.0282
    113  CG        30.9490   12.5380   23.2850 C.3   187  PRO187      0.0208
    114  CD        29.6140   12.0560   23.7810 C.3   187  PRO187      0.0893
    115  N         32.6320   12.1420   27.4500 N.am  188  ILE188     -0.1980
    116  CA        33.1930   13.0090   28.4840 C.3   188  ILE188      0.1595
    117  C         34.7120   12.9310   28.4070 C.2   188  ILE188      0.2287
    118  O         35.2610   11.8320   28.2660 O.2   188  ILE188     -0.2864
    119  CB        32.6600   12.5710   29.8920 C.3   188  ILE188      0.0276
    120  CG1       31.1270   12.7830   30.0220 C.3   188  ILE188      0.0022
    121  CG2       33.4390   13.2310   31.0640 C.3   188  ILE188      0.0022
    122  CD1       30.6500   14.2260   30.2000 C.3   188  ILE188      0.0001
    123  N         37.4780   12.2900   29.9490 N.3   190  THR190     -0.1218
    124  CA        38.1390   11.6350   31.0800 C.3   190  THR190      0.1862
    125  C         39.5810   11.3290   30.6720 C.2   190  THR190      0.2287
    126  O         40.0050   11.7250   29.5850 O.2   190  THR190     -0.2866
    127  CB        37.3850   10.3720   31.5100 C.3   190  THR190      0.1770
    128  OG1       37.1800    9.5520   30.3560 O.3   190  THR190     -0.2211
    129  CG2       36.0580   10.6830   32.1850 C.3   190  THR190      0.0375
    130  N         47.3040   11.4760   21.0550 N.3   192  ALA192     -0.1231
    131  CA        48.0040   10.2700   21.5020 C.3   192  ALA192      0.1694
    132  C         47.8320    9.0590   20.5640 C.2   192  ALA192      0.2591
    133  O         48.7280    8.2240   20.5210 O.2   192  ALA192     -0.2718
    134  CB        47.5940    9.9170   22.9210 C.3   192  ALA192      0.0304
    135  N         46.7180    8.9900   19.7980 N.am  193  LEU193     -0.1980
    136  CA        46.4430    7.9010   18.8530 C.3   193  LEU193      0.1596
    137  C         46.7670    8.2250   17.3580 C.2   193  LEU193      0.2287
    138  O         46.4210    7.4370   16.4750 O.2   193  LEU193     -0.2864
    139  CB        44.9910    7.4310   18.9930 C.3   193  LEU193      0.0297
    140  CG        44.5840    6.9140   20.3670 C.3   193  LEU193      0.0022
    141  CD1       43.0920    6.6690   20.4500 C.3   193  LEU193      0.0001
    142  CD2       45.3290    5.6450   20.7370 C.3   193  LEU193      0.0001
    143  N         37.8900   10.9820   15.7060 N.3   201  ILE201     -0.1245
    144  CA        37.2910   11.0370   17.0400 C.3   201  ILE201      0.1561
    145  C         36.8300   12.4720   17.3520 C.2   201  ILE201      0.2260
    146  O         35.7690   12.6570   17.9560 O.2   201  ILE201     -0.2867
    147  CB        38.2300   10.3860   18.1060 C.3   201  ILE201      0.0252
    148  CG1       38.3380    8.8460   17.8420 C.3   201  ILE201      0.0019
    149  CG2       37.7700   10.6740   19.5520 C.3   201  ILE201      0.0019
    150  CD1       39.6500    8.1450   18.3050 C.3   201  ILE201      0.0001
    151  N         33.5810   12.8760   15.6120 N.3   204  LEU204     -0.1231
    152  CA        32.5670   12.1330   16.3740 C.3   204  LEU204      0.1693
    153  C         32.0500   13.0330   17.5170 C.2   204  LEU204      0.2591
    154  O         30.8410   13.1110   17.7230 O.2   204  LEU204     -0.2718
    155  CB        33.1590   10.7960   16.8940 C.3   204  LEU204      0.0284
    156  CG        32.2160    9.8200   17.6380 C.3   204  LEU204      0.0019
    157  CD1       32.7640    8.3940   17.5570 C.3   204  LEU204      0.0001
    158  CD2       32.0700   10.2040   19.1150 C.3   204  LEU204      0.0001
    159  N         32.9590   13.7740   18.1970 N.am  205  GLU205     -0.1979
    160  CA        32.6620   14.7210   19.2940 C.3   205  GLU205      0.1602
    161  C         31.9450   16.0310   18.8700 C.2   205  GLU205      0.2287
    162  O         30.9700   16.4010   19.5250 O.2   205  GLU205     -0.2864
    163  CB        33.9600   15.0480   20.0610 C.3   205  GLU205      0.0415
    164  CG        34.6420   13.7810   20.5770 C.3   205  GLU205      0.1163
    165  CD        35.9750   14.0440   21.1740 C.2   205  GLU205      0.3649
    166  OE1       36.7360   14.8500   20.6160 O.co2 205  GLU205     -0.2457
    167  OE2       36.3360   13.3920   22.1740 O.co2 205  GLU205     -0.2457
@<TRIPOS>BOND
     1    72    71    1
     2    72    73    1
     3    71    68    1
     4    73    67    1
     5    67    68    1
     6    67    61   am
     7    68    69    1
     8    61    60    1
     9    61    62    2
    10    60    59    1
    11    60    63    1
    12   151   152    1
    13   143   144    1
    14    69    74   am
    15    69    70    2
    16    74    75    1
    17    63    64    1
    18   152   155    1
    19   152   153    1
    20   138   137    2
    21   155   156    1
    22   144   145    1
    23   144   147    1
    24    75    78    1
    25    75    76    1
    26   145   146    2
    27   137   136    1
    28   153   154    2
    29   153   159   am
    30   157   156    1
    31    64    65    1
    32   156   158    1
    33   148   147    1
    34   148   150    1
    35   147   149    1
    36   159   160    1
    37    76    79   am
    38    76    77    2
    39    79    80    1
    40   136   139    1
    41   136   135    1
    42   161   160    1
    43   161   162    2
    44    65    66    1
    45   139   140    1
    46   160   163    1
    47   135   132   am
    48    81    80    1
    49    81    82    2
    50    80    83    1
    51   163   164    1
    52    83    84    1
    53   140   141    1
    54   140   142    1
    55   133   132    2
    56   132   131    1
    57    39    37   am
    58   164   165    1
    59   166   165   ar
    60    34    33    2
    61    42    41    1
    62    42    43    2
    63   130   131    1
    64   165   167   ar
    65    41    40    1
    66    41    44    1
    67   131   134    1
    68    37    36    1
    69    37    38    2
    70    84    86   ar
    71    84    85   ar
    72    36    35    1
    73    33    32    1
    74    86    88   ar
    75    57    58   ar
    76    57    55   ar
    77    58    56   ar
    78    91    92    1
    79    44    45    1
    80    45    46    1
    81    85    87   ar
    82    35    32    1
    83    32    31    1
    84   113   114    1
    85   113   112    1
    86    55    53   ar
    87    93    92    1
    88    93    94    2
    89    88    89   ar
    90   114   108    1
    91    92    95    1
    92    56    54   ar
    93    27    26    2
    94   112   109    1
    95    87    89   ar
    96    95    96    1
    97    31    26   am
    98    47    46    1
    99    51    50    2
   100    89    90    1
   101    53    54   ar
   102    53    52    1
   103    26    25    1
   104    21    22    1
   105    21    20    1
   106    50    49    1
   107    22    23    1
   108   108   109    1
   109   109   110    1
   110   103   100    1
   111   103   104    1
   112   101   100    1
   113   101   102    2
   114    96    97    1
   115    99   100    1
   116    52    49    1
   117    28    25    1
   118    28    29    1
   119    49    48    1
   120    20    17    1
   121    25    24    1
   122   104   105    1
   123   111   110    2
   124    24    30    1
   125    24    18   am
   126   110   115   am
   127    19    18    2
   128    30    29    1
   129    18    17    1
   130    97    98    1
   131    17    16    1
   132   115   116    1
   133   105   106    1
   134   118   117    2
   135    16     7   am
   136   117   116    1
   137   106   107    1
   138   116   119    1
   139     8     7    2
   140     7     6    1
   141   126   125    2
   142   119   120    1
   143   119   121    1
   144   123   124    1
   145   120   122    1
   146    14    15   ar
   147    14    12   ar
   148   128   127    1
   149    15    13   ar
   150     6     5    1
   151     6     9    1
   152    12    10   ar
   153   125   124    1
   154     5     3   am
   155    13    11   ar
   156   124   127    1
   157    10    11   ar
   158    10     9    1
   159   127   129    1
   160     3     2    1
   161     3     4    2
   162     2     1    1
