@<TRIPOS>MOLECULE
tmp/5g0uA01.pdb
 176 169 0 0 0
SMALL
GASTEIGER

@<TRIPOS>ATOM
      1  N        -15.7470   21.6010   29.9430 N.3    42  ARG42      -0.1245
      2  CA       -16.4750   21.7340   31.2210 C.3    42  ARG42       0.1563
      3  C        -15.6150   22.3480   32.3410 C.2    42  ARG42       0.2260
      4  O        -15.2900   21.6830   33.3320 O.2    42  ARG42      -0.2867
      5  CB       -17.1100   20.3930   31.6490 C.3    42  ARG42       0.0307
      6  CG       -18.2120   19.9250   30.7000 C.3    42  ARG42       0.0489
      7  CD       -18.5590   18.4570   30.9070 C.3    42  ARG42       0.2205
      8  NE       -17.5350   17.5490   30.3880 N.pl3  42  ARG42      -0.0865
      9  CZ       -17.1090   16.4590   31.0200 C.cat  42  ARG42       0.5346
     10  NH1      -17.6130   16.1350   32.2070 N.pl3  42  ARG42       0.1354
     11  NH2      -16.1850   15.6850   30.4660 N.pl3  42  ARG42       0.1354
     12  N         -4.9410   13.7630   25.5980 N.3    95  GLY95      -0.1210
     13  CA        -5.1130   12.6590   24.6680 C.3    95  GLY95       0.1956
     14  C         -6.5810   12.3640   24.4380 C.2    95  GLY95       0.2612
     15  O         -7.4120   12.5070   25.3380 O.2    95  GLY95      -0.2717
     16  N         -6.9040   11.9830   23.1970 N.am   96  PHE96      -0.1962
     17  CA        -8.2480   11.5920   22.8080 C.3    96  PHE96       0.1771
     18  C         -8.2260   10.8510   21.5040 C.2    96  PHE96       0.2619
     19  O         -7.4860   11.2240   20.6030 O.2    96  PHE96      -0.2715
     20  CB        -9.2040   12.8000   22.7000 C.3    96  PHE96       0.0574
     21  CG       -10.5900   12.4210   22.2170 C.ar   96  PHE96      -0.0200
     22  CD1      -11.4580   11.7070   23.0340 C.ar   96  PHE96      -0.0042
     23  CD2      -10.9990   12.7200   20.9180 C.ar   96  PHE96      -0.0042
     24  CE1      -12.7230   11.3380   22.5850 C.ar   96  PHE96      -0.0003
     25  CE2      -12.2790   12.3640   20.4750 C.ar   96  PHE96      -0.0003
     26  CZ       -13.1260   11.6690   21.3100 C.ar   96  PHE96      -0.0000
     27  N         -9.0350    9.7910   21.4210 N.am   97  MET97      -0.1964
     28  CA        -9.2830    9.0480   20.1880 C.3    97  MET97       0.1722
     29  C        -10.7240    8.5600   20.2740 C.2    97  MET97       0.2458
     30  O        -11.0640    7.8700   21.2440 O.2    97  MET97      -0.2730
     31  CB        -8.3290    7.8620   19.9730 C.3    97  MET97       0.0427
     32  CG        -8.5570    7.1450   18.6610 C.3    97  MET97       0.0599
     33  SD        -8.1870    8.0870   17.1550 S.3    97  MET97      -0.1393
     34  CE        -6.3500    8.3700   17.3740 C.3    97  MET97       0.0692
     35  N        -11.5830    8.8580   19.2740 N.am   98  PRO98      -0.2716
     36  CA       -12.9600    8.3490   19.3420 C.3    98  PRO98       0.1536
     37  C        -13.0050    6.8060   19.4310 C.2    98  PRO98       0.2598
     38  O        -12.0530    6.1410   19.0050 O.2    98  PRO98      -0.2715
     39  CB       -13.5720    8.8660   18.0330 C.3    98  PRO98       0.0310
     40  CG       -12.7910   10.1030   17.7070 C.3    98  PRO98       0.0237
     41  CD       -11.3800    9.6930   18.0660 C.3    98  PRO98       0.0939
     42  N        -14.1170    6.2380   19.9670 N.am   99  GLN99      -0.1978
     43  CA       -14.3230    4.7810   20.1030 C.3    99  GLN99       0.1601
     44  C        -14.1760    3.9990   18.7890 C.2    99  GLN99       0.2287
     45  O        -13.7580    2.8400   18.8150 O.2    99  GLN99      -0.2864
     46  CB       -15.6620    4.4610   20.7750 C.3    99  GLN99       0.0394
     47  CG       -15.6370    4.8780   22.2470 C.3    99  GLN99       0.0908
     48  CD       -14.7570    3.9620   23.0450 C.2    99  GLN99       0.2608
     49  OE1      -15.1710    2.8440   23.4270 O.2    99  GLN99      -0.2717
     50  NE2      -13.5190    4.3580   23.2800 N.am   99  GLN99      -0.0878
     51  N        -10.3620    3.4380   18.8440 N.3   102  MET102     -0.1230
     52  CA        -9.7600    2.9300   20.0880 C.3   102  MET102      0.1702
     53  C        -10.8790    2.2500   20.8920 C.2   102  MET102      0.2592
     54  O        -11.7860    2.9320   21.3640 O.2   102  MET102     -0.2718
     55  CB        -9.1560    4.1330   20.8470 C.3   102  MET102      0.0401
     56  CG        -8.5960    3.8220   22.2060 C.3   102  MET102      0.0596
     57  SD        -8.3600    5.3430   23.1350 S.3   102  MET102     -0.1393
     58  CE        -7.5280    4.6800   24.5820 C.3   102  MET102      0.0692
     59  N        -10.8430    0.9180   20.9520 N.am  103  GLY103     -0.1957
     60  CA       -11.8550    0.1090   21.6360 C.3   103  GLY103      0.1869
     61  C        -12.1380   -1.2120   20.9440 C.2   103  GLY103      0.2309
     62  O        -11.2050   -1.9350   20.5790 O.2   103  GLY103     -0.2863
     63  N          2.3640    6.4120   25.8550 N.3   148  PHE148     -0.1241
     64  CA         2.0810    4.9970   26.1310 C.3   148  PHE148      0.1605
     65  C          2.8770    4.2730   25.0500 C.2   148  PHE148      0.2264
     66  O          2.6180    4.5000   23.8620 O.2   148  PHE148     -0.2867
     67  CB         0.5600    4.6710   26.0610 C.3   148  PHE148      0.0534
     68  CG         0.1790    3.2780   26.5320 C.ar  148  PHE148     -0.0203
     69  CD1        0.4950    2.8470   27.8230 C.ar  148  PHE148     -0.0042
     70  CD2       -0.5710    2.4320   25.7220 C.ar  148  PHE148     -0.0042
     71  CE1        0.1180    1.5670   28.2700 C.ar  148  PHE148     -0.0003
     72  CE2       -0.9460    1.1500   26.1670 C.ar  148  PHE148     -0.0003
     73  CZ        -0.5860    0.7230   27.4290 C.ar  148  PHE148     -0.0000
     74  N         -7.0550   -3.5310   20.9780 N.3   156  ALA156     -0.1231
     75  CA        -7.9260   -2.4120   21.3630 C.3   156  ALA156      0.1694
     76  C         -7.3520   -0.9890   21.2180 C.2   156  ALA156      0.2592
     77  O         -8.0850   -0.1080   20.7620 O.2   156  ALA156     -0.2718
     78  CB        -8.4360   -2.6020   22.7900 C.3   156  ALA156      0.0304
     79  N         -6.0940   -0.7330   21.6630 N.am  157  TYR157     -0.1976
     80  CA        -5.5120    0.6140   21.6140 C.3   157  TYR157      0.1639
     81  C         -5.4770    1.1980   20.1940 C.2   157  TYR157      0.2290
     82  O         -5.6340    2.4030   20.0090 O.2   157  TYR157     -0.2864
     83  CB        -4.1450    0.6400   22.2890 C.3   157  TYR157      0.0560
     84  CG        -4.2610    0.5020   23.7950 C.ar  157  TYR157     -0.0198
     85  CD1       -4.3600    1.6240   24.6110 C.ar  157  TYR157     -0.0009
     86  CD2       -4.1950   -0.7460   24.4080 C.ar  157  TYR157     -0.0009
     87  CE1       -4.4580    1.5050   25.9990 C.ar  157  TYR157      0.0417
     88  CE2       -4.3130   -0.8800   25.7940 C.ar  157  TYR157      0.0417
     89  CZ        -4.4210    0.2510   26.5860 C.ar  157  TYR157      0.1957
     90  OH        -4.4850    0.1310   27.9540 O.3   157  TYR157     -0.2866
     91  N         -5.0510    4.9310   18.7640 N.3   160  MET160     -0.1245
     92  CA        -4.4000    5.7010   19.8250 C.3   160  MET160      0.1570
     93  C         -2.8870    5.3340   19.8560 C.2   160  MET160      0.2261
     94  O         -2.0320    6.2000   20.0690 O.2   160  MET160     -0.2867
     95  CB        -5.0690    5.4260   21.1800 C.3   160  MET160      0.0387
     96  CG        -4.6160    6.3480   22.3030 C.3   160  MET160      0.0595
     97  SD        -4.5230    8.1360   21.9370 S.3   160  MET160     -0.1393
     98  CE        -5.8660    8.4910   21.8170 C.3   160  MET160      0.0692
     99  N          0.2620    7.8220   19.3720 N.3   164  LYS164     -0.1245
    100  CA         1.4500    7.8470   20.2480 C.3   164  LYS164      0.1561
    101  C          2.7720    7.7100   19.4470 C.2   164  LYS164      0.2260
    102  O          3.7580    8.3810   19.7650 O.2   164  LYS164     -0.2867
    103  CB         1.3660    6.8120   21.3770 C.3   164  LYS164      0.0271
    104  CG         0.2820    7.1120   22.4490 C.3   164  LYS164      0.0035
    105  CD         0.3980    8.5170   23.0640 C.3   164  LYS164      0.0206
    106  CE        -0.4340    8.6230   24.3400 C.3   164  LYS164      0.1093
    107  NZ        -0.4870   10.0240   24.8370 N.3   164  LYS164     -0.1314
    108  N         -0.2270    1.2170   32.3390 N.3   192  PRO192     -0.2116
    109  CA        -1.6720    1.5250   32.3830 C.3   192  PRO192      0.1372
    110  C         -2.1200    2.1120   33.7190 C.2   192  PRO192      0.2244
    111  O         -1.6730    1.6570   34.7610 O.2   192  PRO192     -0.2868
    112  CB        -2.3410    0.1710   32.0890 C.3   192  PRO192      0.0268
    113  CG        -1.3320   -0.8480   32.4830 C.3   192  PRO192      0.0207
    114  CD         0.0050   -0.2280   32.1570 C.3   192  PRO192      0.0892
    115  N         -7.7660    5.6620   34.7540 N.3   195  THR195     -0.1203
    116  CA        -8.3940    6.9630   34.5090 C.3   195  THR195      0.1994
    117  C         -9.7810    6.6770   33.8590 C.2   195  THR195      0.2618
    118  O        -10.0870    5.5080   33.5760 O.2   195  THR195     -0.2717
    119  CB        -7.4830    7.8700   33.6660 C.3   195  THR195      0.1784
    120  OG1       -7.2710    7.2760   32.3820 O.3   195  THR195     -0.2211
    121  CG2       -6.1570    8.1680   34.3470 C.3   195  THR195      0.0376
    122  N        -10.6170    7.7270   33.6510 N.am  196  LEU196     -0.1965
    123  CA       -11.9940    7.6620   33.1290 C.3   196  LEU196      0.1728
    124  C        -12.2680    6.5470   32.0700 C.2   196  LEU196      0.2616
    125  O        -13.0370    5.6220   32.3590 O.2   196  LEU196     -0.2715
    126  CB       -12.4120    9.0420   32.5830 C.3   196  LEU196      0.0311
    127  CG       -13.8380    9.2100   32.0810 C.3   196  LEU196      0.0022
    128  CD1      -14.8290    9.2090   33.2390 C.3   196  LEU196      0.0001
    129  CD2      -13.9740   10.4980   31.2730 C.3   196  LEU196      0.0001
    130  N        -11.6260    6.6190   30.8830 N.am  197  ALA197     -0.1963
    131  CA       -11.8040    5.6510   29.7830 C.3   197  ALA197      0.1728
    132  C        -11.3530    4.2260   30.1520 C.2   197  ALA197      0.2616
    133  O        -12.0110    3.2480   29.7720 O.2   197  ALA197     -0.2715
    134  CB       -11.0730    6.1260   28.5260 C.3   197  ALA197      0.0334
    135  N        -10.2280    4.1180   30.8960 N.am  198  MET198     -0.1977
    136  CA        -9.6660    2.8430   31.3560 C.3   198  MET198      0.1605
    137  C        -10.5980    2.1440   32.3430 C.2   198  MET198      0.2287
    138  O        -10.7550    0.9260   32.2590 O.2   198  MET198     -0.2864
    139  CB        -8.2590    3.0390   31.9580 C.3   198  MET198      0.0413
    140  CG        -7.1920    3.2680   30.8900 C.3   198  MET198      0.0598
    141  SD        -6.8690    1.8180   29.8420 S.3   198  MET198     -0.1393
    142  CE        -5.9730    0.7520   31.0210 C.3   198  MET198      0.0692
    143  N        -13.8620    2.5510   32.4230 N.3   200  ALA200     -0.1231
    144  CA       -15.0240    2.1760   31.6030 C.3   200  ALA200      0.1694
    145  C        -14.8180    0.8350   30.8820 C.2   200  ALA200      0.2591
    146  O        -15.6550   -0.0520   31.0280 O.2   200  ALA200     -0.2718
    147  CB       -15.3480    3.2800   30.6070 C.3   200  ALA200      0.0304
    148  N        -13.6920    0.6670   30.1560 N.am  201  ILE201     -0.1980
    149  CA       -13.4060   -0.5830   29.4340 C.3   201  ILE201      0.1595
    150  C        -13.3050   -1.7920   30.4100 C.2   201  ILE201      0.2287
    151  O        -13.9190   -2.8260   30.1520 O.2   201  ILE201     -0.2864
    152  CB       -12.1970   -0.4770   28.4540 C.3   201  ILE201      0.0276
    153  CG1      -12.1420   -1.7140   27.5240 C.3   201  ILE201      0.0022
    154  CG2      -10.8570   -0.2050   29.1700 C.3   201  ILE201      0.0022
    155  CD1      -11.4230   -1.5120   26.1660 C.3   201  ILE201      0.0001
    156  N        -18.1070   -1.5440   29.8120 N.3   205  ALA205     -0.1231
    157  CA       -18.7870   -0.5810   28.9240 C.3   205  ALA205      0.1694
    158  C        -18.7070   -0.9340   27.4440 C.2   205  ALA205      0.2591
    159  O        -19.6410   -0.6400   26.6970 O.2   205  ALA205     -0.2718
    160  CB       -18.2440    0.8220   29.1490 C.3   205  ALA205      0.0304
    161  N        -17.5920   -1.5490   27.0210 N.am  206  LEU206     -0.1980
    162  CA       -17.3640   -1.9500   25.6390 C.3   206  LEU206      0.1596
    163  C        -17.6360   -3.4530   25.4310 C.2   206  LEU206      0.2287
    164  O        -17.3570   -3.9810   24.3570 O.2   206  LEU206     -0.2864
    165  CB       -15.9300   -1.5600   25.2160 C.3   206  LEU206      0.0297
    166  CG       -15.6920   -0.1080   24.9320 C.3   206  LEU206      0.0022
    167  CD1      -16.0360    0.7950   26.0490 C.3   206  LEU206      0.0001
    168  CD2      -14.2540    0.1140   24.4390 C.3   206  LEU206      0.0001
    169  N         -8.2400   -6.0480   28.1860 N.3   214  ILE214     -0.1245
    170  CA        -7.5740   -4.9940   28.9730 C.3   214  ILE214      0.1561
    171  C         -7.1300   -5.5620   30.3330 C.2   214  ILE214      0.2260
    172  O         -6.0480   -5.2140   30.8100 O.2   214  ILE214     -0.2867
    173  CB        -8.4110   -3.6730   29.0620 C.3   214  ILE214      0.0252
    174  CG1       -8.3750   -2.8710   27.7420 C.3   214  ILE214      0.0019
    175  CG2       -7.8880   -2.7320   30.1520 C.3   214  ILE214      0.0019
    176  CD1       -8.4050   -3.6090   26.3640 C.3   214  ILE214      0.0001
@<TRIPOS>BOND
     1    33    34    1
     2    33    32    1
     3    40    39    1
     4    40    41    1
     5    39    36    1
     6    41    35    1
     7    32    31    1
     8    91    92    1
     9    44    45    2
    10    44    43    1
    11    51    52    1
    12    38    37    2
    13    35    36    1
    14    35    29   am
    15    36    37    1
    16    99   100    1
    17    37    42   am
    18   101   102    2
    19   101   100    1
    20    92    93    1
    21    92    95    1
    22    93    94    2
    23    42    43    1
    24    31    28    1
    25    82    81    2
    26    52    55    1
    27    52    53    1
    28    43    46    1
    29    28    29    1
    30    28    27    1
    31    81    80    1
    32   100   103    1
    33    29    30    2
    34    25    23   ar
    35    25    26   ar
    36    62    61    2
    37    19    18    2
    38    77    76    2
    39    46    47    1
    40    55    56    1
    41    53    59   am
    42    53    54    2
    43    23    21   ar
    44    61    60    1
    45    59    60    1
    46    74    75    1
    47    95    96    1
    48    76    75    1
    49    76    79   am
    50    26    24   ar
    51    75    78    1
    52   103   104    1
    53    27    18   am
    54    18    17    1
    55    80    79    1
    56    80    83    1
    57    98    97    1
    58    97    96    1
    59    56    57    1
    60    21    20    1
    61    21    22   ar
    62    47    48    1
    63    83    84    1
    64   104   105    1
    65    24    22   ar
    66    20    17    1
    67    17    16    1
    68    48    50   am
    69    48    49    2
    70   105   106    1
    71    57    58    1
    72    16    14   am
    73    84    86   ar
    74    84    85   ar
    75    66    65    2
    76   106   107    1
    77   164   163    2
    78    86    88   ar
    79    14    13    1
    80    14    15    2
    81   168   166    1
    82    85    87   ar
    83    13    12    1
    84   166   165    1
    85   166   167    1
    86    65    64    1
    87   165   162    1
    88   163   162    1
    89   162   161    1
    90    70    72   ar
    91    70    68   ar
    92    88    89   ar
    93    63    64    1
    94    87    89   ar
    95    67    64    1
    96    67    68    1
    97   155   153    1
    98    72    73   ar
    99   176   174    1
   100    68    69   ar
   101    89    90    1
   102   159   158    2
   103   161   158   am
   104    73    71   ar
   105   158   157    1
   106   153   152    1
   107   174   173    1
   108    69    71   ar
   109   169   170    1
   110   152   154    1
   111   152   149    1
   112   134   131    1
   113   157   160    1
   114   157   156    1
   115   170   173    1
   116   170   171    1
   117   173   175    1
   118   149   148    1
   119   149   150    1
   120   133   132    2
   121   131   132    1
   122   131   130    1
   123   141   140    1
   124   141   142    1
   125     1     2    1
   126   151   150    2
   127   132   135   am
   128   148   145   am
   129   171   172    2
   130     8     7    1
   131     8     9    2
   132    11     9    1
   133   147   144    1
   134     6     7    1
   135     6     5    1
   136   145   146    2
   137   145   144    1
   138   130   124   am
   139   140   139    1
   140   135   136    1
   141     9    10    1
   142     2     5    1
   143     2     3    1
   144   129   127    1
   145   136   139    1
   146   136   137    1
   147   144   143    1
   148   124   125    2
   149   124   123    1
   150   127   126    1
   151   127   128    1
   152   112   109    1
   153   112   113    1
   154   114   108    1
   155   114   113    1
   156   138   137    2
   157   108   109    1
   158     3     4    2
   159   120   119    1
   160   109   110    1
   161   126   123    1
   162   123   122    1
   163   118   117    2
   164   122   117   am
   165   119   121    1
   166   119   116    1
   167   110   111    2
   168   117   116    1
   169   116   115    1
