@<TRIPOS>MOLECULE
tmp/5g0vB01.pdb
 145 138 0 0 0
SMALL
GASTEIGER

@<TRIPOS>ATOM
      1  N         24.6530  -30.0740   12.6200 N.3    15  ILE15      -0.1245
      2  CA        24.9530  -31.1110   13.6130 C.3    15  ILE15       0.1561
      3  C         23.9310  -32.2670   13.4460 C.2    15  ILE15       0.2260
      4  O         24.3180  -33.4340   13.4980 O.2    15  ILE15      -0.2867
      5  CB        25.1460  -30.6260   15.0830 C.3    15  ILE15       0.0252
      6  CG1       25.6750  -31.7700   16.0090 C.3    15  ILE15       0.0019
      7  CG2       23.8810  -29.9710   15.6690 C.3    15  ILE15       0.0019
      8  CD1       27.0230  -32.4810   15.5600 C.3    15  ILE15       0.0001
      9  N         31.8380  -29.1230   13.3670 N.3    40  PHE40      -0.1227
     10  CA        32.5960  -29.0950   14.6040 C.3    40  PHE40       0.1736
     11  C         32.5430  -30.4280   15.3420 C.2    40  PHE40       0.2595
     12  O         31.4660  -30.9710   15.6020 O.2    40  PHE40      -0.2718
     13  CB        32.1020  -27.9430   15.5220 C.3    40  PHE40       0.0547
     14  CG        32.5920  -27.9690   16.9560 C.ar   40  PHE40      -0.0202
     15  CD1       33.9490  -27.8910   17.2480 C.ar   40  PHE40      -0.0042
     16  CD2       31.6920  -28.0400   18.0140 C.ar   40  PHE40      -0.0042
     17  CE1       34.4050  -27.9400   18.5720 C.ar   40  PHE40      -0.0003
     18  CE2       32.1470  -28.0670   19.3390 C.ar   40  PHE40      -0.0003
     19  CZ        33.5030  -28.0110   19.6100 C.ar   40  PHE40      -0.0000
     20  N         33.7420  -30.8990   15.7310 N.am   41  ASP41      -0.1960
     21  CA        34.0210  -32.0330   16.6020 C.3    41  ASP41       0.1840
     22  C         33.5620  -33.4210   16.1020 C.2    41  ASP41       0.2621
     23  O         34.4090  -34.2930   15.9390 O.2    41  ASP41      -0.2715
     24  CB        33.4430  -31.7580   18.0090 C.3    41  ASP41       0.1450
     25  CG        33.9460  -32.6840   19.0910 C.2    41  ASP41       0.3671
     26  OD1       35.1840  -32.8680   19.1890 O.co2  41  ASP41      -0.2456
     27  OD2       33.1120  -33.1780   19.8780 O.co2  41  ASP41      -0.2456
     28  N         32.2520  -33.6380   15.9090 N.am   42  ARG42      -0.1977
     29  CA        31.6660  -34.9440   15.5360 C.3    42  ARG42       0.1597
     30  C         31.5870  -35.1070   14.0070 C.2    42  ARG42       0.2287
     31  O         30.5100  -35.3360   13.4610 O.2    42  ARG42      -0.2864
     32  CB        30.2690  -35.0730   16.1930 C.3    42  ARG42       0.0334
     33  CG        30.2850  -34.7540   17.6860 C.3    42  ARG42       0.0492
     34  CD        28.9220  -34.5420   18.2490 C.3    42  ARG42       0.2205
     35  NE        29.0010  -34.2090   19.6710 N.pl3  42  ARG42      -0.0865
     36  CZ        28.0120  -33.6550   20.3620 C.cat  42  ARG42       0.5346
     37  NH1       26.8450  -33.4040   19.7800 N.pl3  42  ARG42       0.1354
     38  NH2       28.1840  -33.3390   21.6380 N.pl3  42  ARG42       0.1354
     39  N         26.0620  -21.5170   17.5660 N.3    95  GLY95      -0.1210
     40  CA        25.6830  -20.9530   18.8570 C.3    95  GLY95       0.1956
     41  C         25.8330  -21.9960   19.9320 C.2    95  GLY95       0.2612
     42  O         25.5770  -23.1820   19.6760 O.2    95  GLY95      -0.2717
     43  N         26.2440  -21.5670   21.1350 N.am   96  PHE96      -0.1962
     44  CA        26.3740  -22.4360   22.3090 C.3    96  PHE96       0.1771
     45  C         26.5440  -21.5640   23.5220 C.2    96  PHE96       0.2619
     46  O         27.2830  -20.5930   23.4680 O.2    96  PHE96      -0.2715
     47  CB        27.5510  -23.4470   22.2120 C.3    96  PHE96       0.0574
     48  CG        27.7700  -24.3270   23.4420 C.ar   96  PHE96      -0.0200
     49  CD1       26.7510  -25.1380   23.9330 C.ar   96  PHE96      -0.0042
     50  CD2       28.9940  -24.3430   24.0990 C.ar   96  PHE96      -0.0042
     51  CE1       26.9480  -25.9350   25.0700 C.ar   96  PHE96      -0.0003
     52  CE2       29.1940  -25.1510   25.2270 C.ar   96  PHE96      -0.0003
     53  CZ        28.1710  -25.9450   25.7000 C.ar   96  PHE96      -0.0000
     54  N         25.8400  -21.8920   24.6010 N.am   97  MET97      -0.1977
     55  CA        25.9960  -21.2080   25.8830 C.3    97  MET97       0.1605
     56  C         25.9970  -22.3230   26.9430 C.2    97  MET97       0.2287
     57  O         24.9490  -22.9320   27.1450 O.2    97  MET97      -0.2864
     58  CB        24.8760  -20.1820   26.1360 C.3    97  MET97       0.0413
     59  CG        24.9870  -19.4750   27.5060 C.3    97  MET97       0.0598
     60  SD        26.6050  -18.6960   27.7730 S.3    97  MET97      -0.1393
     61  CE        26.4500  -17.2630   26.6440 C.3    97  MET97       0.0692
     62  N         25.2660  -24.7520   29.9480 N.3    99  GLN99      -0.1245
     63  CA        24.0560  -24.9700   30.7770 C.3    99  GLN99       0.1566
     64  C         23.8290  -23.9800   31.9210 C.2    99  GLN99       0.2260
     65  O         22.6990  -23.5190   32.1070 O.2    99  GLN99      -0.2867
     66  CB        24.0230  -26.4020   31.3320 C.3    99  GLN99       0.0367
     67  CG        22.7030  -26.7350   31.9700 C.3    99  GLN99       0.0905
     68  CD        21.5930  -26.8490   30.9460 C.2    99  GLN99       0.2608
     69  OE1       21.6920  -27.5260   29.9000 O.2    99  GLN99      -0.2717
     70  NE2       20.4840  -26.1560   31.2030 N.am   99  GLN99      -0.0878
     71  N         22.1540  -20.9260   30.6140 N.3   102  MET102     -0.1245
     72  CA        20.9740  -21.1750   29.7850 C.3   102  MET102      0.1570
     73  C         20.0400  -22.1750   30.4620 C.2   102  MET102      0.2261
     74  O         19.6090  -21.9480   31.5910 O.2   102  MET102     -0.2867
     75  CB        21.4200  -21.6980   28.4090 C.3   102  MET102      0.0387
     76  CG        20.4730  -21.3610   27.2810 C.3   102  MET102      0.0595
     77  SD        21.2440  -21.7220   25.6890 S.3   102  MET102     -0.1393
     78  CE        19.9160  -21.4030   24.5980 C.3   102  MET102      0.0692
     79  N         18.5330  -14.4650   17.6120 N.3   146  PHE146     -0.1241
     80  CA        17.2660  -14.6180   18.3410 C.3   146  PHE146      0.1605
     81  C         17.0740  -13.2490   18.9900 C.2   146  PHE146      0.2264
     82  O         17.9400  -12.8430   19.7660 O.2   146  PHE146     -0.2867
     83  CB        17.3440  -15.7510   19.3990 C.3   146  PHE146      0.0534
     84  CG        16.0180  -16.1370   20.0250 C.ar  146  PHE146     -0.0203
     85  CD1       14.9670  -16.6110   19.2410 C.ar  146  PHE146     -0.0042
     86  CD2       15.8420  -16.0870   21.4050 C.ar  146  PHE146     -0.0042
     87  CE1       13.7480  -16.9820   19.8230 C.ar  146  PHE146     -0.0003
     88  CE2       14.6210  -16.4630   21.9880 C.ar  146  PHE146     -0.0003
     89  CZ        13.5870  -16.9020   21.1950 C.ar  146  PHE146     -0.0000
     90  N         16.9800  -18.6620   28.5970 N.3   155  TYR155     -0.1241
     91  CA        17.9940  -18.2690   27.6180 C.3   155  TYR155      0.1605
     92  C         19.0360  -17.3410   28.2160 C.2   155  TYR155      0.2264
     93  O         20.1550  -17.3840   27.7530 O.2   155  TYR155     -0.2867
     94  CB        17.4060  -17.6970   26.2980 C.3   155  TYR155      0.0534
     95  CG        16.4110  -18.5930   25.5840 C.ar  155  TYR155     -0.0201
     96  CD1       16.7330  -19.9070   25.2570 C.ar  155  TYR155     -0.0009
     97  CD2       15.1670  -18.1120   25.1920 C.ar  155  TYR155     -0.0009
     98  CE1       15.8290  -20.7290   24.5840 C.ar  155  TYR155      0.0417
     99  CE2       14.2550  -18.9240   24.5160 C.ar  155  TYR155      0.0417
    100  CZ        14.5970  -20.2280   24.1990 C.ar  155  TYR155      0.1957
    101  OH        13.7030  -21.0320   23.5300 O.3   155  TYR155     -0.2866
    102  N         22.5410  -16.6050   26.9400 N.3   158  MET158     -0.1245
    103  CA        22.5130  -16.7570   25.4870 C.3   158  MET158      0.1570
    104  C         21.9010  -15.4680   24.8920 C.2   158  MET158      0.2261
    105  O         22.3440  -15.0190   23.8390 O.2   158  MET158     -0.2867
    106  CB        21.7210  -18.0140   25.0450 C.3   158  MET158      0.0387
    107  CG        21.5470  -18.1230   23.5150 C.3   158  MET158      0.0595
    108  SD        23.1180  -18.1320   22.5790 S.3   158  MET158     -0.1393
    109  CE        23.4400  -19.8570   22.5630 C.3   158  MET158      0.0692
    110  N         23.5560  -12.9340   22.1310 N.3   162  LYS162     -0.1245
    111  CA        22.8850  -12.4470   20.9150 C.3   162  LYS162      0.1561
    112  C         22.9350  -10.9000   20.8280 C.2   162  LYS162      0.2260
    113  O         23.0930  -10.3560   19.7370 O.2   162  LYS162     -0.2867
    114  CB        21.4420  -12.9650   20.8090 C.3   162  LYS162      0.0271
    115  CG        21.3620  -14.4810   20.5780 C.3   162  LYS162      0.0035
    116  CD        22.1040  -14.9390   19.2960 C.3   162  LYS162      0.0206
    117  CE        21.8560  -16.4080   19.0070 C.3   162  LYS162      0.1093
    118  NZ        22.6070  -16.8600   17.7970 N.3   162  LYS162     -0.1314
    119  N         11.3860  -19.2970   17.6610 N.3   190  PRO190     -0.2116
    120  CA        11.8930  -20.5680   18.2240 C.3   190  PRO190      0.1372
    121  C         11.6770  -21.7750   17.3050 C.2   190  PRO190      0.2244
    122  O         10.6060  -21.9400   16.7430 O.2   190  PRO190     -0.2868
    123  CB        11.1110  -20.7150   19.5440 C.3   190  PRO190      0.0268
    124  CG         9.8250  -19.9380   19.3190 C.3   190  PRO190      0.0207
    125  CD        10.2530  -18.7630   18.4570 C.3   190  PRO190      0.0892
    126  N         15.0130  -27.5930   17.5830 N.3   193  THR193     -0.1218
    127  CA        16.2410  -28.2880   17.1420 C.3   193  THR193      0.1862
    128  C         16.6050  -29.3190   18.2380 C.2   193  THR193      0.2287
    129  O         15.8990  -29.3680   19.2500 O.2   193  THR193     -0.2866
    130  CB        17.3560  -27.3100   16.7310 C.3   193  THR193      0.1770
    131  OG1       17.6480  -26.4020   17.7950 O.3   193  THR193     -0.2211
    132  CG2       16.9880  -26.5000   15.5120 C.3   193  THR193      0.0375
    133  N         19.1500  -29.9380   20.7070 N.3   195  ALA195     -0.1231
    134  CA        19.4590  -29.4450   22.0590 C.3   195  ALA195      0.1694
    135  C         18.3310  -28.6030   22.6390 C.2   195  ALA195      0.2591
    136  O         18.1020  -28.6350   23.8490 O.2   195  ALA195     -0.2718
    137  CB        20.7540  -28.6560   22.0510 C.3   195  ALA195      0.0304
    138  N         17.6040  -27.8840   21.7610 N.am  196  MET196     -0.1979
    139  CA        16.4680  -27.0440   22.1280 C.3   196  MET196      0.1605
    140  C         15.2490  -27.8980   22.4780 C.2   196  MET196      0.2287
    141  O         14.7580  -27.8290   23.6030 O.2   196  MET196     -0.2864
    142  CB        16.1420  -26.0460   21.0010 C.3   196  MET196      0.0413
    143  CG        15.3070  -24.8670   21.4550 C.3   196  MET196      0.0598
    144  SD        16.0720  -23.9270   22.8000 S.3   196  MET196     -0.1393
    145  CE        14.9350  -24.2900   24.1320 C.3   196  MET196      0.0692
@<TRIPOS>BOND
     1     1     2    1
     2     9    10    1
     3     3     4    2
     4     3     2    1
     5    31    30    2
     6     2     5    1
     7    30    29    1
     8    10    11    1
     9    10    13    1
    10     5     7    1
    11     5     6    1
    12    11    12    2
    13    11    20   am
    14   132   130    1
    15    13    14    1
    16    29    28    1
    17    29    32    1
    18     8     6    1
    19    20    21    1
    20    28    22   am
    21    23    22    2
    22    22    21    1
    23    32    33    1
    24    21    24    1
    25   130   127    1
    26   130   131    1
    27   122   121    2
    28    14    15   ar
    29    14    16   ar
    30   127   126    1
    31   127   128    1
    32    15    17   ar
    33   121   120    1
    34    39    40    1
    35    79    80    1
    36   119   120    1
    37   119   125    1
    38    33    34    1
    39   118   117    1
    40    24    25    1
    41    16    18   ar
    42   120   123    1
    43   128   129    2
    44    34    35    1
    45    80    81    1
    46    80    83    1
    47   125   124    1
    48    17    19   ar
    49    40    41    1
    50    81    82    2
    51   117   116    1
    52    25    26   ar
    53    25    27   ar
    54    85    87   ar
    55    85    84   ar
    56   116   115    1
    57   124   123    1
    58    18    19   ar
    59    83    84    1
    60    35    36    2
    61    42    41    2
    62   113   112    2
    63    37    36    1
    64    87    89   ar
    65    41    43   am
    66    84    86   ar
    67    36    38    1
    68   115   114    1
    69   133   134    1
    70   114   111    1
    71   112   111    1
    72   111   110    1
    73   142   143    1
    74   142   139    1
    75    43    44    1
    76    89    88   ar
    77    86    88   ar
    78   143   144    1
    79   138   139    1
    80   138   135   am
    81   137   134    1
    82   134   135    1
    83   139   140    1
    84    47    44    1
    85    47    48    1
    86    44    45    1
    87   140   141    2
    88   109   108    1
    89   108   107    1
    90   135   136    2
    91   144   145    1
    92    48    49   ar
    93    48    50   ar
    94    46    45    2
    95   107   106    1
    96    45    54   am
    97   101   100    1
    98   105   104    2
    99    49    51   ar
   100    50    52   ar
   101   100    99   ar
   102   100    98   ar
   103    99    97   ar
   104    98    96   ar
   105    78    77    1
   106    54    55    1
   107   104   103    1
   108   106   103    1
   109    51    53   ar
   110    97    95   ar
   111    52    53   ar
   112    96    95   ar
   113   103   102    1
   114    95    94    1
   115    77    76    1
   116    55    58    1
   117    55    56    1
   118    58    59    1
   119    94    91    1
   120    61    60    1
   121    56    57    2
   122    76    75    1
   123    59    60    1
   124    91    92    1
   125    91    90    1
   126    93    92    2
   127    75    72    1
   128    72    73    1
   129    72    71    1
   130    69    68    2
   131    62    63    1
   132    73    74    2
   133    63    66    1
   134    63    64    1
   135    68    70   am
   136    68    67    1
   137    66    67    1
   138    64    65    2
