@<TRIPOS>MOLECULE
tmp/5g0wC01.pdb
 181 173 0 0 0
SMALL
GASTEIGER

@<TRIPOS>ATOM
      1  N          4.1700    8.0920  -10.8550 N.3    15  ILE15      -0.1245
      2  CA         3.8250    9.4280  -11.3570 C.3    15  ILE15       0.1561
      3  C          4.8220    9.8170  -12.4670 C.2    15  ILE15       0.2260
      4  O          4.4140   10.3700  -13.4920 O.2    15  ILE15      -0.2867
      5  CB         3.5960   10.5340  -10.2840 C.3    15  ILE15       0.0252
      6  CG1        3.0740   11.8380  -10.9280 C.3    15  ILE15       0.0019
      7  CG2        4.8450   10.7990   -9.4240 C.3    15  ILE15       0.0019
      8  CD1        1.6210   11.7700  -11.5760 C.3    15  ILE15       0.0001
      9  N          9.8320    5.5610   -7.3730 N.3    20  ILE20      -0.1245
     10  CA        10.3020    4.2690   -6.8720 C.3    20  ILE20       0.1561
     11  C          9.3820    3.1630   -7.4060 C.2    20  ILE20       0.2260
     12  O          9.8810    2.1120   -7.8130 O.2    20  ILE20      -0.2867
     13  CB        10.4220    4.2490   -5.3290 C.3    20  ILE20       0.0252
     14  CG1       11.4880    5.2630   -4.8580 C.3    20  ILE20       0.0019
     15  CG2       10.6960    2.8130   -4.8040 C.3    20  ILE20       0.0019
     16  CD1       11.6220    5.4570   -3.2930 C.3    20  ILE20       0.0001
     17  N         -2.9770    8.2260   -9.4670 N.3    40  PHE40      -0.1227
     18  CA        -3.7340    9.3220   -8.8920 C.3    40  PHE40       0.1736
     19  C         -3.7530   10.5640   -9.7880 C.2    40  PHE40       0.2595
     20  O         -2.7030   11.0550  -10.2030 O.2    40  PHE40      -0.2718
     21  CB        -3.1680    9.6720   -7.4930 C.3    40  PHE40       0.0547
     22  CG        -3.6470   10.9750   -6.8870 C.ar   40  PHE40      -0.0202
     23  CD1       -5.0010   11.1900   -6.6310 C.ar   40  PHE40      -0.0042
     24  CD2       -2.7450   11.9850   -6.5660 C.ar   40  PHE40      -0.0042
     25  CE1       -5.4440   12.3970   -6.0800 C.ar   40  PHE40      -0.0003
     26  CE2       -3.1870   13.1840   -5.9890 C.ar   40  PHE40      -0.0003
     27  CZ        -4.5320   13.3840   -5.7570 C.ar   40  PHE40      -0.0000
     28  N         -4.9670   11.1090   -9.9880 N.am   41  ASP41      -0.1960
     29  CA        -5.2960   12.3820  -10.6250 C.3    41  ASP41       0.1840
     30  C         -4.9330   12.5080  -12.1140 C.2    41  ASP41       0.2621
     31  O         -5.8400   12.6260  -12.9180 O.2    41  ASP41      -0.2715
     32  CB        -4.6840   13.5540   -9.8170 C.3    41  ASP41       0.1450
     33  CG        -5.1940   14.9400  -10.1690 C.2    41  ASP41       0.3671
     34  OD1       -6.4320   15.1070  -10.3010 O.co2  41  ASP41      -0.2456
     35  OD2       -4.3660   15.8700  -10.2430 O.co2  41  ASP41      -0.2456
     36  N         -3.6370   12.5290  -12.4640 N.am   42  ARG42      -0.1977
     37  CA        -3.1550   12.7350  -13.8390 C.3    42  ARG42       0.1597
     38  C         -3.0100   11.3930  -14.5660 C.2    42  ARG42       0.2287
     39  O         -1.9050   11.0130  -14.9530 O.2    42  ARG42      -0.2864
     40  CB        -1.8170   13.5050  -13.8010 C.3    42  ARG42       0.0334
     41  CG        -1.8740   14.7910  -12.9730 C.3    42  ARG42       0.0492
     42  CD        -0.4850   15.3710  -12.6900 C.3    42  ARG42       0.2205
     43  NE         0.2420   15.6880  -13.9140 N.pl3  42  ARG42      -0.0865
     44  CZ         1.5650   15.5910  -14.0620 C.cat  42  ARG42       0.5346
     45  NH1        2.3420   15.1800  -13.0580 N.pl3  42  ARG42       0.1354
     46  NH2        2.1190   15.9360  -15.2180 N.pl3  42  ARG42       0.1354
     47  N         -7.7880    9.2250   -0.8460 N.3    65  GLN65      -0.1245
     48  CA        -8.6780   10.0920   -0.0480 C.3    65  GLN65       0.1566
     49  C        -10.1370    9.9310   -0.5070 C.2    65  GLN65       0.2260
     50  O        -11.0500   10.4840    0.1240 O.2    65  GLN65      -0.2867
     51  CB        -8.2440   11.5630   -0.1330 C.3    65  GLN65       0.0367
     52  CG        -6.8900   11.8290    0.5160 C.3    65  GLN65       0.0905
     53  CD        -6.6940   13.2760    0.8600 C.2    65  GLN65       0.2608
     54  OE1       -6.4280   14.1170   -0.0060 O.2    65  GLN65      -0.2717
     55  NE2       -6.8240   13.6000    2.1400 N.am   65  GLN65      -0.0878
     56  N          3.0480    8.6770   -1.0170 N.3    95  GLY95      -0.1210
     57  CA         3.4800    9.6070    0.0130 C.3    95  GLY95       0.1956
     58  C          3.2420   11.0280   -0.4170 C.2    95  GLY95       0.2612
     59  O          3.3740   11.3500   -1.6040 O.2    95  GLY95      -0.2717
     60  N          2.8400   11.8680    0.5440 N.am   96  PHE96      -0.1962
     61  CA         2.5760   13.2810    0.3030 C.3    96  PHE96       0.1771
     62  C          2.5640   14.0550    1.5960 C.2    96  PHE96       0.2619
     63  O          1.9920   13.6030    2.5770 O.2    96  PHE96      -0.2715
     64  CB         1.2210   13.4950   -0.4220 C.3    96  PHE96       0.0574
     65  CG         0.7940   14.9400   -0.5540 C.ar   96  PHE96      -0.0200
     66  CD1        1.4350   15.7930   -1.4440 C.ar   96  PHE96      -0.0042
     67  CD2       -0.2380   15.4550    0.2290 C.ar   96  PHE96      -0.0042
     68  CE1        1.0360   17.1310   -1.5640 C.ar   96  PHE96      -0.0003
     69  CE2       -0.6390   16.7860    0.1000 C.ar   96  PHE96      -0.0003
     70  CZ         0.0000   17.6140   -0.7980 C.ar   96  PHE96      -0.0000
     71  N          3.1640   15.2350    1.5830 N.am   97  MET97      -0.1964
     72  CA         3.0980   16.1780    2.7030 C.3    97  MET97       0.1722
     73  C          3.1970   17.5790    2.0910 C.2    97  MET97       0.2458
     74  O          4.1850   17.8570    1.4050 O.2    97  MET97      -0.2730
     75  CB         4.2100   15.9500    3.7400 C.3    97  MET97       0.0427
     76  CG         4.1130   16.8820    4.9520 C.3    97  MET97       0.0599
     77  SD         2.5580   16.7180    5.9120 S.3    97  MET97      -0.1393
     78  CE         2.7550   15.0340    6.5500 C.3    97  MET97       0.0692
     79  N          2.1950   18.4640    2.3040 N.am   98  PRO98      -0.2716
     80  CA         2.2850   19.8240    1.7380 C.3    98  PRO98       0.1536
     81  C          3.5650   20.5360    2.1590 C.2    98  PRO98       0.2598
     82  O          4.1310   20.2200    3.2110 O.2    98  PRO98      -0.2715
     83  CB         1.0460   20.5210    2.2890 C.3    98  PRO98       0.0310
     84  CG         0.0860   19.4160    2.5620 C.3    98  PRO98       0.0237
     85  CD         0.9490   18.2900    3.0670 C.3    98  PRO98       0.0939
     86  N          4.0410   21.4700    1.3140 N.am   99  GLN99      -0.1978
     87  CA         5.2790   22.2320    1.5370 C.3    99  GLN99       0.1601
     88  C          5.3070   22.9920    2.8650 C.2    99  GLN99       0.2287
     89  O          6.3960   23.3140    3.3500 O.2    99  GLN99      -0.2864
     90  CB         5.5750   23.1650    0.3630 C.3    99  GLN99       0.0394
     91  CG         6.9480   23.7710    0.4490 C.3    99  GLN99       0.0908
     92  CD         8.0360   22.7430    0.2190 C.2    99  GLN99       0.2608
     93  OE1        8.0310   21.9440   -0.7440 O.2    99  GLN99      -0.2717
     94  NE2        9.0110   22.7070    1.1250 N.am   99  GLN99      -0.0878
     95  N          6.9530   20.4160    5.2250 N.3   102  MET102     -0.1245
     96  CA         8.2470   19.9130    4.7470 C.3   102  MET102      0.1570
     97  C          9.1950   21.0420    4.2950 C.2   102  MET102      0.2261
     98  O          8.7670   22.1810    4.1020 O.2   102  MET102     -0.2867
     99  CB         8.0080   18.9490    3.5690 C.3   102  MET102      0.0387
    100  CG         8.3540   17.5220    3.8750 C.3   102  MET102      0.0595
    101  SD         8.2560   16.4470    2.4260 S.3   102  MET102     -0.1393
    102  CE         9.8110   16.8330    1.6460 C.3   102  MET102      0.0692
    103  N         -3.8810   15.9910    5.9980 N.3   117  LYS117     -0.1245
    104  CA        -3.8830   15.5200    4.6010 C.3   117  LYS117      0.1561
    105  C         -2.6680   14.6310    4.3390 C.2   117  LYS117      0.2260
    106  O         -2.8130   13.5670    3.7350 O.2   117  LYS117     -0.2867
    107  CB        -3.9150   16.6950    3.6210 C.3   117  LYS117      0.0271
    108  CG        -3.9920   16.2570    2.1550 C.3   117  LYS117      0.0035
    109  CD        -4.1590   17.4280    1.2100 C.3   117  LYS117      0.0206
    110  CE        -4.3140   16.9440   -0.2190 C.3   117  LYS117      0.1093
    111  NZ        -4.5560   18.0870   -1.1350 N.3   117  LYS117     -0.1314
    112  N         -2.8660   10.4910    3.4010 N.3   121  ILE121     -0.1245
    113  CA        -2.2520    9.9220    2.2010 C.3   121  ILE121      0.1561
    114  C         -1.0400    9.0160    2.5160 C.2   121  ILE121      0.2260
    115  O         -0.9160    7.9480    1.9260 O.2   121  ILE121     -0.2867
    116  CB        -1.9040   11.0530    1.1880 C.3   121  ILE121      0.0252
    117  CG1       -3.1780   11.7620    0.6670 C.3   121  ILE121      0.0019
    118  CG2       -1.0760   10.5270   -0.0020 C.3   121  ILE121      0.0019
    119  CD1       -2.9610   13.1000   -0.0830 C.3   121  ILE121      0.0001
    120  N         10.7360    5.7600    5.2440 N.3   148  PHE148     -0.1241
    121  CA        11.9970    6.5290    5.3660 C.3   148  PHE148      0.1605
    122  C         12.2280    6.5430    6.8840 C.2   148  PHE148      0.2264
    123  O         11.3750    7.0590    7.6110 O.2   148  PHE148     -0.2867
    124  CB        11.8630    7.9700    4.7830 C.3   148  PHE148      0.0534
    125  CG        13.1590    8.7500    4.7090 C.ar  148  PHE148     -0.0203
    126  CD1       14.2450    8.2680    3.9820 C.ar  148  PHE148     -0.0042
    127  CD2       13.2830    9.9920    5.3240 C.ar  148  PHE148     -0.0042
    128  CE1       15.4490    8.9910    3.9170 C.ar  148  PHE148     -0.0003
    129  CE2       14.4830   10.7210    5.2420 C.ar  148  PHE148     -0.0003
    130  CZ        15.5590   10.2050    4.5590 C.ar  148  PHE148     -0.0000
    131  N         12.7620   17.3290    6.6680 N.3   157  TYR157     -0.1241
    132  CA        11.6940   16.3350    6.4600 C.3   157  TYR157      0.1605
    133  C         10.4870   16.5070    7.4050 C.2   157  TYR157      0.2264
    134  O          9.3920   16.1240    7.0460 O.2   157  TYR157     -0.2867
    135  CB        12.2500   14.9050    6.5080 C.3   157  TYR157      0.0534
    136  CG        13.1610   14.5820    5.3430 C.ar  157  TYR157     -0.0201
    137  CD1       14.5280   14.8270    5.4130 C.ar  157  TYR157     -0.0009
    138  CD2       12.6560   14.0240    4.1710 C.ar  157  TYR157     -0.0009
    139  CE1       15.3740   14.5130    4.3510 C.ar  157  TYR157      0.0417
    140  CE2       13.4920   13.7180    3.0980 C.ar  157  TYR157      0.0417
    141  CZ        14.8520   13.9550    3.1970 C.ar  157  TYR157      0.1957
    142  OH        15.6840   13.6490    2.1460 O.3   157  TYR157     -0.2866
    143  N          6.7590   15.0980    7.3710 N.3   160  MET160     -0.1245
    144  CA         6.7950   13.8570    6.6010 C.3   160  MET160      0.1570
    145  C          7.3860   12.7370    7.5010 C.2   160  MET160      0.2261
    146  O          6.9020   11.5980    7.4550 O.2   160  MET160     -0.2867
    147  CB         7.5890   14.0150    5.2800 C.3   160  MET160      0.0387
    148  CG         7.6920   12.7040    4.4720 C.3   160  MET160      0.0595
    149  SD         6.0730   11.9560    4.0860 S.3   160  MET160     -0.1393
    150  CE         5.7660   12.6820    2.5250 C.3   160  MET160      0.0692
    151  N          5.7520    9.1170    8.6060 N.3   164  LYS164     -0.1245
    152  CA         6.4330    7.8140    8.5190 C.3   164  LYS164      0.1561
    153  C          6.4100    7.0760    9.8670 C.2   164  LYS164      0.2260
    154  O          6.2230    5.8560    9.8910 O.2   164  LYS164     -0.2867
    155  CB         7.8610    7.9410    7.9470 C.3   164  LYS164      0.0271
    156  CG         7.9150    8.3920    6.4740 C.3   164  LYS164      0.0035
    157  CD         7.1330    7.4550    5.5040 C.3   164  LYS164      0.0206
    158  CE         7.4010    7.8230    4.0600 C.3   164  LYS164      0.1093
    159  NZ         6.6470    6.9710    3.1030 N.3   164  LYS164     -0.1314
    160  N         17.7650    7.9860    0.7460 N.3   192  PRO192     -0.2102
    161  CA        17.2250    9.0260   -0.1580 C.3   192  PRO192      0.1504
    162  C         17.4100    8.7370   -1.6410 C.2   192  PRO192      0.2575
    163  O         18.4960    8.3350   -2.0590 O.2   192  PRO192     -0.2718
    164  CB        17.9770   10.2980    0.2600 C.3   192  PRO192      0.0282
    165  CG        19.2610    9.7960    0.8870 C.3   192  PRO192      0.0208
    166  CD        18.8860    8.4980    1.5600 C.3   192  PRO192      0.0893
    167  N         16.3340    8.9140   -2.4290 N.am  193  ILE193     -0.1980
    168  CA        16.3370    8.6990   -3.8790 C.3   193  ILE193      0.1595
    169  C         15.9010   10.0020   -4.5660 C.2   193  ILE193      0.2287
    170  O         14.8970   10.6240   -4.1770 O.2   193  ILE193     -0.2864
    171  CB        15.4690    7.4800   -4.3190 C.3   193  ILE193      0.0276
    172  CG1       15.9470    6.1480   -3.6770 C.3   193  ILE193      0.0022
    173  CG2       15.3670    7.3570   -5.8780 C.3   193  ILE193      0.0022
    174  CD1       17.2900    5.5390   -4.1780 C.3   193  ILE193      0.0001
    175  N         13.9430   11.5030   -6.6650 N.3   195  THR195     -0.1218
    176  CA        12.6650   11.4200   -7.3840 C.3   195  THR195      0.1862
    177  C         12.2070   12.8410   -7.6790 C.2   195  THR195      0.2287
    178  O         12.7230   13.7820   -7.0790 O.2   195  THR195     -0.2866
    179  CB        11.5950   10.6260   -6.6080 C.3   195  THR195      0.1770
    180  OG1       11.2900   11.2570   -5.3560 O.3   195  THR195     -0.2211
    181  CG2       11.9840    9.1830   -6.3960 C.3   195  THR195      0.0375
@<TRIPOS>BOND
     1    46    44    1
     2    39    38    2
     3    38    37    1
     4    44    43    2
     5    44    45    1
     6    43    42    1
     7    37    40    1
     8    37    36    1
     9    40    41    1
    10     4     3    2
    11    41    42    1
    12    31    30    2
    13     3     2    1
    14    36    30   am
    15    30    29    1
    16     8     6    1
    17     2     1    1
    18     2     5    1
    19     6     5    1
    20    29    28    1
    21    29    32    1
    22    34    33   ar
    23     5     7    1
    24    35    33   ar
    25    20    19    2
    26    33    32    1
    27    28    19   am
    28    19    18    1
    29    17    18    1
    30    18    21    1
    31    12    11    2
    32   177   176    1
    33   177   178    2
    34    21    22    1
    35    11    10    1
    36   176   175    1
    37   176   179    1
    38     9    10    1
    39    22    23   ar
    40    22    24   ar
    41    10    13    1
    42    23    25   ar
    43   179   181    1
    44   179   180    1
    45    24    26   ar
    46    25    27   ar
    47    26    27   ar
    48   173   171    1
    49    13    14    1
    50    13    15    1
    51    14    16    1
    52   169   170    2
    53   169   168    1
    54   171   168    1
    55   171   172    1
    56   174   172    1
    57   168   167    1
    58   167   162   am
    59   163   162    2
    60   162   161    1
    61    59    58    2
    62    68    66   ar
    63    68    70   ar
    64    66    65   ar
    65   111   110    1
    66    56    57    1
    67    47    48    1
    68    70    69   ar
    69    93    92    2
    70    65    64    1
    71    65    67   ar
    72    49    48    1
    73    49    50    2
    74    64    61    1
    75    58    57    1
    76    58    60   am
    77   110   109    1
    78   161   164    1
    79   161   160    1
    80    51    48    1
    81    51    52    1
    82   119   117    1
    83    54    53    2
    84   118   116    1
    85    69    67   ar
    86    92    91    1
    87    92    94   am
    88   164   165    1
    89    61    60    1
    90    61    62    1
    91    90    91    1
    92    90    87    1
    93    52    53    1
    94   117   116    1
    95   160   166    1
    96    53    55   am
    97   165   166    1
    98   116   113    1
    99   109   108    1
   100    86    87    1
   101    86    81   am
   102    74    73    2
   103    87    88    1
   104    71    62   am
   105    71    72    1
   106    62    63    2
   107   102   101    1
   108    80    81    1
   109    80    83    1
   110    80    79    1
   111   115   114    2
   112    73    79   am
   113    73    72    1
   114   142   141    1
   115   108   107    1
   116    81    82    2
   117   113   114    1
   118   113   112    1
   119    83    84    1
   120    79    85    1
   121   101   100    1
   122   150   149    1
   123    84    85    1
   124    72    75    1
   125    88    89    2
   126   140   141   ar
   127   140   138   ar
   128   159   158    1
   129   141   139   ar
   130    99   100    1
   131    99    96    1
   132   107   104    1
   133   106   105    2
   134    75    76    1
   135   128   126   ar
   136   128   130   ar
   137   126   125   ar
   138   158   157    1
   139   149   148    1
   140    98    97    2
   141   138   136   ar
   142    97    96    1
   143   105   104    1
   144   139   137   ar
   145   148   147    1
   146   130   129   ar
   147   104   103    1
   148   125   124    1
   149   125   127   ar
   150    96    95    1
   151   124   121    1
   152    76    77    1
   153   129   127   ar
   154   120   121    1
   155   147   144    1
   156   136   137   ar
   157   136   135    1
   158   121   122    1
   159   157   156    1
   160    77    78    1
   161   132   135    1
   162   132   131    1
   163   132   133    1
   164   156   155    1
   165   144   143    1
   166   144   145    1
   167   122   123    2
   168   134   133    2
   169   146   145    2
   170   155   152    1
   171   152   151    1
   172   152   153    1
   173   153   154    2
