@<TRIPOS>MOLECULE
tmp/5g10B00.pdb
 166 161 0 0 0
SMALL
GASTEIGER

@<TRIPOS>ATOM
      1  N         -1.3450   16.0850    1.5330 N.3    23  THR23      -0.1203
      2  CA        -0.5690   17.2680    1.1260 C.3    23  THR23       0.1994
      3  C          0.4230   17.7240    2.2070 C.2    23  THR23       0.2618
      4  O          1.1520   18.6930    2.0030 O.2    23  THR23      -0.2717
      5  CB        -1.5160   18.4490    0.8380 C.3    23  THR23       0.1784
      6  OG1       -2.3080   18.7060    2.0030 O.3    23  THR23      -0.2211
      7  CG2       -2.4300   18.1240   -0.2860 C.3    23  THR23       0.0376
      8  N          0.4470   17.0280    3.3430 N.am   24  LEU24      -0.1966
      9  CA         1.2660   17.4250    4.4630 C.3    24  LEU24       0.1713
     10  C          2.6330   16.7760    4.3470 C.2    24  LEU24       0.2458
     11  O          2.7230   15.5460    4.2580 O.2    24  LEU24      -0.2730
     12  CB         0.6160   16.9940    5.7670 C.3    24  LEU24       0.0310
     13  CG        -0.7010   17.6760    6.1130 C.3    24  LEU24       0.0022
     14  CD1       -1.3590   16.9670    7.2860 C.3    24  LEU24       0.0001
     15  CD2       -0.4420   19.1420    6.4450 C.3    24  LEU24       0.0001
     16  N          3.7020   17.5890    4.3760 N.am   25  PRO25      -0.2727
     17  CA         5.0250   16.9760    4.4490 C.3    25  PRO25       0.1402
     18  C          5.1530   16.1630    5.7130 C.2    25  PRO25       0.2269
     19  O          4.7590   16.6150    6.7820 O.2    25  PRO25      -0.2865
     20  CB         5.9890   18.1740    4.5100 C.3    25  PRO25       0.0296
     21  CG         5.1940   19.3580    4.1220 C.3    25  PRO25       0.0237
     22  CD         3.7690   19.0570    4.4730 C.3    25  PRO25       0.0939
     23  N         -0.7260   13.9970   -4.9640 N.3    40  GLU40      -0.1245
     24  CA        -0.3110   13.9630   -6.3990 C.3    40  GLU40       0.1567
     25  C          0.5450   12.7160   -6.7080 C.2    40  GLU40       0.2260
     26  O          1.7260   12.8060   -7.0570 O.2    40  GLU40      -0.2867
     27  CB         0.4320   15.2580   -6.8150 C.3    40  GLU40       0.0388
     28  CG         0.2870   15.6790   -8.2820 C.3    40  GLU40       0.1160
     29  CD         1.0030   14.7810   -9.2830 C.2    40  GLU40       0.3649
     30  OE1        0.3680   13.7890   -9.7530 O.co2  40  GLU40      -0.2457
     31  OE2        2.1890   15.0700   -9.6190 O.co2  40  GLU40      -0.2457
     32  N          6.5220   26.5020   -1.8200 N.3    99  GLN99      -0.1231
     33  CA         5.3870   26.1750   -0.9540 C.3    99  GLN99       0.1698
     34  C          4.3590   25.2580   -1.6940 C.2    99  GLN99       0.2592
     35  O          3.7850   25.5840   -2.7760 O.2    99  GLN99      -0.2718
     36  CB         4.7240   27.4050   -0.3140 C.3    99  GLN99       0.0381
     37  CG         4.9350   27.5820    1.2120 C.3    99  GLN99       0.0905
     38  CD         3.9080   26.8400    2.0870 C.2    99  GLN99       0.2608
     39  OE1        3.5130   25.7140    1.7840 O.2    99  GLN99      -0.2717
     40  NE2        3.4720   27.4800    3.1820 N.am   99  GLN99      -0.0878
     41  N          4.1710   24.0820   -1.1040 N.am  100  ASP100     -0.1974
     42  CA         3.2810   23.0570   -1.6300 C.3   100  ASP100      0.1709
     43  C          3.7620   22.6010   -3.0040 C.2   100  ASP100      0.2293
     44  O          2.9580   22.2420   -3.8550 O.2   100  ASP100     -0.2864
     45  CB         1.8220   23.5560   -1.6920 C.3   100  ASP100      0.1436
     46  CG         1.3690   24.2170   -0.4000 C.2   100  ASP100      0.3671
     47  OD1        1.3890   23.5560    0.6780 O.co2 100  ASP100     -0.2456
     48  OD2        0.9580   25.4040   -0.4530 O.co2 100  ASP100     -0.2456
     49  N          1.5770   18.4560  -13.0310 N.3   140  PRO140     -0.2116
     50  CA         0.6420   19.4570  -13.5640 C.3   140  PRO140      0.1372
     51  C          1.2820   20.8570  -13.6500 C.2   140  PRO140      0.2244
     52  O          2.4140   21.0680  -13.2100 O.2   140  PRO140     -0.2868
     53  CB        -0.4880   19.4300  -12.5410 C.3   140  PRO140      0.0268
     54  CG         0.1870   19.0500  -11.2680 C.3   140  PRO140      0.0207
     55  CD         1.1950   18.0220  -11.6790 C.3   140  PRO140      0.0892
     56  N         -0.9700   24.3010  -13.8290 N.3   142  HIS142     -0.1226
     57  CA        -1.7830   25.5320  -13.8650 C.3   142  HIS142      0.1752
     58  C         -1.6150   26.5080  -12.6890 C.2   142  HIS142      0.2596
     59  O         -2.1140   27.6240  -12.7710 O.2   142  HIS142     -0.2718
     60  CB        -3.2680   25.2280  -14.1200 C.3   142  HIS142      0.0759
     61  CG        -3.9990   24.6820  -12.9400 C.ar  142  HIS142      0.0818
     62  ND1       -5.2890   25.0500  -12.6420 N.ar  142  HIS142     -0.2268
     63  CD2       -3.6410   23.7710  -12.0010 C.ar  142  HIS142      0.1154
     64  CE1       -5.6880   24.4060  -11.5620 C.ar  142  HIS142      0.1986
     65  NE2       -4.7100   23.6170  -11.1610 N.ar  142  HIS142     -0.2212
     66  N         -0.9100   26.1000  -11.6190 N.am  143  HIS143     -0.1975
     67  CA        -0.5570   27.0170  -10.5390 C.3   143  HIS143      0.1656
     68  C          0.8200   27.6380  -10.6640 C.2   143  HIS143      0.2291
     69  O          1.1130   28.5820   -9.9470 O.2   143  HIS143     -0.2864
     70  CB        -0.5890   26.3260   -9.1880 C.3   143  HIS143      0.0771
     71  CG        -1.9240   25.7720   -8.8180 C.ar  143  HIS143      0.0820
     72  ND1       -3.0560   26.5540   -8.7230 N.ar  143  HIS143     -0.2267
     73  CD2       -2.3010   24.5170   -8.4720 C.ar  143  HIS143      0.1154
     74  CE1       -4.0720   25.8040   -8.3420 C.ar  143  HIS143      0.1986
     75  NE2       -3.6380   24.5700   -8.1740 N.ar  143  HIS143     -0.2212
     76  N          1.5950   24.6210   -5.6740 N.3   151  GLY151     -0.1210
     77  CA         0.4850   23.6770   -5.8410 C.3   151  GLY151      0.1956
     78  C          0.8240   22.4790   -6.7170 C.2   151  GLY151      0.2612
     79  O          0.0910   22.1390   -7.6340 O.2   151  GLY151     -0.2717
     80  N          1.9730   21.8630   -6.4310 N.am  152  PHE152     -0.1962
     81  CA         2.4250   20.6320   -7.1190 C.3   152  PHE152      0.1771
     82  C          2.8440   20.8450   -8.5770 C.2   152  PHE152      0.2619
     83  O          3.0350   19.8680   -9.2990 O.2   152  PHE152     -0.2715
     84  CB         1.3680   19.4910   -7.1060 C.3   152  PHE152      0.0574
     85  CG         0.5920   19.3230   -5.8230 C.ar  152  PHE152     -0.0200
     86  CD1        1.0920   19.7330   -4.5980 C.ar  152  PHE152     -0.0042
     87  CD2       -0.6860   18.7190   -5.8690 C.ar  152  PHE152     -0.0042
     88  CE1        0.3580   19.5540   -3.4470 C.ar  152  PHE152     -0.0003
     89  CE2       -1.4280   18.5400   -4.7120 C.ar  152  PHE152     -0.0003
     90  CZ        -0.8930   18.9530   -3.5040 C.ar  152  PHE152     -0.0000
     91  N          2.9700   22.1080   -9.0090 N.am  153  CYS153     -0.1968
     92  CA         3.2960   22.4650  -10.3860 C.3   153  CYS153      0.1712
     93  C          4.6740   23.1230  -10.4240 C.2   153  CYS153      0.2296
     94  O          4.9570   24.0210   -9.6180 O.2   153  CYS153     -0.2864
     95  CB         2.2690   23.4610  -10.9410 C.3   153  CYS153      0.0983
     96  SG         0.5470   22.9290  -10.8280 S.3   153  CYS153     -0.0798
     97  N        -10.3250   22.2580  -13.5530 N.3   180  ASP180     -0.1239
     98  CA        -9.7150   21.8170  -12.3050 C.3   180  ASP180      0.1674
     99  C        -10.4210   22.6230  -11.2030 C.2   180  ASP180      0.2266
    100  O        -10.7860   23.7600  -11.3860 O.2   180  ASP180     -0.2867
    101  CB        -8.2170   22.1010  -12.3050 C.3   180  ASP180      0.1410
    102  CG        -7.5020   21.5600  -11.0870 C.2   180  ASP180      0.3668
    103  OD1       -7.5690   22.1750   -9.9970 O.co2 180  ASP180     -0.2456
    104  OD2       -6.7910   20.5460  -11.2410 O.co2 180  ASP180     -0.2456
    105  N         -9.4750   23.8850   -8.4880 N.3   182  HIS182     -0.1241
    106  CA        -8.6820   24.9380   -7.8750 C.3   182  HIS182      0.1621
    107  C         -8.4260   26.0490   -8.8910 C.2   182  HIS182      0.2264
    108  O         -8.5450   25.8500  -10.1000 O.2   182  HIS182     -0.2867
    109  CB        -7.3740   24.3520   -7.3470 C.3   182  HIS182      0.0745
    110  CG        -7.5900   23.1990   -6.4300 C.ar  182  HIS182      0.0817
    111  ND1       -7.3180   21.8890   -6.7840 N.ar  182  HIS182     -0.2268
    112  CD2       -8.1420   23.1630   -5.1940 C.ar  182  HIS182      0.1154
    113  CE1       -7.6590   21.1050   -5.7700 C.ar  182  HIS182      0.1986
    114  NE2       -8.1450   21.8580   -4.7890 N.ar  182  HIS182     -0.2212
    115  N         -8.1490   26.6490   -3.3220 N.3   208  PHE208     -0.1241
    116  CA        -6.7100   26.8460   -3.5060 C.3   208  PHE208      0.1605
    117  C         -6.4620   27.7410   -4.7160 C.2   208  PHE208      0.2264
    118  O         -6.9140   27.3880   -5.8090 O.2   208  PHE208     -0.2867
    119  CB        -5.9490   25.5350   -3.6780 C.3   208  PHE208      0.0534
    120  CG        -4.4540   25.7190   -3.6590 C.ar  208  PHE208     -0.0203
    121  CD1       -3.7700   25.7690   -2.4580 C.ar  208  PHE208     -0.0042
    122  CD2       -3.7480   25.9390   -4.8350 C.ar  208  PHE208     -0.0042
    123  CE1       -2.4000   25.9720   -2.4360 C.ar  208  PHE208     -0.0003
    124  CE2       -2.3730   26.1440   -4.8160 C.ar  208  PHE208     -0.0003
    125  CZ        -1.7030   26.1730   -3.6140 C.ar  208  PHE208     -0.0000
    126  N        -10.6430   16.9990   -9.9440 N.3   268  ASP268     -0.1239
    127  CA       -10.7600   17.1200   -8.4940 C.3   268  ASP268      0.1674
    128  C        -12.0590   17.7930   -8.0160 C.2   268  ASP268      0.2266
    129  O        -12.2720   17.9010   -6.8090 O.2   268  ASP268     -0.2867
    130  CB        -9.4990   17.7540   -7.8380 C.3   268  ASP268      0.1410
    131  CG        -8.8460   18.8590   -8.6410 C.2   268  ASP268      0.3668
    132  OD1       -9.3870   19.3490   -9.6660 O.co2 268  ASP268     -0.2456
    133  OD2       -7.7600   19.2890   -8.1960 O.co2 268  ASP268     -0.2456
    134  N         -9.3880   16.7450   -2.0290 N.3   275  LEU275     -0.1245
    135  CA        -8.7930   18.0850   -2.0740 C.3   275  LEU275      0.1561
    136  C         -9.7600   19.1980   -2.4690 C.2   275  LEU275      0.2260
    137  O         -9.3510   20.3610   -2.5930 O.2   275  LEU275     -0.2867
    138  CB        -7.5560   18.0920   -2.9710 C.3   275  LEU275      0.0270
    139  CG        -6.3820   17.2130   -2.4750 C.3   275  LEU275      0.0019
    140  CD1       -5.0910   17.6380   -3.1410 C.3   275  LEU275      0.0001
    141  CD2       -6.1940   17.2510   -0.9780 C.3   275  LEU275      0.0001
    142  N         -4.7230   17.9900  -15.3520 N.3   309  GLU309     -0.1231
    143  CA        -4.1460   18.8100  -14.2530 C.3   309  GLU309      0.1699
    144  C         -4.2860   17.9790  -12.9740 C.2   309  GLU309      0.2592
    145  O         -3.5570   16.9910  -12.8300 O.2   309  GLU309     -0.2718
    146  CB        -4.7790   20.2210  -14.1860 C.3   309  GLU309      0.0402
    147  CG        -4.4300   21.1140  -15.3770 C.3   309  GLU309      0.1161
    148  CD        -3.0360   21.7820  -15.3340 C.2   309  GLU309      0.3649
    149  OE1       -2.3490   21.8180  -14.2940 O.co2 309  GLU309     -0.2457
    150  OE2       -2.6130   22.3370  -16.3730 O.co2 309  GLU309     -0.2457
    151  N         -5.2310   18.3290  -12.0940 N.am  310  GLY310     -0.1957
    152  CA        -5.4820   17.6160  -10.8470 C.3   310  GLY310      0.1869
    153  C         -6.4880   16.4820  -10.9030 C.2   310  GLY310      0.2309
    154  O         -6.9710   16.0920  -11.9640 O.2   310  GLY310     -0.2863
    155  N         -7.5490   13.6240   -7.4230 N.3   312  TYR312     -0.1241
    156  CA        -6.8740   12.8810   -6.3340 C.3   312  TYR312      0.1605
    157  C         -7.6120   11.6620   -5.7910 C.2   312  TYR312      0.2264
    158  O         -7.1580   11.0530   -4.8280 O.2   312  TYR312     -0.2867
    159  CB        -6.5630   13.8790   -5.2070 C.3   312  TYR312      0.0534
    160  CG        -5.7940   15.0050   -5.8050 C.ar  312  TYR312     -0.0201
    161  CD1       -4.4580   14.8150   -6.1580 C.ar  312  TYR312     -0.0009
    162  CD2       -6.4060   16.2210   -6.1690 C.ar  312  TYR312     -0.0009
    163  CE1       -3.7190   15.8130   -6.7860 C.ar  312  TYR312      0.0417
    164  CE2       -5.6640   17.2130   -6.7910 C.ar  312  TYR312      0.0417
    165  CZ        -4.3190   17.0030   -7.0890 C.ar  312  TYR312      0.1957
    166  OH        -3.5410   17.9410   -7.7230 O.3   312  TYR312     -0.2866
@<TRIPOS>BOND
     1   150   148   ar
     2   147   148    1
     3   147   146    1
     4   142   143    1
     5   148   149   ar
     6   143   146    1
     7   143   144    1
     8    60    57    1
     9    60    61    1
    10    57    56    1
    11    57    58    1
    12    51    50    1
    13    51    52    2
    14    50    49    1
    15    50    53    1
    16    97    98    1
    17    49    55    1
    18   144   145    2
    19   144   151   am
    20    61    62   ar
    21    61    63   ar
    22    59    58    2
    23    58    66   am
    24    62    64   ar
    25    53    54    1
    26    98   101    1
    27    98    99    1
    28   101   102    1
    29   151   152    1
    30    63    65   ar
    31   154   153    2
    32    55    54    1
    33    66    67    1
    34    64    65   ar
    35   100    99    2
    36   104   102   ar
    37   102   103   ar
    38    95    96    1
    39    95    92    1
    40   153   152    1
    41    68    67    1
    42    68    69    2
    43    67    70    1
    44    93    92    1
    45    93    94    2
    46    92    91    1
    47   108   107    2
    48   126   127    1
    49    30    29   ar
    50   132   131   ar
    51    31    29   ar
    52    83    82    2
    53    29    28    1
    54    70    71    1
    55    91    82   am
    56   107   106    1
    57    71    72   ar
    58    71    73   ar
    59    72    74   ar
    60   131   133   ar
    61   131   130    1
    62    82    81    1
    63   127   128    1
    64   127   130    1
    65   105   106    1
    66    73    75   ar
    67    74    75   ar
    68    28    27    1
    69   128   129    2
    70   106   109    1
    71   166   165    1
    72    79    78    2
    73   155   156    1
    74   109   110    1
    75    81    84    1
    76    81    80    1
    77    84    85    1
    78   165   164   ar
    79   165   163   ar
    80    26    25    2
    81    27    24    1
    82   164   162   ar
    83   163   161   ar
    84   111   110   ar
    85   111   113   ar
    86    78    80   am
    87    78    77    1
    88    25    24    1
    89   110   112   ar
    90    24    23    1
    91   156   157    1
    92   156   159    1
    93   162   160   ar
    94   161   160   ar
    95    87    85   ar
    96    87    89   ar
    97    77    76    1
    98    85    86   ar
    99   118   117    2
   100   160   159    1
   101   157   158    2
   102   113   114   ar
   103   112   114   ar
   104   122   124   ar
   105   122   120   ar
   106   124   125   ar
   107   117   116    1
   108    89    90   ar
   109    86    88   ar
   110    44    43    2
   111   119   120    1
   112   119   116    1
   113   120   121   ar
   114   125   123   ar
   115   116   115    1
   116    90    88   ar
   117   140   139    1
   118    43    42    1
   119   138   139    1
   120   138   135    1
   121    35    34    2
   122   137   136    2
   123   139   141    1
   124   136   135    1
   125   121   123   ar
   126   135   134    1
   127    32    33    1
   128    34    41   am
   129    34    33    1
   130    45    42    1
   131    45    46    1
   132    42    41    1
   133    33    36    1
   134    48    46   ar
   135    46    47   ar
   136    36    37    1
   137     7     5    1
   138     5     2    1
   139     5     6    1
   140     2     1    1
   141     2     3    1
   142    37    38    1
   143    39    38    2
   144     4     3    2
   145    38    40   am
   146     3     8   am
   147     8     9    1
   148    21    22    1
   149    21    20    1
   150    11    10    2
   151    10    16   am
   152    10     9    1
   153    16    17    1
   154    16    22    1
   155    17    20    1
   156    17    18    1
   157     9    12    1
   158    18    19    2
   159    12    13    1
   160    13    15    1
   161    13    14    1
