@<TRIPOS>MOLECULE
tmp/5g11A00.pdb
 162 157 0 0 0
SMALL
GASTEIGER

@<TRIPOS>ATOM
      1  N         26.2190  -38.0340   -1.4760 N.3    22  THR22      -0.1203
      2  CA        25.0450  -38.8130   -1.0410 C.3    22  THR22       0.1994
      3  C         24.5540  -39.8240   -2.1030 C.2    22  THR22       0.2618
      4  O         23.6210  -40.6060   -1.8490 O.2    22  THR22      -0.2717
      5  CB        23.8520  -37.8770   -0.7290 C.3    22  THR22       0.1784
      6  OG1       23.4210  -37.2180   -1.9280 O.3    22  THR22      -0.2211
      7  CG2       24.2250  -36.8060    0.2830 C.3    22  THR22       0.0376
      8  N         25.1540  -39.7970   -3.2940 N.am   23  LEU23      -0.1966
      9  CA        24.7000  -40.6520   -4.3980 C.3    23  LEU23       0.1713
     10  C         25.3300  -42.0420   -4.2990 C.2    23  LEU23       0.2458
     11  O         26.5570  -42.1590   -4.3200 O.2    23  LEU23      -0.2730
     12  CB        25.0670  -40.0430   -5.7520 C.3    23  LEU23       0.0310
     13  CG        24.3220  -38.7610   -6.0950 C.3    23  LEU23       0.0022
     14  CD1       25.0630  -37.9220   -7.1350 C.3    23  LEU23       0.0001
     15  CD2       22.9400  -39.1290   -6.5920 C.3    23  LEU23       0.0001
     16  N         24.4990  -43.0900   -4.2020 N.am   24  PRO24      -0.2727
     17  CA        25.0970  -44.4270   -4.2090 C.3    24  PRO24       0.1402
     18  C         25.8260  -44.6680   -5.5190 C.2    24  PRO24       0.2269
     19  O         25.2840  -44.3580   -6.5820 O.2    24  PRO24      -0.2865
     20  CB        23.8870  -45.3810   -4.0820 C.3    24  PRO24       0.0296
     21  CG        22.6980  -44.5800   -4.5020 C.3    24  PRO24       0.0237
     22  CD        23.0210  -43.1390   -4.2110 C.3    24  PRO24       0.0939
     23  N         27.8270  -39.0510    5.2200 N.3    39  GLU39      -0.1245
     24  CA        27.9200  -39.3500    6.6430 C.3    39  GLU39       0.1567
     25  C         29.2170  -40.1550    6.9120 C.2    39  GLU39       0.2260
     26  O         29.1730  -41.3150    7.3070 O.2    39  GLU39      -0.2867
     27  CB        26.6360  -40.0780    7.1030 C.3    39  GLU39       0.0388
     28  CG        26.2370  -39.8400    8.5500 C.3    39  GLU39       0.1160
     29  CD        27.1900  -40.4920    9.5360 C.2    39  GLU39       0.3649
     30  OE1       28.2110  -39.8290    9.8700 O.co2  39  GLU39      -0.2457
     31  OE2       26.9380  -41.6610    9.9410 O.co2  39  GLU39      -0.2457
     32  N         15.4570  -45.5310    1.6160 N.3    98  GLN98      -0.1231
     33  CA        15.7410  -44.4040    0.7320 C.3    98  GLN98       0.1698
     34  C         16.7190  -43.4810    1.5100 C.2    98  GLN98       0.2592
     35  O         16.3770  -42.9690    2.5840 O.2    98  GLN98      -0.2718
     36  CB        14.4220  -43.6810    0.3460 C.3    98  GLN98       0.0381
     37  CG        14.1940  -43.3620   -1.1240 C.3    98  GLN98       0.0905
     38  CD        15.0600  -42.2530   -1.6860 C.2    98  GLN98       0.2608
     39  OE1       16.2490  -42.1330   -1.3750 O.2    98  GLN98      -0.2717
     40  NE2       14.4670  -41.4580   -2.5690 N.am   98  GLN98      -0.0878
     41  N         17.9360  -43.3330    0.9770 N.am   99  ASP99      -0.1974
     42  CA        19.0350  -42.5850    1.6160 C.3    99  ASP99       0.1709
     43  C         19.4230  -43.1680    2.9760 C.2    99  ASP99       0.2293
     44  O         19.6980  -42.4210    3.9090 O.2    99  ASP99      -0.2864
     45  CB        18.6800  -41.0990    1.7920 C.3    99  ASP99       0.1436
     46  CG        18.0750  -40.4830    0.5540 C.2    99  ASP99       0.3671
     47  OD1       18.8230  -40.3170   -0.4530 O.co2  99  ASP99      -0.2456
     48  OD2       16.8590  -40.1400    0.6060 O.co2  99  ASP99      -0.2456
     49  N         23.5870  -40.6410   12.9980 N.3   139  PRO139     -0.2116
     50  CA        22.5730  -39.7120   13.5020 C.3   139  PRO139      0.1372
     51  C         21.1680  -40.3180   13.5790 C.2   139  PRO139      0.2244
     52  O         20.9530  -41.4640   13.1680 O.2   139  PRO139     -0.2868
     53  CB        22.6140  -38.5920   12.4770 C.3   139  PRO139      0.0268
     54  CG        22.9730  -39.2760   11.2080 C.3   139  PRO139      0.0207
     55  CD        23.9330  -40.3640   11.5900 C.3   139  PRO139      0.0892
     56  N         17.6990  -38.0510   13.7680 N.3   141  HIS141     -0.1226
     57  CA        16.4910  -37.2130   13.7290 C.3   141  HIS141      0.1752
     58  C         15.5570  -37.3890   12.5450 C.2   141  HIS141      0.2596
     59  O         14.4390  -36.9270   12.6370 O.2   141  HIS141     -0.2718
     60  CB        16.8300  -35.7380   13.9510 C.3   141  HIS141      0.0759
     61  CG        17.3770  -35.0300   12.7470 C.ar  141  HIS141      0.0818
     62  ND1       17.0500  -33.7250   12.4570 N.ar  141  HIS141     -0.2268
     63  CD2       18.2420  -35.4220   11.7840 C.ar  141  HIS141      0.1154
     64  CE1       17.6900  -33.3430   11.3730 C.ar  141  HIS141      0.1986
     65  NE2       18.4150  -34.3560   10.9410 N.ar  141  HIS141     -0.2212
     66  N         15.9860  -38.0850   11.4830 N.am  142  HIS142     -0.1975
     67  CA        15.1060  -38.4230   10.3600 C.3   142  HIS142      0.1656
     68  C         14.4380  -39.7670   10.4790 C.2   142  HIS142      0.2291
     69  O         13.5460  -40.0540    9.6970 O.2   142  HIS142     -0.2864
     70  CB        15.8660  -38.4130    9.0400 C.3   142  HIS142      0.0771
     71  CG        16.3820  -37.0690    8.6610 C.ar  142  HIS142      0.0820
     72  ND1       15.5810  -35.9530    8.6030 N.ar  142  HIS142     -0.2267
     73  CD2       17.6150  -36.6650    8.2980 C.ar  142  HIS142      0.1154
     74  CE1       16.3010  -34.9150    8.2310 C.ar  142  HIS142      0.1986
     75  NE2       17.5420  -35.3160    8.0460 N.ar  142  HIS142     -0.2212
     76  N         17.3920  -40.6860    5.6450 N.3   150  GLY150     -0.1210
     77  CA        18.3700  -39.6160    5.8320 C.3   150  GLY150      0.1956
     78  C         19.6310  -39.9580    6.6100 C.2   150  GLY150      0.2612
     79  O         20.1680  -39.1110    7.3210 O.2   150  GLY150     -0.2717
     80  N         20.0950  -41.1950    6.4320 N.am  151  PHE151     -0.1962
     81  CA        21.2560  -41.7740    7.1190 C.3   151  PHE151      0.1771
     82  C         21.0660  -42.0010    8.6070 C.2   151  PHE151      0.2619
     83  O         22.0430  -42.1840    9.3190 O.2   151  PHE151     -0.2715
     84  CB        22.5260  -40.9550    6.8890 C.3   151  PHE151      0.0574
     85  CG        22.6330  -40.3800    5.5180 C.ar  151  PHE151     -0.0200
     86  CD1       22.3970  -41.1640    4.4040 C.ar  151  PHE151     -0.0042
     87  CD2       22.9620  -39.0450    5.3370 C.ar  151  PHE151     -0.0042
     88  CE1       22.4710  -40.6390    3.1200 C.ar  151  PHE151     -0.0003
     89  CE2       23.0530  -38.5190    4.0530 C.ar  151  PHE151     -0.0003
     90  CZ        22.7960  -39.3170    2.9480 C.ar  151  PHE151     -0.0000
     91  N         19.8140  -42.0390    9.0570 N.am  152  CYS152     -0.1968
     92  CA        19.4600  -42.3290   10.4370 C.3   152  CYS152      0.1712
     93  C         18.7930  -43.6890   10.4650 C.2   152  CYS152      0.2296
     94  O         17.9500  -44.0040    9.6180 O.2   152  CYS152     -0.2864
     95  CB        18.5280  -41.2450   10.9670 C.3   152  CYS152      0.0983
     96  SG        19.1350  -39.5680   10.6970 S.3   152  CYS152     -0.0798
     97  N         19.8570  -28.7480   13.2290 N.3   179  ASP179     -0.1239
     98  CA        20.2820  -29.3650   11.9860 C.3   179  ASP179      0.1674
     99  C         19.5110  -28.6460   10.8860 C.2   179  ASP179      0.2266
    100  O         18.3670  -28.3090   11.0620 O.2   179  ASP179     -0.2867
    101  CB        19.9970  -30.8870   11.9960 C.3   179  ASP179      0.1410
    102  CG        20.3740  -31.5770   10.6930 C.2   179  ASP179      0.3668
    103  OD1       19.6330  -31.4310    9.7160 O.co2 179  ASP179     -0.2456
    104  OD2       21.3740  -32.2990   10.5760 O.co2 179  ASP179     -0.2456
    105  N         18.3120  -29.5890    8.1390 N.3   181  HIS181     -0.1241
    106  CA        17.2020  -30.3490    7.6000 C.3   181  HIS181      0.1621
    107  C         16.0980  -30.5280    8.6330 C.2   181  HIS181      0.2264
    108  O         16.2930  -30.3610    9.8580 O.2   181  HIS181     -0.2867
    109  CB        17.7070  -31.7020    7.0910 C.3   181  HIS181      0.0745
    110  CG        18.8930  -31.5780    6.1920 C.ar  181  HIS181      0.0817
    111  ND1       20.1700  -31.9350    6.5840 N.ar  181  HIS181     -0.2268
    112  CD2       19.0080  -31.0370    4.9570 C.ar  181  HIS181      0.1154
    113  CE1       21.0070  -31.6550    5.5960 C.ar  181  HIS181      0.1986
    114  NE2       20.3260  -31.1230    4.6000 N.ar  181  HIS181     -0.2212
    115  N         14.5490  -28.2270    1.9380 N.3   206  CYS206     -0.1221
    116  CA        15.8340  -28.8980    1.7110 C.3   206  CYS206      0.1808
    117  C         15.7130  -30.4240    1.8540 C.2   206  CYS206      0.2601
    118  O         15.7870  -31.1570    0.8540 O.2   206  CYS206     -0.2717
    119  CB        16.9150  -28.3280    2.6360 C.3   206  CYS206      0.0970
    120  SG        18.5880  -28.8600    2.2180 S.3   206  CYS206     -0.0800
    121  N         15.5110  -30.8980    3.0820 N.am  207  PHE207     -0.1976
    122  CA        15.2450  -32.3070    3.3130 C.3   207  PHE207      0.1639
    123  C         14.3050  -32.5100    4.5120 C.2   207  PHE207      0.2290
    124  O         14.6210  -32.0160    5.5950 O.2   207  PHE207     -0.2864
    125  CB        16.5340  -33.1020    3.5330 C.3   207  PHE207      0.0560
    126  CG        16.3060  -34.5740    3.5660 C.ar  207  PHE207     -0.0200
    127  CD1       16.2430  -35.3060    2.3910 C.ar  207  PHE207     -0.0042
    128  CD2       16.0590  -35.2170    4.7610 C.ar  207  PHE207     -0.0042
    129  CE1       15.9910  -36.6780    2.4150 C.ar  207  PHE207     -0.0003
    130  CE2       15.7850  -36.5740    4.7960 C.ar  207  PHE207     -0.0003
    131  CZ        15.7600  -37.3080    3.6230 C.ar  207  PHE207     -0.0000
    132  N         12.8230  -33.1280    0.7330 N.3   209  PRO209     -0.2116
    133  CA        12.7540  -32.1310   -0.3360 C.3   209  PRO209      0.1372
    134  C         11.3440  -31.6160   -0.5760 C.2   209  PRO209      0.2244
    135  O         10.4120  -32.3870   -0.6890 O.2   209  PRO209     -0.2868
    136  CB        13.2880  -32.8910   -1.5520 C.3   209  PRO209      0.0268
    137  CG        12.9780  -34.3280   -1.2590 C.3   209  PRO209      0.0207
    138  CD        13.1890  -34.4610    0.2200 C.3   209  PRO209      0.0892
    139  N         25.1330  -28.6560    9.6490 N.3   267  ASP267     -0.1239
    140  CA        25.0220  -28.5820    8.2110 C.3   267  ASP267      0.1674
    141  C         24.3660  -27.2650    7.7350 C.2   267  ASP267      0.2266
    142  O         24.2220  -27.0490    6.5280 O.2   267  ASP267     -0.2867
    143  CB        24.3590  -29.8580    7.6220 C.3   267  ASP267      0.1410
    144  CG        23.1630  -30.4020    8.4530 C.2   267  ASP267      0.3668
    145  OD1       22.7570  -29.7880    9.4710 O.co2 267  ASP267     -0.2456
    146  OD2       22.6070  -31.4520    8.0750 O.co2 267  ASP267     -0.2456
    147  N         25.5100  -29.9830    1.8210 N.3   274  LEU274     -0.1245
    148  CA        24.1670  -30.5560    1.9190 C.3   274  LEU274      0.1561
    149  C         23.0350  -29.5730    2.2430 C.2   274  LEU274      0.2260
    150  O         21.8890  -29.9720    2.3960 O.2   274  LEU274     -0.2867
    151  CB        24.1900  -31.7370    2.9000 C.3   274  LEU274      0.0270
    152  CG        25.1340  -32.8690    2.4710 C.3   274  LEU274      0.0019
    153  CD1       24.8790  -34.0930    3.3170 C.3   274  LEU274      0.0001
    154  CD2       24.9870  -33.2490    0.9950 C.3   274  LEU274      0.0001
    155  N         23.6430  -33.9670   11.9480 N.3   309  GLY309     -0.1210
    156  CA        24.3140  -33.8550   10.6590 C.3   309  GLY309      0.1956
    157  C         25.4600  -32.8520   10.6940 C.2   309  GLY309      0.2612
    158  O         25.8690  -32.3720   11.7660 O.2   309  GLY309     -0.2717
    159  N         25.9320  -32.5050    9.4980 N.am  310  GLY310     -0.1956
    160  CA        27.1540  -31.7190    9.3010 C.3   310  GLY310      0.1869
    161  C         28.0930  -32.5320    8.4340 C.2   310  GLY310      0.2309
    162  O         28.6000  -33.5580    8.8550 O.2   310  GLY310     -0.2863
@<TRIPOS>BOND
     1    14    13    1
     2    15    13    1
     3    19    18    2
     4    13    12    1
     5    12     9    1
     6    18    17    1
     7    21    22    1
     8    21    20    1
     9     9    10    1
    10     9     8    1
    11    11    10    2
    12    10    16   am
    13    22    16    1
    14    17    16    1
    15    17    20    1
    16     8     3   am
    17    40    38   am
    18     3     4    2
    19     3     2    1
    20     6     5    1
    21    38    39    2
    22    38    37    1
    23   136   137    1
    24   136   133    1
    25     1     2    1
    26   137   138    1
    27    37    36    1
    28     2     5    1
    29     5     7    1
    30   135   134    2
    31   134   133    1
    32    47    46   ar
    33   133   132    1
    34   138   132    1
    35    36    33    1
    36    46    48   ar
    37    46    45    1
    38    33    34    1
    39    33    32    1
    40   118   117    2
    41    41    34   am
    42    41    42    1
    43   154   152    1
    44    34    35    2
    45    42    45    1
    46    42    43    1
    47   116   117    1
    48   116   115    1
    49   116   119    1
    50   147   148    1
    51   117   121   am
    52   148   149    1
    53   148   151    1
    54   120   119    1
    55   149   150    2
    56   127   129   ar
    57   127   126   ar
    58   129   131   ar
    59   152   151    1
    60   152   153    1
    61    90    88   ar
    62    90    89   ar
    63    43    44    2
    64   121   122    1
    65    88    86   ar
    66   122   125    1
    67   122   123    1
    68   125   126    1
    69   126   128   ar
    70   131   130   ar
    71    89    87   ar
    72    86    85   ar
    73   123   124    2
    74   114   112   ar
    75   114   113   ar
    76   128   130   ar
    77   112   110   ar
    78    23    24    1
    79    87    85   ar
    80    85    84    1
    81   113   111   ar
    82    76    77    1
    83    77    78    1
    84   110   111   ar
    85   110   109    1
    86    80    78   am
    87    80    81    1
    88   142   141    2
    89    78    79    2
    90    24    25    1
    91    24    27    1
    92    84    81    1
    93    25    26    2
    94   109   106    1
    95    27    28    1
    96    81    82    1
    97   106   105    1
    98   106   107    1
    99   143   140    1
   100   143   144    1
   101   141   140    1
   102    75    74   ar
   103    75    73   ar
   104   146   144   ar
   105   140   139    1
   106    74    72   ar
   107    73    71   ar
   108   161   162    2
   109   161   160    1
   110   144   145   ar
   111    28    29    1
   112    72    71   ar
   113    82    91   am
   114    82    83    2
   115   107   108    2
   116    71    70    1
   117    70    67    1
   118    91    92    1
   119   160   159    1
   120   159   157   am
   121    29    30   ar
   122    29    31   ar
   123    94    93    2
   124    69    68    2
   125   103   102   ar
   126    67    68    1
   127    67    66    1
   128    92    93    1
   129    92    95    1
   130   104   102   ar
   131   156   157    1
   132   156   155    1
   133   102   101    1
   134   157   158    2
   135    96    95    1
   136    99   100    2
   137    99    98    1
   138    65    64   ar
   139    65    63   ar
   140    54    55    1
   141    54    53    1
   142    64    62   ar
   143    66    58   am
   144    55    49    1
   145    63    61   ar
   146    98   101    1
   147    98    97    1
   148    62    61   ar
   149    53    50    1
   150    58    59    2
   151    58    57    1
   152    61    60    1
   153    49    50    1
   154    52    51    2
   155    50    51    1
   156    57    56    1
   157    57    60    1
