@<TRIPOS>MOLECULE
tmp/5g17B00.pdb
 156 150 0 0 0
SMALL
GASTEIGER

@<TRIPOS>ATOM
      1  N         -9.3530   44.3320   51.7530 N.3    21  LEU21      -0.1245
      2  CA        -9.3030   43.3020   52.7700 C.3    21  LEU21       0.1561
      3  C        -10.3650   42.2830   52.3780 C.2    21  LEU21       0.2260
      4  O        -10.0320   41.1860   51.9260 O.2    21  LEU21      -0.2867
      5  CB        -9.5080   43.9330   54.1460 C.3    21  LEU21       0.0270
      6  CG        -9.3210   43.0470   55.3530 C.3    21  LEU21       0.0019
      7  CD1       -7.9420   42.4480   55.3750 C.3    21  LEU21       0.0001
      8  CD2       -9.5230   43.8940   56.5970 C.3    21  LEU21       0.0001
      9  N          6.0740   40.5780   50.0050 N.3    43  LYS43      -0.1245
     10  CA         7.0120   39.4630   50.1530 C.3    43  LYS43       0.1561
     11  C          7.9870   39.4050   48.9820 C.2    43  LYS43       0.2260
     12  O          9.1540   39.0850   49.1680 O.2    43  LYS43      -0.2867
     13  CB         6.2430   38.1490   50.3510 C.3    43  LYS43       0.0271
     14  CG         5.5760   38.0970   51.7220 C.3    43  LYS43       0.0035
     15  CD         4.5360   36.9870   51.8460 C.3    43  LYS43       0.0206
     16  CE         3.6660   37.2080   53.0880 C.3    43  LYS43       0.1093
     17  NZ         2.5710   36.2110   53.2580 N.3    43  LYS43      -0.1314
     18  N        -14.3930   36.4200   53.4610 N.3   100  ILE100     -0.1245
     19  CA       -13.5210   37.5840   53.3550 C.3   100  ILE100      0.1561
     20  C        -12.4730   37.2930   52.2940 C.2   100  ILE100      0.2260
     21  O        -12.4100   37.9740   51.2600 O.2   100  ILE100     -0.2867
     22  CB       -12.8470   37.9230   54.7160 C.3   100  ILE100      0.0252
     23  CG1      -13.9040   38.1320   55.8150 C.3   100  ILE100      0.0019
     24  CG2      -11.9230   39.1340   54.5950 C.3   100  ILE100      0.0019
     25  CD1      -14.9300   39.2120   55.5290 C.3   100  ILE100      0.0001
     26  N          0.4210   32.4290   53.1750 N.3   140  PRO140     -0.2116
     27  CA         0.7570   32.0910   54.5570 C.3   140  PRO140      0.1372
     28  C         -0.0900   30.9750   55.0970 C.2   140  PRO140      0.2244
     29  O         -0.9980   30.5020   54.4250 O.2   140  PRO140     -0.2868
     30  CB         0.4960   33.3940   55.2940 C.3   140  PRO140      0.0268
     31  CG        -0.6650   33.9820   54.5400 C.3   140  PRO140      0.0207
     32  CD        -0.3940   33.6550   53.0930 C.3   140  PRO140      0.0892
     33  N         -0.6520   30.1880   59.1480 N.3   142  HIS142     -0.1226
     34  CA        -0.9300   29.8900   60.5720 C.3   142  HIS142      0.1752
     35  C         -2.3690   30.0410   61.0650 C.2   142  HIS142      0.2596
     36  O         -2.6760   29.5660   62.1570 O.2   142  HIS142     -0.2718
     37  CB         0.0260   30.6160   61.4820 C.3   142  HIS142      0.0759
     38  CG        -0.1840   32.0900   61.5490 C.ar  142  HIS142      0.0818
     39  ND1        0.0720   32.8050   62.6900 N.ar  142  HIS142     -0.2268
     40  CD2       -0.5940   32.9860   60.6260 C.ar  142  HIS142      0.1154
     41  CE1       -0.1830   34.0830   62.4770 C.ar  142  HIS142      0.1986
     42  NE2       -0.5890   34.2180   61.2350 N.ar  142  HIS142     -0.2212
     43  N         -3.2350   30.6900   60.2980 N.am  143  HIS143     -0.1975
     44  CA        -4.6510   30.7700   60.6390 C.3   143  HIS143      0.1656
     45  C         -5.4720   29.5820   60.1640 C.2   143  HIS143      0.2291
     46  O         -6.6040   29.4470   60.6100 O.2   143  HIS143     -0.2864
     47  CB        -5.3060   32.0540   60.1420 C.3   143  HIS143      0.0771
     48  CG        -4.7150   33.2870   60.7220 C.ar  143  HIS143      0.0820
     49  ND1       -4.5680   33.4960   62.0780 N.ar  143  HIS143     -0.2267
     50  CD2       -4.1730   34.3650   60.1150 C.ar  143  HIS143      0.1154
     51  CE1       -3.9960   34.6720   62.2730 C.ar  143  HIS143      0.1986
     52  NE2       -3.7200   35.2030   61.1000 N.ar  143  HIS143     -0.2212
     53  N         -8.1400   33.6950   57.1560 N.3   151  GLY151     -0.1210
     54  CA        -7.0980   34.7230   57.3710 C.3   151  GLY151      0.1956
     55  C         -5.9820   34.7380   56.3400 C.2   151  GLY151      0.2612
     56  O         -4.7880   34.8440   56.6880 O.2   151  GLY151     -0.2717
     57  N         -6.3770   34.6320   55.0660 N.am  152  PHE152     -0.1962
     58  CA        -5.4510   34.6030   53.9110 C.3   152  PHE152      0.1771
     59  C         -4.6960   33.2730   53.7710 C.2   152  PHE152      0.2619
     60  O         -3.8840   33.1350   52.8720 O.2   152  PHE152     -0.2715
     61  CB        -4.3730   35.7310   53.8690 C.3   152  PHE152      0.0574
     62  CG        -4.8450   37.1050   54.2290 C.ar  152  PHE152     -0.0200
     63  CD1       -6.1060   37.5370   53.9250 C.ar  152  PHE152     -0.0042
     64  CD2       -3.9540   37.9940   54.8280 C.ar  152  PHE152     -0.0042
     65  CE1       -6.5180   38.8350   54.2510 C.ar  152  PHE152     -0.0003
     66  CE2       -4.3480   39.2700   55.1620 C.ar  152  PHE152     -0.0003
     67  CZ        -5.6390   39.6970   54.8640 C.ar  152  PHE152     -0.0000
     68  N         -4.9580   32.3120   54.6430 N.am  153  CYS153     -0.1968
     69  CA        -4.2230   31.0450   54.6710 C.3   153  CYS153      0.1712
     70  C         -5.0530   29.9200   54.0940 C.2   153  CYS153      0.2296
     71  O         -6.2310   29.7880   54.4360 O.2   153  CYS153     -0.2864
     72  CB        -3.8750   30.6910   56.1170 C.3   153  CYS153      0.0983
     73  SG        -2.9280   31.9460   56.9950 S.3   153  CYS153     -0.0798
     74  N          4.5150   35.9650   64.1250 N.3   180  ASP180     -0.1239
     75  CA         3.5380   36.7940   63.4170 C.3   180  ASP180      0.1674
     76  C          2.6880   37.4750   64.4990 C.2   180  ASP180      0.2266
     77  O          2.3970   36.9000   65.5400 O.2   180  ASP180     -0.2867
     78  CB         2.6960   35.9220   62.4520 C.3   180  ASP180      0.1410
     79  CG         1.6380   36.7210   61.6870 C.2   180  ASP180      0.3668
     80  OD1        0.6400   37.1470   62.2670 O.co2 180  ASP180     -0.2456
     81  OD2        1.7520   36.8210   60.4560 O.co2 180  ASP180     -0.2456
     82  N         -0.3760   38.2080   64.7090 N.3   182  HIS182     -0.1241
     83  CA        -1.7140   37.6570   64.8670 C.3   182  HIS182      0.1621
     84  C         -1.6160   36.2520   65.4610 C.2   182  HIS182      0.2264
     85  O         -0.5930   35.5430   65.3000 O.2   182  HIS182     -0.2867
     86  CB        -2.4270   37.6200   63.5120 C.3   182  HIS182      0.0745
     87  CG        -2.4450   38.9560   62.8460 C.ar  182  HIS182      0.0817
     88  ND1       -1.5910   39.3050   61.8050 N.ar  182  HIS182     -0.2268
     89  CD2       -3.1600   40.0680   63.1540 C.ar  182  HIS182      0.1154
     90  CE1       -1.8310   40.5660   61.4760 C.ar  182  HIS182      0.1986
     91  NE2       -2.7520   41.0570   62.2880 N.ar  182  HIS182     -0.2212
     92  N         -6.0950   40.8050   68.1820 N.3   207  CYS207     -0.1221
     93  CA        -5.9420   41.4650   66.8910 C.3   207  CYS207      0.1808
     94  C         -6.6260   40.6500   65.7750 C.2   207  CYS207      0.2601
     95  O         -7.5550   41.1300   65.1360 O.2   207  CYS207     -0.2717
     96  CB        -4.4770   41.7400   66.6410 C.3   207  CYS207      0.0970
     97  SG        -4.1240   42.6650   65.1460 S.3   207  CYS207     -0.0800
     98  N         -6.1960   39.4160   65.5700 N.am  208  PHE208     -0.1976
     99  CA        -6.9300   38.4980   64.7170 C.3   208  PHE208      0.1639
    100  C         -6.4980   37.0710   65.0280 C.2   208  PHE208      0.2290
    101  O         -5.2930   36.8310   65.1230 O.2   208  PHE208     -0.2864
    102  CB        -6.6770   38.7670   63.2150 C.3   208  PHE208      0.0560
    103  CG        -7.4830   37.8620   62.3400 C.ar  208  PHE208     -0.0200
    104  CD1       -8.8210   38.1300   62.1060 C.ar  208  PHE208     -0.0042
    105  CD2       -6.9470   36.6870   61.8320 C.ar  208  PHE208     -0.0042
    106  CE1       -9.6010   37.2540   61.3570 C.ar  208  PHE208     -0.0003
    107  CE2       -7.7210   35.8270   61.0700 C.ar  208  PHE208     -0.0003
    108  CZ        -9.0420   36.1170   60.8380 C.ar  208  PHE208     -0.0000
    109  N        -10.6870   37.4620   66.3370 N.3   210  PRO210     -0.2116
    110  CA       -11.2080   38.2900   67.4450 C.3   210  PRO210      0.1372
    111  C        -11.4640   37.6540   68.8050 C.2   210  PRO210      0.2244
    112  O        -11.5990   38.3500   69.8030 O.2   210  PRO210     -0.2868
    113  CB       -12.5460   38.8110   66.8900 C.3   210  PRO210      0.0268
    114  CG       -12.8810   37.9510   65.7480 C.3   210  PRO210      0.0207
    115  CD       -11.5890   37.4480   65.1820 C.3   210  PRO210      0.0892
    116  N          4.6180   41.4120   60.7440 N.3   268  ASP268     -0.1239
    117  CA         3.4920   42.3330   60.9510 C.3   268  ASP268      0.1674
    118  C          3.4810   42.9520   62.3650 C.2   268  ASP268      0.2266
    119  O          2.6490   43.8370   62.6300 O.2   268  ASP268     -0.2867
    120  CB         2.1110   41.7430   60.5710 C.3   268  ASP268      0.1410
    121  CG         1.9300   40.2870   60.8950 C.2   268  ASP268      0.3668
    122  OD1        2.7690   39.6970   61.6240 O.co2 268  ASP268     -0.2456
    123  OD2        0.9030   39.8030   60.3970 O.co2 268  ASP268     -0.2456
    124  N         -1.5780   46.3680   59.8060 N.3   275  LEU275     -0.1245
    125  CA        -2.5020   45.3650   60.3370 C.3   275  LEU275      0.1561
    126  C         -2.2550   44.9460   61.7710 C.2   275  LEU275      0.2260
    127  O         -2.8770   44.0130   62.2690 O.2   275  LEU275     -0.2867
    128  CB        -2.5860   44.1400   59.4150 C.3   275  LEU275      0.0270
    129  CG        -3.5930   44.2640   58.2710 C.3   275  LEU275      0.0019
    130  CD1       -3.5120   43.0580   57.3460 C.3   275  LEU275      0.0001
    131  CD2       -5.0140   44.3470   58.8040 C.3   275  LEU275      0.0001
    132  N          5.2870   33.9930   57.4460 N.3   309  GLU309     -0.1231
    133  CA         3.8490   34.1940   57.7030 C.3   309  GLU309      0.1699
    134  C          3.4900   35.5860   57.1610 C.2   309  GLU309      0.2592
    135  O          3.7410   35.8520   55.9720 O.2   309  GLU309     -0.2718
    136  CB         3.4960   33.9710   59.1730 C.3   309  GLU309      0.0402
    137  CG         3.7610   32.5480   59.6580 C.3   309  GLU309      0.1161
    138  CD         2.7500   31.5300   59.2020 C.2   309  GLU309      0.3649
    139  OE1        1.7780   31.8420   58.4850 O.co2 309  GLU309     -0.2457
    140  OE2        2.9630   30.3520   59.5600 O.co2 309  GLU309     -0.2457
    141  N          2.9100   36.4720   57.9630 N.am  310  GLY310     -0.1957
    142  CA         2.4180   37.7540   57.4820 C.3   310  GLY310      0.1869
    143  C          3.3940   38.8900   57.5140 C.2   310  GLY310      0.2309
    144  O          4.6060   38.7330   57.6700 O.2   310  GLY310     -0.2863
    145  N          2.8600   43.3830   56.2390 N.3   312  TYR312     -0.1241
    146  CA         2.0720   44.1730   55.2960 C.3   312  TYR312      0.1605
    147  C          2.6650   45.5360   54.9860 C.2   312  TYR312      0.2264
    148  O          1.9860   46.3500   54.3480 O.2   312  TYR312     -0.2867
    149  CB         0.6210   44.3120   55.8240 C.3   312  TYR312      0.0534
    150  CG         0.0700   42.9290   56.0280 C.ar  312  TYR312     -0.0201
    151  CD1       -0.3310   42.1740   54.9440 C.ar  312  TYR312     -0.0009
    152  CD2        0.0820   42.3410   57.2940 C.ar  312  TYR312     -0.0009
    153  CE1       -0.7450   40.8640   55.0940 C.ar  312  TYR312      0.0417
    154  CE2       -0.3130   41.0170   57.4520 C.ar  312  TYR312      0.0417
    155  CZ        -0.7020   40.2910   56.3540 C.ar  312  TYR312      0.1957
    156  OH        -1.0670   38.9650   56.4420 O.3   312  TYR312     -0.2866
@<TRIPOS>BOND
     1    11    12    2
     2    11    10    1
     3     9    10    1
     4    10    13    1
     5    13    14    1
     6    21    20    2
     7    14    15    1
     8     1     2    1
     9    15    16    1
    10     4     3    2
    11    20    19    1
    12     3     2    1
    13     2     5    1
    14    60    59    2
    15    16    17    1
    16    32    26    1
    17    32    31    1
    18    26    27    1
    19    19    18    1
    20    19    22    1
    21    59    58    1
    22    59    68   am
    23    61    58    1
    24    61    62    1
    25    58    57    1
    26    63    62   ar
    27    63    65   ar
    28    70    71    2
    29    70    69    1
    30     5     6    1
    31    62    64   ar
    32    65    67   ar
    33   148   147    2
    34    29    28    2
    35    31    30    1
    36    27    28    1
    37    27    30    1
    38    24    22    1
    39    68    69    1
    40    69    72    1
    41    22    23    1
    42    64    66   ar
    43    67    66   ar
    44   151   153   ar
    45   151   150   ar
    46   147   146    1
    47    57    55   am
    48   153   155   ar
    49   146   149    1
    50   146   145    1
    51     6     7    1
    52     6     8    1
    53    25    23    1
    54   149   150    1
    55   135   134    2
    56   150   152   ar
    57    72    73    1
    58    55    56    2
    59    55    54    1
    60   155   156    1
    61   155   154   ar
    62    53    54    1
    63   134   133    1
    64   134   141   am
    65   152   154   ar
    66   130   129    1
    67   132   133    1
    68   142   143    1
    69   142   141    1
    70   143   144    2
    71   133   136    1
    72   129   131    1
    73   129   128    1
    74   139   138   ar
    75    33    34    1
    76   136   137    1
    77   138   140   ar
    78   138   137    1
    79   128   125    1
    80   124   125    1
    81    50    48   ar
    82    50    52   ar
    83    47    44    1
    84    47    48    1
    85    45    46    2
    86    45    44    1
    87    43    44    1
    88    43    35   am
    89   125   126    1
    90   123   121   ar
    91    81    79   ar
    92   120   121    1
    93   120   117    1
    94    34    35    1
    95    34    37    1
    96    40    42   ar
    97    40    38   ar
    98    48    49   ar
    99   116   117    1
   100   108   107   ar
   101   108   106   ar
   102   121   122   ar
   103   117   118    1
   104    35    36    2
   105   107   105   ar
   106    52    51   ar
   107    42    41   ar
   108   106   104   ar
   109    90    88   ar
   110    90    91   ar
   111    37    38    1
   112    38    39   ar
   113    79    80   ar
   114    79    78    1
   115   126   127    2
   116    88    87   ar
   117   105   103   ar
   118    49    51   ar
   119   104   103   ar
   120    91    89   ar
   121   103   102    1
   122   118   119    2
   123    78    75    1
   124    41    39   ar
   125    87    89   ar
   126    87    86    1
   127   102    99    1
   128    75    74    1
   129    75    76    1
   130    86    83    1
   131    76    77    2
   132    82    83    1
   133    99   100    1
   134    99    98    1
   135    83    84    1
   136   100   101    2
   137    95    94    2
   138    97    96    1
   139   115   114    1
   140   115   109    1
   141    85    84    2
   142    98    94   am
   143   114   113    1
   144    94    93    1
   145   109   110    1
   146    96    93    1
   147   113   110    1
   148    93    92    1
   149   110   111    1
   150   111   112    2
