@<TRIPOS>MOLECULE
tmp/5g1aA00.pdb
 135 129 0 0 0
SMALL
GASTEIGER

@<TRIPOS>ATOM
      1  N         59.7370    6.5930  -30.3430 N.3    22  LEU22      -0.1245
      2  CA        59.6210    7.6270  -29.3290 C.3    22  LEU22       0.1561
      3  C         60.6510    8.6710  -29.7000 C.2    22  LEU22       0.2260
      4  O         60.2870    9.7610  -30.1580 O.2    22  LEU22      -0.2867
      5  CB        59.8090    7.0040  -27.9470 C.3    22  LEU22       0.0270
      6  CG        59.4880    7.8770  -26.7470 C.3    22  LEU22       0.0019
      7  CD1       58.0750    8.4040  -26.7940 C.3    22  LEU22       0.0001
      8  CD2       59.6730    7.0450  -25.4880 C.3    22  LEU22       0.0001
      9  N         64.6420   20.3910  -27.8250 N.3    99  ASP99      -0.1239
     10  CA        64.8800   19.3220  -26.8370 C.3    99  ASP99       0.1674
     11  C         65.5470   18.0810  -27.4170 C.2    99  ASP99       0.2266
     12  O         65.9120   17.1740  -26.6650 O.2    99  ASP99      -0.2867
     13  CB        63.5860   18.9360  -26.0970 C.3    99  ASP99       0.1410
     14  CG        62.5450   18.3010  -27.0000 C.2    99  ASP99       0.3668
     15  OD1       62.8230   18.0680  -28.2020 O.co2  99  ASP99      -0.2456
     16  OD2       61.4330   18.0360  -26.5090 O.co2  99  ASP99      -0.2456
     17  N         64.0950   15.8610  -29.4550 N.3   101  ILE101     -0.1245
     18  CA        63.0760   14.8470  -29.7690 C.3   101  ILE101      0.1561
     19  C         61.8090   15.4310  -30.4010 C.2   101  ILE101      0.2260
     20  O         61.2230   14.8220  -31.2880 O.2   101  ILE101     -0.2867
     21  CB        62.7250   14.0130  -28.5040 C.3   101  ILE101      0.0252
     22  CG1       61.8250   12.8260  -28.8250 C.3   101  ILE101      0.0019
     23  CG2       62.0430   14.8530  -27.4320 C.3   101  ILE101      0.0019
     24  CD1       62.0800   11.6640  -27.8820 C.3   101  ILE101      0.0001
     25  N         49.5670   18.2060  -28.7620 N.3   141  PRO141     -0.2116
     26  CA        49.1890   18.5360  -27.3880 C.3   141  PRO141      0.1372
     27  C         50.0030   19.6960  -26.8430 C.2   141  PRO141      0.2244
     28  O         50.8730   20.2290  -27.5240 O.2   141  PRO141     -0.2868
     29  CB        49.5040   17.2430  -26.6230 C.3   141  PRO141      0.0268
     30  CG        50.6700   16.7030  -27.3470 C.3   141  PRO141      0.0207
     31  CD        50.3740   16.9680  -28.8020 C.3   141  PRO141      0.0892
     32  N         50.5660   20.4600  -22.8240 N.3   143  HIS143     -0.1226
     33  CA        50.8350   20.7530  -21.3970 C.3   143  HIS143      0.1752
     34  C         52.2940   20.6750  -20.9440 C.2   143  HIS143      0.2596
     35  O         52.6140   21.1740  -19.8630 O.2   143  HIS143     -0.2718
     36  CB        49.9370   19.9060  -20.4860 C.3   143  HIS143      0.0759
     37  CG        50.2960   18.4560  -20.4510 C.ar  143  HIS143      0.0818
     38  ND1       50.0620   17.6760  -19.3480 N.ar  143  HIS143     -0.2268
     39  CD2       50.8680   17.6370  -21.3720 C.ar  143  HIS143      0.1154
     40  CE1       50.4850   16.4500  -19.5770 C.ar  143  HIS143      0.1986
     41  NE2       50.9750   16.3960  -20.7950 N.ar  143  HIS143     -0.2212
     42  N         53.1740   20.0530  -21.7380 N.am  144  HIS144     -0.1975
     43  CA        54.5990   20.0520  -21.4040 C.3   144  HIS144      0.1656
     44  C         55.3580   21.2750  -21.8360 C.2   144  HIS144      0.2291
     45  O         56.4780   21.4830  -21.3820 O.2   144  HIS144     -0.2864
     46  CB        55.3130   18.8330  -21.9760 C.3   144  HIS144      0.0771
     47  CG        54.9000   17.5610  -21.3390 C.ar  144  HIS144      0.0820
     48  ND1       54.9060   17.3830  -19.9730 N.ar  144  HIS144     -0.2267
     49  CD2       54.4870   16.3930  -21.8700 C.ar  144  HIS144      0.1154
     50  CE1       54.4920   16.1660  -19.6870 C.ar  144  HIS144      0.1986
     51  NE2       54.2440   15.5440  -20.8230 N.ar  144  HIS144     -0.2212
     52  N         58.4530   20.9880  -25.6730 N.3   151  MET151     -0.1230
     53  CA        58.8540   19.8240  -24.8750 C.3   151  MET151      0.1702
     54  C         57.8020   18.7260  -24.9420 C.2   151  MET151      0.2593
     55  O         56.6100   19.0050  -25.0410 O.2   151  MET151     -0.2718
     56  CB        59.0460   20.2270  -23.4170 C.3   151  MET151      0.0401
     57  CG        59.6610   19.1630  -22.5380 C.3   151  MET151      0.0596
     58  SD        59.7950   19.8420  -20.8740 S.3   151  MET151     -0.1393
     59  CE        60.4020   18.4070  -19.9850 C.3   151  MET151      0.0692
     60  N         58.2270   17.4660  -24.8950 N.am  152  GLY152     -0.1942
     61  CA        57.2880   16.3520  -24.7780 C.3   152  GLY152      0.2014
     62  C         56.1990   16.3270  -25.8370 C.2   152  GLY152      0.2638
     63  O         55.0330   16.0890  -25.5130 O.2   152  GLY152     -0.2714
     64  N         56.6150   16.5860  -27.0810 N.am  153  PHE153     -0.1973
     65  CA        55.7730   16.6530  -28.2870 C.3   153  PHE153      0.1639
     66  C         54.7840   17.8140  -28.3160 C.2   153  PHE153      0.2290
     67  O         53.8830   17.8460  -29.1620 O.2   153  PHE153     -0.2864
     68  CB        55.0170   15.3350  -28.5250 C.3   153  PHE153      0.0560
     69  CG        55.8550   14.1140  -28.3580 C.ar  153  PHE153     -0.0200
     70  CD1       57.0720   14.0570  -28.9540 C.ar  153  PHE153     -0.0042
     71  CD2       55.4080   13.0240  -27.6260 C.ar  153  PHE153     -0.0042
     72  CE1       57.8570   12.9330  -28.8320 C.ar  153  PHE153     -0.0003
     73  CE2       56.1890   11.8810  -27.5000 C.ar  153  PHE153     -0.0003
     74  CZ        57.4160   11.8540  -28.0980 C.ar  153  PHE153     -0.0000
     75  N         45.7940   14.4960  -17.7910 N.3   181  ASP181     -0.1239
     76  CA        46.8080   13.7090  -18.5160 C.3   181  ASP181      0.1674
     77  C         47.6810   13.0480  -17.4450 C.2   181  ASP181      0.2266
     78  O         47.9490   13.6270  -16.3910 O.2   181  ASP181     -0.2867
     79  CB        47.6220   14.6080  -19.4650 C.3   181  ASP181      0.1410
     80  CG        48.6310   13.8560  -20.2890 C.2   181  ASP181      0.3668
     81  OD1       49.6030   13.3230  -19.7310 O.co2 181  ASP181     -0.2456
     82  OD2       48.4960   13.8300  -21.5350 O.co2 181  ASP181     -0.2456
     83  N         50.7180   12.3680  -17.3100 N.3   183  HIS183     -0.1241
     84  CA        52.0170   12.9890  -17.1450 C.3   183  HIS183      0.1621
     85  C         51.8570   14.3810  -16.5540 C.2   183  HIS183      0.2264
     86  O         50.8620   15.0730  -16.7860 O.2   183  HIS183     -0.2867
     87  CB        52.7470   13.0360  -18.4840 C.3   183  HIS183      0.0745
     88  CG        52.8410   11.6970  -19.1300 C.ar  183  HIS183      0.0817
     89  ND1       52.0410   11.3240  -20.1830 N.ar  183  HIS183     -0.2268
     90  CD2       53.5730   10.6080  -18.8150 C.ar  183  HIS183      0.1154
     91  CE1       52.3020   10.0760  -20.5170 C.ar  183  HIS183      0.1986
     92  NE2       53.2350    9.6190  -19.7100 N.ar  183  HIS183     -0.2212
     93  N         56.4740   11.2880  -16.3630 N.3   209  PHE209     -0.1241
     94  CA        57.2280   12.2460  -17.1760 C.3   209  PHE209      0.1605
     95  C         56.7350   13.6660  -16.8690 C.2   209  PHE209      0.2264
     96  O         55.5350   13.8850  -16.8660 O.2   209  PHE209     -0.2867
     97  CB        57.0990   11.9590  -18.6810 C.3   209  PHE209      0.0534
     98  CG        57.9600   12.8570  -19.4940 C.ar  209  PHE209     -0.0203
     99  CD1       59.3060   12.5840  -19.6370 C.ar  209  PHE209     -0.0042
    100  CD2       57.4530   14.0540  -20.0080 C.ar  209  PHE209     -0.0042
    101  CE1       60.1320   13.4640  -20.3260 C.ar  209  PHE209     -0.0003
    102  CE2       58.2640   14.9140  -20.7110 C.ar  209  PHE209     -0.0003
    103  CZ        59.6050   14.6260  -20.8600 C.ar  209  PHE209     -0.0000
    104  N         45.8190    9.0590  -21.2920 N.3   269  ASP269     -0.1239
    105  CA        46.9680    8.1920  -21.0680 C.3   269  ASP269      0.1674
    106  C         47.0040    7.5510  -19.6760 C.2   269  ASP269      0.2266
    107  O         47.8570    6.7020  -19.4320 O.2   269  ASP269     -0.2867
    108  CB        48.3240    8.8440  -21.4630 C.3   269  ASP269      0.1410
    109  CG        48.4460   10.3040  -21.1400 C.2   269  ASP269      0.3668
    110  OD1       47.6040   10.8650  -20.4060 O.co2 269  ASP269     -0.2456
    111  OD2       49.4590   10.8640  -21.6370 O.co2 269  ASP269     -0.2456
    112  N         52.1660    4.2700  -22.2360 N.3   276  LEU276     -0.1245
    113  CA        53.0790    5.2970  -21.7210 C.3   276  LEU276      0.1561
    114  C         52.8230    5.7100  -20.2730 C.2   276  LEU276      0.2260
    115  O         53.4150    6.6730  -19.7650 O.2   276  LEU276     -0.2867
    116  CB        53.1260    6.5160  -22.6610 C.3   276  LEU276      0.0270
    117  CG        54.1640    6.3860  -23.7840 C.3   276  LEU276      0.0019
    118  CD1       53.9820    7.4940  -24.8060 C.3   276  LEU276      0.0001
    119  CD2       55.5820    6.4530  -23.2360 C.3   276  LEU276      0.0001
    120  N         47.3380   14.0420  -23.9890 N.3   311  GLY311     -0.1225
    121  CA        47.8830   12.7940  -24.4980 C.3   311  GLY311      0.1811
    122  C         46.9190   11.6210  -24.4630 C.2   311  GLY311      0.2280
    123  O         45.7070   11.7630  -24.2850 O.2   311  GLY311     -0.2866
    124  N         47.5750    7.1870  -25.7820 N.3   313  TYR313     -0.1241
    125  CA        48.4090    6.4420  -26.7330 C.3   313  TYR313      0.1605
    126  C         47.8970    5.0620  -27.0570 C.2   313  TYR313      0.2264
    127  O         48.6170    4.2750  -27.6740 O.2   313  TYR313     -0.2867
    128  CB        49.8730    6.4040  -26.2270 C.3   313  TYR313      0.0534
    129  CG        50.3420    7.7980  -25.9920 C.ar  313  TYR313     -0.0201
    130  CD1       50.6190    8.6150  -27.0750 C.ar  313  TYR313     -0.0009
    131  CD2       50.3820    8.3550  -24.7200 C.ar  313  TYR313     -0.0009
    132  CE1       50.9710    9.9390  -26.9140 C.ar  313  TYR313      0.0417
    133  CE2       50.7520    9.6780  -24.5440 C.ar  313  TYR313      0.0417
    134  CZ        51.0340   10.4630  -25.6600 C.ar  313  TYR313      0.1957
    135  OH        51.3540   11.7860  -25.5430 O.3   313  TYR313     -0.2866
@<TRIPOS>BOND
     1    20    19    2
     2    19    18    1
     3     1     2    1
     4     4     3    2
     5    18    17    1
     6    18    21    1
     7     3     2    1
     8     2     5    1
     9    67    66    2
    10    70    72   ar
    11    70    69   ar
    12    72    74   ar
    13    22    21    1
    14    22    24    1
    15    31    25    1
    16    31    30    1
    17    25    26    1
    18    68    69    1
    19    68    65    1
    20    21    23    1
    21    69    71   ar
    22    66    65    1
    23    65    64    1
    24    15    14   ar
    25    74    73   ar
    26     5     6    1
    27     9    10    1
    28   127   126    2
    29    71    73   ar
    30    28    27    2
    31    11    10    1
    32    11    12    2
    33    26    27    1
    34    26    29    1
    35    30    29    1
    36    64    62   am
    37   130   132   ar
    38   130   129   ar
    39   126   125    1
    40    14    16   ar
    41    14    13    1
    42   132   134   ar
    43    10    13    1
    44     7     6    1
    45     6     8    1
    46   125   128    1
    47   125   124    1
    48   128   129    1
    49   129   131   ar
    50    62    63    2
    51    62    61    1
    52    52    53    1
    53   134   135    1
    54   134   133   ar
    55    55    54    2
    56    54    60   am
    57    54    53    1
    58    60    61    1
    59    53    56    1
    60   118   117    1
    61   131   133   ar
    62   121   122    1
    63   121   120    1
    64   122   123    2
    65   117   119    1
    66   117   116    1
    67    56    57    1
    68    32    33    1
    69   116   113    1
    70    57    58    1
    71   112   113    1
    72    46    43    1
    73    46    47    1
    74    49    47   ar
    75    49    51   ar
    76    44    43    1
    77    44    45    2
    78    42    43    1
    79    42    34   am
    80   113   114    1
    81   111   109   ar
    82    82    80   ar
    83   108   109    1
    84   108   105    1
    85    33    34    1
    86    33    36    1
    87    39    41   ar
    88    39    37   ar
    89    47    48   ar
    90   104   105    1
    91   109   110   ar
    92   105   106    1
    93    34    35    2
    94    58    59    1
    95   103   102   ar
    96   103   101   ar
    97    51    50   ar
    98    41    40   ar
    99   102   100   ar
   100    91    89   ar
   101    91    92   ar
   102    36    37    1
   103    37    38   ar
   104   101    99   ar
   105    80    81   ar
   106    80    79    1
   107   114   115    2
   108    89    88   ar
   109   100    98   ar
   110    48    50   ar
   111    92    90   ar
   112   106   107    2
   113    99    98   ar
   114    40    38   ar
   115    98    97    1
   116    79    76    1
   117    88    90   ar
   118    88    87    1
   119    97    94    1
   120    76    75    1
   121    76    77    1
   122    87    84    1
   123    77    78    2
   124    83    84    1
   125    94    95    1
   126    94    93    1
   127    84    85    1
   128    95    96    2
   129    86    85    2
