@<TRIPOS>MOLECULE
tmp/5g1bB00.pdb
 89 85 0 0 0
SMALL
GASTEIGER

@<TRIPOS>ATOM
      1  N         12.9970   11.7400   14.3160 N.3   173  GLU173     -0.1231
      2  CA        12.7950   10.7640   13.2570 C.3   173  GLU173      0.1699
      3  C         14.1170   10.2220   12.7170 C.2   173  GLU173      0.2592
      4  O         14.1410    9.1290   12.1800 O.2   173  GLU173     -0.2718
      5  CB        11.9600   11.3680   12.1200 C.3   173  GLU173      0.0402
      6  CG        10.5580   11.7740   12.5640 C.3   173  GLU173      0.1161
      7  CD         9.5860   11.9440   11.4060 C.2   173  GLU173      0.3649
      8  OE1        9.8520   12.7640   10.5010 O.co2 173  GLU173     -0.2457
      9  OE2        8.5430   11.2640   11.4040 O.co2 173  GLU173     -0.2457
     10  N         15.1900   11.0040   12.8320 N.am  174  ARG174     -0.1980
     11  CA        16.5110   10.6170   12.3030 C.3   174  ARG174      0.1597
     12  C         17.6170   10.9620   13.2970 C.2   174  ARG174      0.2287
     13  O         17.7450   12.1150   13.7070 O.2   174  ARG174     -0.2864
     14  CB        16.7980   11.3240   10.9850 C.3   174  ARG174      0.0334
     15  CG        15.9700   10.8230    9.8170 C.3   174  ARG174      0.0492
     16  CD        16.3010   11.6000    8.5650 C.3   174  ARG174      0.2205
     17  NE        15.4700   11.2220    7.4190 N.pl3 174  ARG174     -0.0865
     18  CZ        15.9040   10.8050    6.2230 C.cat 174  ARG174      0.5346
     19  NH1       17.2030   10.7070    5.9320 N.pl3 174  ARG174      0.1354
     20  NH2       15.0160   10.4970    5.2850 N.pl3 174  ARG174      0.1354
     21  N         18.1760   -3.2820   11.0640 N.3   194  ASN194     -0.1225
     22  CA        16.9620   -3.2060   10.2520 C.3   194  ASN194      0.1785
     23  C         16.2710   -1.8390   10.2150 C.2   194  ASN194      0.2597
     24  O         15.1620   -1.7120    9.6570 O.2   194  ASN194     -0.2718
     25  CB        15.9710   -4.2590   10.7290 C.3   194  ASN194      0.1169
     26  CG        16.5460   -5.6590   10.7000 C.2   194  ASN194      0.2627
     27  OD1       16.7160   -6.3050   11.7370 O.2   194  ASN194     -0.2716
     28  ND2       16.8310   -6.1370    9.5310 N.am  194  ASN194     -0.0877
     29  N         16.9340   -0.8200   10.7570 N.am  195  ASP195     -0.1960
     30  CA        16.3000    0.4360   11.0970 C.3   195  ASP195      0.1825
     31  C         16.9800    1.6280   10.4280 C.2   195  ASP195      0.2464
     32  O         18.1260    1.9730   10.7780 O.2   195  ASP195     -0.2730
     33  CB        16.3070    0.6030   12.6130 C.3   195  ASP195      0.1450
     34  CG        15.3440    1.6670   13.0970 C.2   195  ASP195      0.3671
     35  OD1       14.9460    2.5570   12.3140 O.co2 195  ASP195     -0.2456
     36  OD2       15.0020    1.6230   14.2890 O.co2 195  ASP195     -0.2456
     37  N         16.2950    2.2720    9.4790 N.am  196  PRO196     -0.2715
     38  CA        16.8580    3.4540    8.8260 C.3   196  PRO196      0.1536
     39  C         16.7800    4.7630    9.6160 C.2   196  PRO196      0.2599
     40  O         17.3060    5.7710    9.1560 O.2   196  PRO196     -0.2715
     41  CB        16.0060    3.5600    7.5680 C.3   196  PRO196      0.0310
     42  CG        14.6630    3.0880    8.0120 C.3   196  PRO196      0.0237
     43  CD        14.9490    1.9480    8.9390 C.3   196  PRO196      0.0939
     44  N         16.1160    4.7560   10.7740 N.am  197  SER197     -0.1950
     45  CA        15.9580    5.9480   11.6150 C.3   197  SER197      0.1924
     46  C         17.1750    6.2460   12.4910 C.2   197  SER197      0.2314
     47  O         17.2460    7.3130   13.1070 O.2   197  SER197     -0.2863
     48  CB        14.7110    5.8120   12.5030 C.3   197  SER197      0.2116
     49  OG        14.9030    4.8630   13.5410 O.3   197  SER197     -0.2180
     50  N         14.2810   -2.3610    5.5040 N.3   223  ASN223     -0.1240
     51  CA        14.2160   -0.8960    5.4250 C.3   223  ASN223      0.1653
     52  C         15.5000   -0.1840    5.8570 C.2   223  ASN223      0.2266
     53  O         15.7540    0.9620    5.4600 O.2   223  ASN223     -0.2867
     54  CB        13.0460   -0.3900    6.2590 C.3   223  ASN223      0.1155
     55  CG        11.7010   -0.7780    5.6670 C.2   223  ASN223      0.2627
     56  OD1       11.5420   -0.8450    4.4490 O.2   223  ASN223     -0.2716
     57  ND2       10.7260   -1.0290    6.5300 N.am  223  ASN223     -0.0877
     58  N         21.7590    1.9610    5.5890 N.3   227  TYR227     -0.1241
     59  CA        21.8000    2.8710    6.7480 C.3   227  TYR227      0.1605
     60  C         22.7570    2.3440    7.8360 C.2   227  TYR227      0.2264
     61  O         22.6610    2.7160    9.0140 O.2   227  TYR227     -0.2867
     62  CB        20.3610    3.1570    7.2460 C.3   227  TYR227      0.0534
     63  CG        19.5710    3.8720    6.1750 C.ar  227  TYR227     -0.0201
     64  CD1       19.6270    5.2570    6.0600 C.ar  227  TYR227     -0.0009
     65  CD2       18.8750    3.1600    5.2210 C.ar  227  TYR227     -0.0009
     66  CE1       18.9630    5.9140    5.0430 C.ar  227  TYR227      0.0417
     67  CE2       18.2050    3.7990    4.1900 C.ar  227  TYR227      0.0417
     68  CZ        18.2620    5.1780    4.1120 C.ar  227  TYR227      0.1957
     69  OH        17.6120    5.8250    3.1090 O.3   227  TYR227     -0.2866
     70  N         18.7210   14.6900   12.9560 N.3   260  GLN260     -0.1245
     71  CA        18.3200   15.7660   13.8640 C.3   260  GLN260      0.1566
     72  C         19.2470   15.8770   15.0900 C.2   260  GLN260      0.2260
     73  O         19.2300   16.8790   15.8130 O.2   260  GLN260     -0.2867
     74  CB        16.8810   15.5460   14.2860 C.3   260  GLN260      0.0367
     75  CG        15.9070   15.6070   13.1150 C.3   260  GLN260      0.0905
     76  CD        14.5640   15.0100   13.4630 C.2   260  GLN260      0.2608
     77  OE1       14.3590   13.8080   13.3400 O.2   260  GLN260     -0.2717
     78  NE2       13.6450   15.8440   13.9180 N.am  260  GLN260     -0.0878
     79  N         19.1310    7.8510    1.7350 N.3   370  ARG370     -0.1245
     80  CA        17.9910    8.7030    1.3900 C.3   370  ARG370      0.1563
     81  C         17.4260    9.3630    2.6580 C.2   370  ARG370      0.2260
     82  O         18.0190    9.2970    3.7380 O.2   370  ARG370     -0.2867
     83  CB        16.8750    7.8770    0.7360 C.3   370  ARG370      0.0307
     84  CG        17.2670    6.7690   -0.2200 C.3   370  ARG370      0.0489
     85  CD        17.4730    7.2730   -1.6340 C.3   370  ARG370      0.2205
     86  NE        18.7900    7.8910   -1.7920 N.pl3 370  ARG370     -0.0865
     87  CZ        19.0860    8.9090   -2.6100 C.cat 370  ARG370      0.5346
     88  NH1       18.1550    9.4940   -3.3770 N.pl3 370  ARG370      0.1354
     89  NH2       20.3430    9.3640   -2.6510 N.pl3 370  ARG370      0.1354
@<TRIPOS>BOND
     1    88    87    1
     2    89    87    1
     3    87    86    2
     4    86    85    1
     5    85    84    1
     6    84    83    1
     7    83    80    1
     8    80    79    1
     9    80    81    1
    10    81    82    2
    11    69    68    1
    12    68    67   ar
    13    68    66   ar
    14    67    65   ar
    15    56    55    2
    16    66    64   ar
    17    65    63   ar
    18    20    18    1
    19    51    50    1
    20    51    52    1
    21    51    54    1
    22    53    52    2
    23    58    59    1
    24    55    54    1
    25    55    57   am
    26    19    18    1
    27    64    63   ar
    28    63    62    1
    29    18    17    2
    30    59    62    1
    31    59    60    1
    32    17    16    1
    33    41    42    1
    34    41    38    1
    35    60    61    2
    36    42    43    1
    37    16    15    1
    38    38    37    1
    39    38    39    1
    40    43    37    1
    41    40    39    2
    42    37    31   am
    43    28    26   am
    44    39    44   am
    45    24    23    2
    46    15    14    1
    47    23    22    1
    48    23    29   am
    49    22    25    1
    50    22    21    1
    51    31    32    2
    52    31    30    1
    53     8     7   ar
    54    26    25    1
    55    26    27    2
    56    29    30    1
    57    44    45    1
    58    14    11    1
    59    30    33    1
    60     9     7   ar
    61     7     6    1
    62    45    46    1
    63    45    48    1
    64     5     6    1
    65     5     2    1
    66     4     3    2
    67    11    10    1
    68    11    12    1
    69    35    34   ar
    70    46    47    2
    71    48    49    1
    72    33    34    1
    73     3    10   am
    74     3     2    1
    75    70    71    1
    76    34    36   ar
    77    75    76    1
    78    75    74    1
    79     2     1    1
    80    12    13    2
    81    77    76    2
    82    76    78   am
    83    71    74    1
    84    71    72    1
    85    72    73    2
