@<TRIPOS>MOLECULE
tmp/5g1cA00.pdb
 145 139 0 0 0
SMALL
GASTEIGER

@<TRIPOS>ATOM
      1  N          6.5950   59.6060   30.1660 N.3    22  LEU22      -0.1231
      2  CA         7.5870   59.4880   29.1060 C.3    22  LEU22       0.1693
      3  C          8.6380   60.5420   29.4320 C.2    22  LEU22       0.2591
      4  O          9.7210   60.2060   29.8990 O.2    22  LEU22      -0.2718
      5  CB         6.9180   59.6880   27.7420 C.3    22  LEU22       0.0284
      6  CG         7.5490   59.1200   26.4530 C.3    22  LEU22       0.0019
      7  CD1        7.9240   57.6520   26.6140 C.3    22  LEU22       0.0001
      8  CD2        6.6720   59.2950   25.2180 C.3    22  LEU22       0.0001
      9  N          8.2790   61.8180   29.2990 N.am   23  ALA23      -0.1980
     10  CA         8.9960   62.8750   30.0040 C.3    23  ALA23       0.1597
     11  C          8.5050   62.8540   31.4490 C.2    23  ALA23       0.2287
     12  O          7.5890   62.1060   31.8080 O.2    23  ALA23      -0.2864
     13  CB         8.7030   64.2220   29.3610 C.3    23  ALA23       0.0319
     14  N         19.6730   64.6840   27.7000 N.3    99  ASP99      -0.1239
     15  CA        18.6160   64.8420   26.6810 C.3    99  ASP99       0.1674
     16  C         17.2560   65.2610   27.2250 C.2    99  ASP99       0.2266
     17  O         16.2410   65.1470   26.5250 O.2    99  ASP99      -0.2867
     18  CB        18.4450   63.5160   25.9160 C.3    99  ASP99       0.1410
     19  CG        17.9670   62.3770   26.8120 C.2    99  ASP99       0.3668
     20  OD1       17.8750   62.5780   28.0530 O.co2  99  ASP99      -0.2456
     21  OD2       17.6990   61.2770   26.2910 O.co2  99  ASP99      -0.2456
     22  N         15.3320   63.6660   29.1860 N.3   101  ILE101     -0.1245
     23  CA        14.4270   62.5190   29.2790 C.3   101  ILE101      0.1561
     24  C         15.0440   61.3160   30.0040 C.2   101  ILE101      0.2260
     25  O         14.3950   60.7080   30.8470 O.2   101  ILE101     -0.2867
     26  CB        14.0040   62.0430   27.8750 C.3   101  ILE101      0.0252
     27  CG1       13.0650   63.0520   27.2000 C.3   101  ILE101      0.0019
     28  CG2       13.3510   60.6740   27.9780 C.3   101  ILE101      0.0019
     29  CD1       11.7950   63.3710   27.9740 C.3   101  ILE101      0.0001
     30  N         18.1300   49.5010   28.6050 N.3   141  PRO141     -0.2116
     31  CA        18.4310   49.1070   27.2460 C.3   141  PRO141      0.1372
     32  C         19.5900   49.9310   26.7190 C.2   141  PRO141      0.2244
     33  O         20.0980   50.8050   27.4360 O.2   141  PRO141     -0.2868
     34  CB        17.1110   49.4330   26.4810 C.3   141  PRO141      0.0268
     35  CG        16.5630   50.5890   27.2450 C.3   141  PRO141      0.0207
     36  CD        16.8720   50.2840   28.6740 C.3   141  PRO141      0.0892
     37  N         20.4060   50.4620   22.6750 N.3   143  HIS143     -0.1226
     38  CA        20.6780   50.7430   21.2480 C.3   143  HIS143      0.1752
     39  C         20.5630   52.1900   20.7710 C.2   143  HIS143      0.2596
     40  O         21.1070   52.5290   19.7210 O.2   143  HIS143     -0.2718
     41  CB        19.8680   49.8290   20.3500 C.3   143  HIS143      0.0759
     42  CG        18.4190   50.1650   20.2800 C.ar  143  HIS143      0.0818
     43  ND1       17.6670   49.8920   19.1630 N.ar  143  HIS143     -0.2268
     44  CD2       17.5830   50.7700   21.1640 C.ar  143  HIS143      0.1154
     45  CE1       16.4280   50.2870   19.3690 C.ar  143  HIS143      0.1986
     46  NE2       16.3500   50.8300   20.5650 N.ar  143  HIS143     -0.2212
     47  N         19.9020   53.0410   21.5410 N.am  144  HIS144     -0.1975
     48  CA        19.8980   54.4640   21.2420 C.3   144  HIS144      0.1656
     49  C         21.1570   55.2440   21.6730 C.2   144  HIS144      0.2291
     50  O         21.3500   56.3600   21.1980 O.2   144  HIS144     -0.2864
     51  CB        18.6640   55.1670   21.8280 C.3   144  HIS144      0.0771
     52  CG        17.3690   54.7460   21.2100 C.ar  144  HIS144      0.0820
     53  ND1       17.1650   54.6870   19.8490 N.ar  144  HIS144     -0.2267
     54  CD2       16.1920   54.3990   21.7710 C.ar  144  HIS144      0.1154
     55  CE1       15.9480   54.2630   19.5910 C.ar  144  HIS144      0.1986
     56  NE2       15.3330   54.0740   20.7420 N.ar  144  HIS144     -0.2212
     57  N         17.2620   58.0580   24.6940 N.3   152  GLY152     -0.1210
     58  CA        16.1160   57.1310   24.5850 C.3   152  GLY152      0.1956
     59  C         16.0680   56.0070   25.6170 C.2   152  GLY152      0.2612
     60  O         15.8710   54.8470   25.2690 O.2   152  GLY152     -0.2717
     61  N         16.2280   56.3730   26.8820 N.am  153  PHE153     -0.1962
     62  CA        16.2250   55.4300   28.0160 C.3   153  PHE153      0.1771
     63  C         17.5190   54.5850   28.0970 C.2   153  PHE153      0.2619
     64  O         17.6030   53.7130   28.9500 O.2   153  PHE153     -0.2715
     65  CB        15.0110   54.4370   28.0120 C.3   153  PHE153      0.0574
     66  CG        13.6600   55.0200   27.5800 C.ar  153  PHE153     -0.0200
     67  CD1       13.2710   56.3050   27.9230 C.ar  153  PHE153     -0.0042
     68  CD2       12.7530   54.2150   26.8800 C.ar  153  PHE153     -0.0042
     69  CE1       12.0160   56.7930   27.5580 C.ar  153  PHE153     -0.0003
     70  CE2       11.4970   54.6990   26.5030 C.ar  153  PHE153     -0.0003
     71  CZ        11.1310   55.9870   26.8450 C.ar  153  PHE153     -0.0000
     72  N         18.5130   54.8390   27.2360 N.am  154  CYS154     -0.1968
     73  CA        19.7500   54.0460   27.1770 C.3   154  CYS154      0.1712
     74  C         20.9420   54.8440   27.7100 C.2   154  CYS154      0.2296
     75  O         21.2560   55.9040   27.1980 O.2   154  CYS154     -0.2864
     76  CB        20.0430   53.6050   25.7310 C.3   154  CYS154      0.0983
     77  SG        18.6730   52.8010   24.8490 S.3   154  CYS154     -0.0798
     78  N         14.4440   45.6200   17.7020 N.3   181  ASP181     -0.1239
     79  CA        13.6530   46.5830   18.4590 C.3   181  ASP181      0.1674
     80  C         12.9910   47.4780   17.3930 C.2   181  ASP181      0.2266
     81  O         13.5840   47.7520   16.3450 O.2   181  ASP181     -0.2867
     82  CB        14.5640   47.3730   19.4310 C.3   181  ASP181      0.1410
     83  CG        13.8400   48.4710   20.1750 C.2   181  ASP181      0.3668
     84  OD1       13.3810   49.4160   19.5350 O.co2 181  ASP181     -0.2456
     85  OD2       13.7460   48.3890   21.4380 O.co2 181  ASP181     -0.2456
     86  N         12.3240   50.5930   17.2270 N.3   183  HIS183     -0.1241
     87  CA        12.9530   51.8830   17.0480 C.3   183  HIS183      0.1621
     88  C         14.3340   51.7280   16.4360 C.2   183  HIS183      0.2264
     89  O         15.0180   50.7140   16.6090 O.2   183  HIS183     -0.2867
     90  CB        13.0150   52.6260   18.3690 C.3   183  HIS183      0.0745
     91  CG        11.6880   52.6930   19.0360 C.ar  183  HIS183      0.0817
     92  ND1       11.3510   51.8710   20.0870 N.ar  183  HIS183     -0.2268
     93  CD2       10.5610   53.3610   18.7090 C.ar  183  HIS183      0.1154
     94  CE1       10.1050   52.1080   20.4490 C.ar  183  HIS183      0.1986
     95  NE2        9.6000   53.0030   19.6230 N.ar  183  HIS183     -0.2212
     96  N         11.2530   56.3550   16.3370 N.3   209  PHE209     -0.1241
     97  CA        12.2120   57.0500   17.2020 C.3   209  PHE209      0.1605
     98  C         13.6290   56.5540   16.8750 C.2   209  PHE209      0.2264
     99  O         13.8270   55.3530   16.7520 O.2   209  PHE209     -0.2867
    100  CB        11.9130   56.8290   18.6840 C.3   209  PHE209      0.0534
    101  CG        12.7510   57.6850   19.5700 C.ar  209  PHE209     -0.0203
    102  CD1       12.3620   58.9890   19.8660 C.ar  209  PHE209     -0.0042
    103  CD2       13.9630   57.2190   20.0620 C.ar  209  PHE209     -0.0042
    104  CE1       13.1820   59.8070   20.6190 C.ar  209  PHE209     -0.0003
    105  CE2       14.7670   58.0250   20.8520 C.ar  209  PHE209     -0.0003
    106  CZ        14.3820   59.3200   21.1190 C.ar  209  PHE209     -0.0000
    107  N         13.4250   60.7760   15.6070 N.3   211  PRO211     -0.2116
    108  CA        12.8710   61.3870   14.4060 C.3   211  PRO211      0.1372
    109  C         14.0220   61.6100   13.4170 C.2   211  PRO211      0.2244
    110  O         15.1750   61.6500   13.8240 O.2   211  PRO211     -0.2868
    111  CB        12.2840   62.7130   14.9170 C.3   211  PRO211      0.0268
    112  CG        13.0290   63.0170   16.1520 C.3   211  PRO211      0.0207
    113  CD        13.4460   61.6960   16.7600 C.3   211  PRO211      0.0892
    114  N          9.0560   45.6470   21.1510 N.3   269  ASP269     -0.1239
    115  CA         8.1760   46.8040   20.9600 C.3   269  ASP269      0.1674
    116  C          7.5220   46.8290   19.5680 C.2   269  ASP269      0.2266
    117  O          6.6440   47.6600   19.3280 O.2   269  ASP269     -0.2867
    118  CB         8.8190   48.1650   21.3650 C.3   269  ASP269      0.1410
    119  CG        10.2910   48.2840   21.0310 C.2   269  ASP269      0.3668
    120  OD1       10.8390   47.4170   20.3110 O.co2 269  ASP269     -0.2456
    121  OD2       10.8870   49.2820   21.5320 O.co2 269  ASP269     -0.2456
    122  N          4.2600   51.9910   22.1420 N.3   276  LEU276     -0.1245
    123  CA         5.3080   52.8930   21.6140 C.3   276  LEU276      0.1561
    124  C          5.6850   52.6430   20.1580 C.2   276  LEU276      0.2260
    125  O          6.6730   53.2270   19.6420 O.2   276  LEU276     -0.2867
    126  CB         6.5250   52.9290   22.5610 C.3   276  LEU276      0.0270
    127  CG         6.3940   53.9750   23.6800 C.3   276  LEU276      0.0019
    128  CD1        7.5390   53.8330   24.6690 C.3   276  LEU276      0.0001
    129  CD2        6.3980   55.3920   23.1110 C.3   276  LEU276      0.0001
    130  N         14.0680   47.2220   23.8750 N.3   311  GLY311     -0.1225
    131  CA        12.7950   47.7730   24.3720 C.3   311  GLY311      0.1811
    132  C         11.6100   46.8110   24.3440 C.2   311  GLY311      0.2280
    133  O         11.7430   45.5970   24.1610 O.2   311  GLY311     -0.2866
    134  N          7.1480   47.4520   25.6430 N.3   313  TYR313     -0.1241
    135  CA         6.3970   48.2610   26.6220 C.3   313  TYR313      0.1605
    136  C          5.0100   47.7320   26.9550 C.2   313  TYR313      0.2264
    137  O          4.1990   48.4430   27.5700 O.2   313  TYR313     -0.2867
    138  CB         6.3130   49.7180   26.1080 C.3   313  TYR313      0.0534
    139  CG         7.7140   50.2080   25.8660 C.ar  313  TYR313     -0.0201
    140  CD1        8.5250   50.5380   26.9460 C.ar  313  TYR313     -0.0009
    141  CD2        8.2760   50.2060   24.6020 C.ar  313  TYR313     -0.0009
    142  CE1        9.8420   50.9170   26.7740 C.ar  313  TYR313      0.0417
    143  CE2        9.6110   50.5940   24.4140 C.ar  313  TYR313      0.0417
    144  CZ        10.3850   50.9260   25.5300 C.ar  313  TYR313      0.1957
    145  OH        11.7030   51.2780   25.4480 O.3   313  TYR313     -0.2866
@<TRIPOS>BOND
     1   109   110    2
     2   109   108    1
     3   108   111    1
     4   108   107    1
     5   111   112    1
     6   107   113    1
     7   112   113    1
     8    96    97    1
     9    81    80    2
    10    88    89    2
    11    88    87    1
    12    99    98    2
    13    98    97    1
    14    87    86    1
    15    87    90    1
    16    97   100    1
    17    80    79    1
    18    78    79    1
    19    90    91    1
    20    79    82    1
    21   100   101    1
    22    93    91   ar
    23    93    95   ar
    24    91    92   ar
    25    43    45   ar
    26    43    42   ar
    27   117   116    2
    28    45    46   ar
    29    82    83    1
    30    84    83   ar
    31   116   115    1
    32   101   102   ar
    33   101   103   ar
    34    55    53   ar
    35    55    56   ar
    36    95    94   ar
    37   125   124    2
    38    40    39    2
    39    53    52   ar
    40   102   104   ar
    41   103   105   ar
    42    92    94   ar
    43   124   123    1
    44    83    85   ar
    45    42    41    1
    46    42    44   ar
    47   120   119   ar
    48    41    38    1
    49    46    44   ar
    50   104   106   ar
    51    56    54   ar
    52    39    38    1
    53    39    47   am
    54   105   106   ar
    55   115   114    1
    56   115   118    1
    57   119   118    1
    58   119   121   ar
    59    50    49    2
    60    52    54   ar
    61    52    51    1
    62    48    47    1
    63    48    49    1
    64    48    51    1
    65    38    37    1
    66   123   122    1
    67   123   126    1
    68   126   127    1
    69   129   127    1
    70   127   128    1
    71   130   131    1
    72   133   132    2
    73   132   131    1
    74   143   141   ar
    75   143   144   ar
    76    58    57    1
    77    58    59    1
    78   141   139   ar
    79    77    76    1
    80     8     6    1
    81    60    59    2
    82   145   144    1
    83   144   142   ar
    84    59    61   am
    85   134   135    1
    86    76    73    1
    87   139   138    1
    88   139   140   ar
    89    18    15    1
    90    18    19    1
    91   138   135    1
    92    21    19   ar
    93     6     7    1
    94     6     5    1
    95    34    35    1
    96    34    31    1
    97    70    71   ar
    98    70    68   ar
    99    17    16    2
   100   135   136    1
   101    15    16    1
   102    15    14    1
   103    32    31    1
   104    32    33    2
   105   142   140   ar
   106    19    20   ar
   107    71    69   ar
   108    68    66   ar
   109    61    62    1
   110   136   137    2
   111    73    72    1
   112    73    74    1
   113    75    74    2
   114    27    26    1
   115    27    29    1
   116    72    63   am
   117    35    36    1
   118    31    30    1
   119    69    67   ar
   120    66    67   ar
   121    66    65    1
   122     5     2    1
   123    26    28    1
   124    26    23    1
   125    65    62    1
   126    62    63    1
   127    63    64    2
   128    30    36    1
   129     2     3    1
   130     2     1    1
   131    22    23    1
   132    23    24    1
   133     9     3   am
   134     9    10    1
   135    13    10    1
   136     3     4    2
   137    24    25    2
   138    10    11    1
   139    11    12    2
