@<TRIPOS>MOLECULE
tmp/5g1fA01.pdb
 97 97 0 0 0
SMALL
GASTEIGER

@<TRIPOS>ATOM
      1  N          4.1740   10.5430  200.1300 N.3   108  TRP108     -0.1227
      2  CA         4.8840   10.6350  198.8600 C.3   108  TRP108      0.1737
      3  C          5.5810    9.3580  198.5220 C.2   108  TRP108      0.2596
      4  O          6.2400    9.2800  197.4860 O.2   108  TRP108     -0.2718
      5  CB         5.9080   11.7640  198.8610 C.3   108  TRP108      0.0564
      6  CG         5.2720   13.0980  199.0470 C.ar  108  TRP108      0.0003
      7  CD1        4.0060   13.4770  198.6570 C.ar  108  TRP108      0.0946
      8  CD2        5.8670   14.2460  199.6440 C.ar  108  TRP108      0.0152
      9  NE1        3.7920   14.7840  198.9900 N.ar  108  TRP108     -0.2442
     10  CE2        4.9190   15.2800  199.5930 C.ar  108  TRP108      0.0810
     11  CE3        7.1360   14.5220  200.1420 C.ar  108  TRP108      0.0012
     12  CZ2        5.1850   16.5460  200.0690 C.ar  108  TRP108      0.0191
     13  CZ3        7.3930   15.7740  200.6180 C.ar  108  TRP108      0.0001
     14  CH2        6.4190   16.7740  200.5830 C.ar  108  TRP108      0.0015
     15  N          5.4800    8.3550  199.3890 N.am  109  SER109     -0.1952
     16  CA         6.2830    7.1470  199.2040 C.3   109  SER109      0.1924
     17  C          6.0030    6.5450  197.8350 C.2   109  SER109      0.2314
     18  O          6.8940    5.9740  197.2230 O.2   109  SER109     -0.2863
     19  CB         6.0610    6.1390  200.3360 C.3   109  SER109      0.2116
     20  OG         4.6700    5.9340  200.5940 O.3   109  SER109     -0.2180
     21  N          5.2790    8.2410  194.9910 N.3   111  VAL111     -0.1231
     22  CA         5.5900    9.1350  193.8860 C.3   111  VAL111      0.1692
     23  C          6.8310    8.6470  193.1800 C.2   111  VAL111      0.2592
     24  O          7.8910    8.5350  193.7990 O.2   111  VAL111     -0.2718
     25  CB         5.8180   10.5700  194.3920 C.3   111  VAL111      0.0266
     26  CG1        6.4650   11.4300  193.3120 C.3   111  VAL111      0.0020
     27  CG2        4.4880   11.1630  194.8960 C.3   111  VAL111      0.0020
     28  N          6.7280    8.4680  191.8710 N.am  112  ARG112     -0.1966
     29  CA         7.7680    7.7910  191.0900 C.3   112  ARG112      0.1729
     30  C          8.8220    8.7670  190.5360 C.2   112  ARG112      0.2616
     31  O          9.2310    8.6800  189.3820 O.2   112  ARG112     -0.2715
     32  CB         7.1510    6.9910  189.9320 C.3   112  ARG112      0.0348
     33  CG         6.6660    5.5870  190.2900 C.3   112  ARG112      0.0492
     34  CD         5.1440    5.4440  190.2380 C.3   112  ARG112      0.2205
     35  NE         4.5340    6.0320  189.0420 N.pl3 112  ARG112     -0.0865
     36  CZ         3.2150    6.1910  188.8840 C.cat 112  ARG112      0.5346
     37  NH1        2.3800    5.8070  189.8500 N.pl3 112  ARG112      0.1354
     38  NH2        2.7190    6.7430  187.7700 N.pl3 112  ARG112      0.1354
     39  N          9.3080    9.6610  191.3770 N.am  113  GLY113     -0.1955
     40  CA        10.0260   10.8250  190.9040 C.3   113  GLY113      0.1869
     41  C         10.1670   11.7580  192.0670 C.2   113  GLY113      0.2309
     42  O          9.8800   11.3800  193.1960 O.2   113  GLY113     -0.2863
     43  N         16.9780   13.0910  200.5780 N.3   181  CYS181     -0.1221
     44  CA        16.8590   11.8700  199.8070 C.3   181  CYS181      0.1808
     45  C         17.2520   10.6600  200.6280 C.2   181  CYS181      0.2601
     46  O         18.2990   10.6350  201.2360 O.2   181  CYS181     -0.2717
     47  CB        17.7420   11.9340  198.5490 C.3   181  CYS181      0.0970
     48  SG        17.6280   10.4330  197.5260 S.3   181  CYS181     -0.0800
     49  N         16.4450    9.6190  200.5720 N.am  182  TRP182     -0.1962
     50  CA        16.9340    8.3100  200.8850 C.3   182  TRP182      0.1771
     51  C         16.2240    7.2860  200.0220 C.2   182  TRP182      0.2620
     52  O         15.2240    7.6000  199.3540 O.2   182  TRP182     -0.2715
     53  CB        16.8200    8.0210  202.3890 C.3   182  TRP182      0.0590
     54  CG        15.4210    7.9520  202.9360 C.ar  182  TRP182      0.0006
     55  CD1       14.6610    6.8250  203.0960 C.ar  182  TRP182      0.0946
     56  CD2       14.6760    9.0220  203.5100 C.ar  182  TRP182      0.0152
     57  NE1       13.4460    7.1430  203.6690 N.ar  182  TRP182     -0.2442
     58  CE2       13.4330    8.4900  203.9350 C.ar  182  TRP182      0.0810
     59  CE3       14.9150   10.3800  203.6790 C.ar  182  TRP182      0.0012
     60  CZ2       12.4520    9.2770  204.5470 C.ar  182  TRP182      0.0191
     61  CZ3       13.9260   11.1660  204.2680 C.ar  182  TRP182      0.0001
     62  CH2       12.7080   10.6130  204.6810 C.ar  182  TRP182      0.0015
     63  N         16.7650    6.0710  200.0240 N.am  183  SER183     -0.1936
     64  CA        16.4380    5.0650  199.0340 C.3   183  SER183      0.2055
     65  C         15.1190    4.3630  199.3240 C.2   183  SER183      0.2643
     66  O         14.6960    4.2620  200.4760 O.2   183  SER183     -0.2714
     67  CB        17.5300    4.0180  198.9890 C.3   183  SER183      0.2130
     68  OG        17.2820    3.1380  197.9220 O.3   183  SER183     -0.2179
     69  N         14.4890    3.8560  198.2650 N.am  184  ASP184     -0.1971
     70  CA        13.2900    3.0460  198.3970 C.3   184  ASP184      0.1709
     71  C         13.6470    1.5660  198.3920 C.2   184  ASP184      0.2293
     72  O         12.7970    0.7050  198.6530 O.2   184  ASP184     -0.2864
     73  CB        12.2650    3.3670  197.2920 C.3   184  ASP184      0.1436
     74  CG        12.8260    3.2330  195.8720 C.2   184  ASP184      0.3671
     75  OD1       14.0580    3.1600  195.6790 O.co2 184  ASP184     -0.2456
     76  OD2       12.0080    3.2370  194.9260 O.co2 184  ASP184     -0.2456
     77  N         11.0180    5.2950  200.4730 N.3   214  GLY214     -0.1210
     78  CA        12.1500    6.1780  200.2490 C.3   214  GLY214      0.1956
     79  C         11.6240    7.5900  200.0810 C.2   214  GLY214      0.2612
     80  O         10.4380    7.8450  200.2770 O.2   214  GLY214     -0.2717
     81  N         12.4890    8.5040  199.6750 N.am  215  CYS215     -0.1956
     82  CA        12.1280    9.9090  199.6240 C.3   215  CYS215      0.1843
     83  C         13.0810   10.6590  198.7190 C.2   215  CYS215      0.2625
     84  O         14.2820   10.3860  198.6970 O.2   215  CYS215     -0.2714
     85  CB        12.2000   10.4750  201.0350 C.3   215  CYS215      0.0997
     86  SG        12.0540   12.2540  201.1850 S.3   215  CYS215     -0.0797
     87  N         12.5360   11.5490  197.9090 N.am  216  ARG216     -0.1977
     88  CA        13.3450   12.5680  197.2450 C.3   216  ARG216      0.1597
     89  C         12.5930   13.8790  197.0840 C.2   216  ARG216      0.2287
     90  O         11.5720   13.9510  196.3760 O.2   216  ARG216     -0.2864
     91  CB        13.8190   12.0960  195.8740 C.3   216  ARG216      0.0334
     92  CG        14.6070   13.1740  195.1380 C.3   216  ARG216      0.0492
     93  CD        15.3770   12.6280  193.9460 C.3   216  ARG216      0.2205
     94  NE        16.7310   12.2070  194.3200 N.pl3 216  ARG216     -0.0865
     95  CZ        17.2960   11.0720  193.9170 C.cat 216  ARG216      0.5346
     96  NH1       16.6230   10.2330  193.1380 N.pl3 216  ARG216      0.1354
     97  NH2       18.5280   10.7630  194.3050 N.pl3 216  ARG216      0.1354
@<TRIPOS>BOND
     1    38    36    1
     2    36    35    2
     3    36    37    1
     4    35    34    1
     5    31    30    2
     6    32    33    1
     7    32    29    1
     8    34    33    1
     9    30    29    1
    10    30    39   am
    11    40    39    1
    12    40    41    1
    13    29    28    1
    14    28    23   am
    15    41    42    2
    16    96    95    1
    17    23    24    2
    18    23    22    1
    19    26    25    1
    20    22    25    1
    21    22    21    1
    22    95    97    1
    23    95    94    2
    24    93    94    1
    25    93    92    1
    26    25    27    1
    27    76    74   ar
    28    92    91    1
    29    75    74   ar
    30    74    73    1
    31    91    88    1
    32    90    89    2
    33    89    88    1
    34    18    17    2
    35    88    87    1
    36    73    70    1
    37     4     3    2
    38    48    47    1
    39    17    16    1
    40    87    83   am
    41    68    67    1
    42    69    70    1
    43    69    65   am
    44    71    70    1
    45    71    72    2
    46     3     2    1
    47     3    15   am
    48    47    44    1
    49     7     9   ar
    50     7     6   ar
    51    84    83    2
    52    83    82    1
    53     2     5    1
    54     2     1    1
    55     5     6    1
    56    67    64    1
    57     9    10   ar
    58    64    65    1
    59    64    63    1
    60     6     8   ar
    61    16    15    1
    62    16    19    1
    63    65    66    2
    64    52    51    2
    65    10     8   ar
    66    10    12   ar
    67    82    81    1
    68    82    85    1
    69     8    11   ar
    70    81    79   am
    71    44    43    1
    72    44    45    1
    73    51    63   am
    74    51    50    1
    75    12    14   ar
    76    79    78    1
    77    79    80    2
    78    11    13   ar
    79    78    77    1
    80    19    20    1
    81    49    45   am
    82    49    50    1
    83    14    13   ar
    84    45    46    2
    85    50    53    1
    86    85    86    1
    87    53    54    1
    88    54    55   ar
    89    54    56   ar
    90    55    57   ar
    91    56    59   ar
    92    56    58   ar
    93    57    58   ar
    94    59    61   ar
    95    58    60   ar
    96    61    62   ar
    97    60    62   ar
