@<TRIPOS>MOLECULE
tmp/5g1fB00.pdb
 105 97 0 0 0
SMALL
GASTEIGER

@<TRIPOS>ATOM
      1  N          7.6300   -4.2790  172.3940 N.3     8  ARG8       -0.1245
      2  CA         7.3650   -3.3560  171.2820 C.3     8  ARG8        0.1563
      3  C          8.4980   -2.3540  171.0530 C.2     8  ARG8        0.2260
      4  O          9.0960   -1.9020  172.0010 O.2     8  ARG8       -0.2867
      5  CB         6.0790   -2.6070  171.5640 C.3     8  ARG8        0.0307
      6  CG         4.9470   -3.5730  171.9160 C.3     8  ARG8        0.0489
      7  CD         3.5820   -2.9010  171.8650 C.3     8  ARG8        0.2205
      8  NE         3.6700   -1.5000  172.2770 N.pl3   8  ARG8       -0.0865
      9  CZ         2.6500   -0.6500  172.2360 C.cat   8  ARG8        0.5346
     10  NH1        1.4850   -1.0600  171.8010 N.pl3   8  ARG8        0.1354
     11  NH2        2.8230    0.6180  172.5870 N.pl3   8  ARG8        0.1354
     12  N          9.3540    1.3810  168.6600 N.3    10  ARG10      -0.1245
     13  CA         9.0940    2.4140  167.6750 C.3    10  ARG10       0.1563
     14  C         10.3950    3.2490  167.5060 C.2    10  ARG10       0.2260
     15  O         11.1290    3.4530  168.4630 O.2    10  ARG10      -0.2867
     16  CB         7.9720    3.3160  168.1440 C.3    10  ARG10       0.0307
     17  CG         6.7260    2.5480  168.6540 C.3    10  ARG10       0.0489
     18  CD         5.9700    1.8240  167.5380 C.3    10  ARG10       0.2205
     19  NE         5.4120    2.7960  166.5830 N.pl3  10  ARG10      -0.0865
     20  CZ         4.6170    2.5000  165.5670 C.cat  10  ARG10       0.5346
     21  NH1        4.2560    1.2480  165.3470 N.pl3  10  ARG10       0.1354
     22  NH2        4.2310    3.4640  164.7500 N.pl3  10  ARG10       0.1354
     23  N         11.8640    6.8020  165.0880 N.3    12  SER12      -0.1217
     24  CA        11.5800    7.8290  164.1330 C.3    12  SER12       0.1889
     25  C         12.7430    8.8070  164.0550 C.2    12  SER12       0.2288
     26  O         13.6770    8.7460  164.8450 O.2    12  SER12      -0.2866
     27  CB        10.3050    8.5530  164.5200 C.3    12  SER12       0.2089
     28  OG        10.4300    9.1480  165.7920 O.3    12  SER12      -0.2183
     29  N         13.5510   13.1890  163.2430 N.3    14  ASN14      -0.1240
     30  CA        12.9510   14.5320  163.4210 C.3    14  ASN14       0.1653
     31  C         11.4180   14.5710  163.5690 C.2    14  ASN14       0.2266
     32  O         10.8660   14.3730  164.6590 O.2    14  ASN14      -0.2867
     33  CB        13.4020   15.4870  162.2940 C.3    14  ASN14       0.1155
     34  CG        13.4820   14.8090  160.9260 C.2    14  ASN14       0.2627
     35  OD1       14.5630   14.4690  160.4570 O.2    14  ASN14      -0.2716
     36  ND2       12.3470   14.6760  160.2570 N.am   14  ASN14      -0.0877
     37  N          8.5050    8.4680  160.3290 N.3    16  HIS16      -0.1241
     38  CA         8.5840    7.1530  160.9320 C.3    16  HIS16       0.1621
     39  C          9.7150    6.3650  160.2950 C.2    16  HIS16       0.2264
     40  O         10.0300    6.5300  159.1280 O.2    16  HIS16      -0.2867
     41  CB         7.2650    6.4000  160.7540 C.3    16  HIS16       0.0745
     42  CG         7.2670    5.0330  161.3720 C.ar   16  HIS16       0.0817
     43  ND1        7.3560    4.8310  162.7360 N.ar   16  HIS16      -0.2268
     44  CD2        7.2160    3.7980  160.8120 C.ar   16  HIS16       0.1154
     45  CE1        7.3520    3.5310  162.9900 C.ar   16  HIS16       0.1986
     46  NE2        7.2770    2.8840  161.8370 N.ar   16  HIS16      -0.2212
     47  N         16.5590    9.5310  165.4950 N.3    49  ASP49      -0.1225
     48  CA        16.9290   10.3600  166.6470 C.3    49  ASP49       0.1805
     49  C         15.9510   10.1480  167.8010 C.2    49  ASP49       0.2597
     50  O         15.9990   10.8240  168.8240 O.2    49  ASP49      -0.2718
     51  CB        16.9810   11.8360  166.2520 C.3    49  ASP49       0.1424
     52  CG        15.6820   12.3200  165.6640 C.2    49  ASP49       0.3668
     53  OD1       14.6480   11.8410  166.1160 O.co2  49  ASP49      -0.2456
     54  OD2       15.6880   13.1580  164.7440 O.co2  49  ASP49      -0.2456
     55  N         15.0900    9.1610  167.6400 N.am   50  PHE50      -0.1976
     56  CA        14.2550    8.7350  168.7190 C.3    50  PHE50       0.1639
     57  C         13.9270    7.2570  168.6170 C.2    50  PHE50       0.2290
     58  O         13.7060    6.7240  167.5430 O.2    50  PHE50      -0.2864
     59  CB        12.9550    9.5460  168.7560 C.3    50  PHE50       0.0560
     60  CG        12.0270    9.1150  169.8420 C.ar   50  PHE50      -0.0200
     61  CD1       12.1800    9.6020  171.1330 C.ar   50  PHE50      -0.0042
     62  CD2       11.1090    8.1310  169.6150 C.ar   50  PHE50      -0.0042
     63  CE1       11.3730    9.1590  172.1610 C.ar   50  PHE50      -0.0003
     64  CE2       10.2870    7.7060  170.6260 C.ar   50  PHE50      -0.0003
     65  CZ        10.4310    8.2100  171.9030 C.ar   50  PHE50      -0.0000
     66  N         11.9980    4.0180  171.1460 N.3    52  GLN52      -0.1245
     67  CA        11.4580    3.5110  172.3680 C.3    52  GLN52       0.1566
     68  C         11.3040    2.0090  172.2850 C.2    52  GLN52       0.2260
     69  O         10.8680    1.4810  171.2640 O.2    52  GLN52      -0.2867
     70  CB        10.1020    4.1330  172.5840 C.3    52  GLN52       0.0367
     71  CG         9.4270    3.5740  173.8070 C.3    52  GLN52       0.0905
     72  CD         8.1450    4.2730  174.1490 C.2    52  GLN52       0.2608
     73  OE1        7.5940    4.0010  175.2100 O.2    52  GLN52      -0.2717
     74  NE2        7.7360    5.2690  173.3380 N.am   52  GLN52      -0.0878
     75  N          0.9660    5.4270  160.2410 N.3   113  ARG113     -0.1245
     76  CA         2.0410    4.6660  160.9020 C.3   113  ARG113      0.1563
     77  C          1.5650    3.3570  161.4790 C.2   113  ARG113      0.2260
     78  O          1.9730    2.9600  162.5500 O.2   113  ARG113     -0.2867
     79  CB         2.6590    5.5230  162.0040 C.3   113  ARG113      0.0307
     80  CG         3.3350    6.7420  161.4080 C.3   113  ARG113      0.0489
     81  CD         4.1700    7.5670  162.3720 C.3   113  ARG113      0.2205
     82  NE         3.4130    7.9370  163.5650 N.pl3 113  ARG113     -0.0865
     83  CZ         2.5740    8.9810  163.6680 C.cat 113  ARG113      0.5346
     84  NH1        2.3450    9.7990  162.6350 N.pl3 113  ARG113      0.1354
     85  NH2        1.9570    9.2110  164.8300 N.pl3 113  ARG113      0.1354
     86  N         -1.7750    8.0140  162.8860 N.3   132  LYS132     -0.1245
     87  CA        -1.2990    7.0370  163.8200 C.3   132  LYS132      0.1561
     88  C         -1.4310    5.6510  163.2840 C.2   132  LYS132      0.2260
     89  O         -0.5100    4.8240  163.4580 O.2   132  LYS132     -0.2867
     90  CB        -2.0260    7.1370  165.1440 C.3   132  LYS132      0.0271
     91  CG        -1.6320    8.3590  165.9600 C.3   132  LYS132      0.0035
     92  CD        -2.4460    8.5210  167.2340 C.3   132  LYS132      0.0206
     93  CE        -2.1080    9.8280  167.9270 C.3   132  LYS132      0.1093
     94  NZ        -0.8560    9.7360  168.7260 N.3   132  LYS132     -0.1314
     95  N         -2.6560   -0.3570  165.2190 N.3   135  ARG135     -0.1245
     96  CA        -1.4060   -1.0380  165.5670 C.3   135  ARG135      0.1563
     97  C         -1.5690   -2.4570  165.9630 C.2   135  ARG135      0.2260
     98  O         -1.6960   -2.7240  167.1320 O.2   135  ARG135     -0.2867
     99  CB        -0.8070   -0.3900  166.8170 C.3   135  ARG135      0.0307
    100  CG        -0.6210    1.1140  166.7170 C.3   135  ARG135      0.0489
    101  CD         0.2490    1.4740  165.5230 C.3   135  ARG135      0.2205
    102  NE         0.2130    2.9110  165.2500 N.pl3 135  ARG135     -0.0865
    103  CZ         0.8570    3.8350  165.9670 C.cat 135  ARG135      0.5346
    104  NH1        1.5480    3.5040  167.0510 N.pl3 135  ARG135      0.1354
    105  NH2        0.8390    5.0980  165.5740 N.pl3 135  ARG135      0.1354
@<TRIPOS>BOND
     1    40    39    2
     2    75    76    1
     3    36    34   am
     4    39    38    1
     5    37    38    1
     6    35    34    2
     7    41    38    1
     8    41    42    1
     9    44    42   ar
    10    44    46   ar
    11    76    77    1
    12    76    79    1
    13    34    33    1
    14    42    43   ar
    15    80    79    1
    16    80    81    1
    17    77    78    2
    18    46    45   ar
    19    33    30    1
    20    81    82    1
    21    84    83    1
    22    43    45   ar
    23    86    87    1
    24    29    30    1
    25    88    89    2
    26    88    87    1
    27    30    31    1
    28    82    83    2
    29    31    32    2
    30    83    85    1
    31    87    90    1
    32    25    24    1
    33    25    26    2
    34    24    27    1
    35    24    23    1
    36    27    28    1
    37    54    52   ar
    38    22    20    1
    39    90    91    1
    40    95    96    1
    41   102   101    1
    42   102   103    2
    43    21    20    1
    44    47    48    1
    45   101   100    1
    46    20    19    2
    47    96    97    1
    48    96    99    1
    49   105   103    1
    50    52    53   ar
    51    52    51    1
    52    91    92    1
    53    97    98    2
    54   103   104    1
    55    51    48    1
    56    19    18    1
    57    48    49    1
    58   100    99    1
    59    92    93    1
    60    14    13    1
    61    14    15    2
    62    18    17    1
    63    58    57    2
    64    55    49   am
    65    55    56    1
    66    13    16    1
    67    13    12    1
    68    49    50    2
    69    93    94    1
    70    16    17    1
    71    57    56    1
    72    56    59    1
    73    59    60    1
    74    62    60   ar
    75    62    64   ar
    76    60    61   ar
    77    64    65   ar
    78     3     2    1
    79     3     4    2
    80    61    63   ar
    81    66    67    1
    82    69    68    2
    83     2     5    1
    84     2     1    1
    85     5     6    1
    86    10     9    1
    87     7     6    1
    88     7     8    1
    89    65    63   ar
    90     9     8    2
    91     9    11    1
    92    68    67    1
    93    67    70    1
    94    70    71    1
    95    74    72   am
    96    71    72    1
    97    72    73    2
