@<TRIPOS>MOLECULE
tmp/5g1nE00.pdb
 145 141 0 0 0
SMALL
GASTEIGER

@<TRIPOS>ATOM
      1  N        -54.1920  -48.9660  115.2780 N.3    54  VAL54      -0.1231
      2  CA       -55.4270  -48.2820  115.6560 C.3    54  VAL54       0.1692
      3  C        -55.0870  -47.1680  116.6300 C.2    54  VAL54       0.2593
      4  O        -54.0510  -47.2100  117.2720 O.2    54  VAL54      -0.2718
      5  CB       -56.4560  -49.2620  116.2880 C.3    54  VAL54       0.0266
      6  CG1      -56.6380  -50.4860  115.3980 C.3    54  VAL54       0.0020
      7  CG2      -56.0610  -49.6530  117.7060 C.3    54  VAL54       0.0020
      8  N        -55.9550  -46.1680  116.7240 N.am   55  SER55      -0.1938
      9  CA       -55.7880  -45.1000  117.7050 C.3    55  SER55       0.2055
     10  C        -57.0930  -44.4580  118.1390 C.2    55  SER55       0.2644
     11  O        -58.1080  -44.5500  117.4420 O.2    55  SER55      -0.2714
     12  CB       -54.8900  -44.0020  117.1400 C.3    55  SER55       0.2130
     13  OG       -54.5250  -43.0930  118.1550 O.3    55  SER55      -0.2179
     14  N        -57.0170  -43.7710  119.2800 N.am   56  THR56      -0.1936
     15  CA       -58.0920  -42.9240  119.8060 C.3    56  THR56       0.2028
     16  C        -57.5550  -41.5540  120.2880 C.2    56  THR56       0.2642
     17  O        -57.8620  -40.5290  119.6760 O.2    56  THR56      -0.2714
     18  CB       -58.8990  -43.6850  120.8960 C.3    56  THR56       0.1808
     19  OG1      -59.6940  -44.6860  120.2480 O.3    56  THR56      -0.2208
     20  CG2      -59.8040  -42.7860  121.6640 C.3    56  THR56       0.0379
     21  N        -56.7630  -41.5140  121.3590 N.am   57  ARG57      -0.1963
     22  CA       -56.1870  -40.2310  121.8130 C.3    57  ARG57       0.1729
     23  C        -55.1880  -39.5970  120.8210 C.2    57  ARG57       0.2616
     24  O        -55.2300  -38.4090  120.5380 O.2    57  ARG57      -0.2715
     25  CB       -55.4540  -40.4070  123.1400 C.3    57  ARG57       0.0348
     26  CG       -56.3580  -40.5870  124.3480 C.3    57  ARG57       0.0492
     27  CD       -55.8510  -41.7290  125.2000 C.3    57  ARG57       0.2205
     28  NE       -56.1230  -42.9730  124.4900 N.pl3  57  ARG57      -0.0865
     29  CZ       -57.2110  -43.7250  124.6330 C.cat  57  ARG57       0.5346
     30  NH1      -58.1580  -43.4220  125.5190 N.pl3  57  ARG57       0.1354
     31  NH2      -57.3350  -44.8130  123.8920 N.pl3  57  ARG57       0.1354
     32  N        -54.2450  -40.3800  120.3480 N.am   58  THR58      -0.1951
     33  CA       -53.1960  -39.8180  119.5070 C.3    58  THR58       0.1897
     34  C        -53.7930  -39.2930  118.2000 C.2    58  THR58       0.2313
     35  O        -53.6410  -38.1070  117.9130 O.2    58  THR58      -0.2863
     36  CB       -52.0510  -40.8110  119.3220 C.3    58  THR58       0.1794
     37  OG1      -51.6350  -41.2610  120.6180 O.3    58  THR58      -0.2208
     38  CG2      -50.8620  -40.1510  118.6240 C.3    58  THR58       0.0378
     39  N        -48.0970  -43.3970  112.6160 N.3   106  ARG106     -0.1245
     40  CA       -48.0750  -44.4410  113.6250 C.3   106  ARG106      0.1563
     41  C        -47.9330  -45.7880  112.9080 C.2   106  ARG106      0.2260
     42  O        -48.7780  -46.1290  112.1080 O.2   106  ARG106     -0.2867
     43  CB       -49.3630  -44.3960  114.4480 C.3   106  ARG106      0.0307
     44  CG       -49.7200  -45.7170  115.1170 C.3   106  ARG106      0.0489
     45  CD       -50.6900  -45.5740  116.2800 C.3   106  ARG106      0.2205
     46  NE       -50.1370  -44.8330  117.4130 N.pl3 106  ARG106     -0.0865
     47  CZ       -50.6330  -44.8560  118.6540 C.cat 106  ARG106      0.5346
     48  NH1      -51.7150  -45.5760  118.9560 N.pl3 106  ARG106      0.1354
     49  NH2      -50.0430  -44.1510  119.6060 N.pl3 106  ARG106      0.1354
     50  N        -42.6070  -43.2350  121.7550 N.3   134  HIS134     -0.1241
     51  CA       -43.8100  -42.4340  121.5380 C.3   134  HIS134      0.1621
     52  C        -43.5050  -40.9810  121.9640 C.2   134  HIS134      0.2264
     53  O        -43.9490  -40.5390  123.0200 O.2   134  HIS134     -0.2867
     54  CB       -44.9450  -43.0170  122.3710 C.3   134  HIS134      0.0745
     55  CG       -46.3050  -42.5840  121.9280 C.ar  134  HIS134      0.0817
     56  ND1      -46.5530  -41.3480  121.3740 N.ar  134  HIS134     -0.2268
     57  CD2      -47.4960  -43.2230  121.9710 C.ar  134  HIS134      0.1154
     58  CE1      -47.8360  -41.2520  121.0740 C.ar  134  HIS134      0.1986
     59  NE2      -48.4290  -42.3780  121.4240 N.ar  134  HIS134     -0.2212
     60  N        -46.2380  -38.3820  123.3560 N.3   137  GLN137     -0.1245
     61  CA       -46.8530  -38.8260  124.6000 C.3   137  GLN137      0.1566
     62  C        -45.8710  -38.6080  125.7520 C.2   137  GLN137      0.2260
     63  O        -46.3070  -38.4600  126.8810 O.2   137  GLN137     -0.2867
     64  CB       -47.2960  -40.2980  124.5320 C.3   137  GLN137      0.0367
     65  CG       -47.9200  -40.8760  125.8070 C.3   137  GLN137      0.0905
     66  CD       -49.3950  -40.5500  125.9820 C.2   137  GLN137      0.2608
     67  OE1      -50.1150  -40.3100  125.0190 O.2   137  GLN137     -0.2717
     68  NE2      -49.8500  -40.5480  127.2200 N.am  137  GLN137     -0.0878
     69  N        -44.0570  -48.5080  124.6140 N.3   167  ARG167     -0.1231
     70  CA       -43.4460  -47.4610  123.8050 C.3   167  ARG167      0.1694
     71  C        -43.4350  -46.0850  124.4880 C.2   167  ARG167      0.2592
     72  O        -42.5180  -45.2810  124.2710 O.2   167  ARG167     -0.2718
     73  CB       -44.0750  -47.3920  122.4030 C.3   167  ARG167      0.0321
     74  CG       -45.5440  -47.0080  122.3140 C.3   167  ARG167      0.0489
     75  CD       -46.0020  -47.0200  120.8610 C.3   167  ARG167      0.2205
     76  NE       -47.4540  -47.0700  120.7340 N.pl3 167  ARG167     -0.0865
     77  CZ       -48.1190  -47.4790  119.6520 C.cat 167  ARG167      0.5346
     78  NH1      -47.4810  -47.8840  118.5550 N.pl3 167  ARG167      0.1354
     79  NH2      -49.4430  -47.4850  119.6580 N.pl3 167  ARG167      0.1354
     80  N        -44.4160  -45.8330  125.3540 N.am  168  THR168     -0.1953
     81  CA       -44.4970  -44.5600  126.0600 C.3   168  THR168      0.1897
     82  C        -43.6030  -44.5210  127.3030 C.2   168  THR168      0.2313
     83  O        -43.0790  -43.4670  127.6630 O.2   168  THR168     -0.2863
     84  CB       -45.9450  -44.2330  126.4550 C.3   168  THR168      0.1794
     85  OG1      -46.3970  -45.1800  127.4140 O.3   168  THR168     -0.2208
     86  CG2      -46.8560  -44.2720  125.2380 C.3   168  THR168      0.0378
     87  N        -49.5510  -48.6300  133.2860 N.3   227  THR227     -0.1203
     88  CA       -49.6070  -49.0160  131.8830 C.3   227  THR227      0.1994
     89  C        -50.3960  -50.3000  131.6630 C.2   227  THR227      0.2617
     90  O        -50.5400  -51.1230  132.5640 O.2   227  THR227     -0.2717
     91  CB       -48.1990  -49.1790  131.2550 C.3   227  THR227      0.1784
     92  OG1      -47.8210  -50.5610  131.2210 O.3   227  THR227     -0.2211
     93  CG2      -47.1480  -48.3840  132.0050 C.3   227  THR227      0.0376
     94  N        -50.8770  -50.4560  130.4360 N.am  228  ARG228     -0.1979
     95  CA       -51.6040  -51.6340  129.9900 C.3   228  ARG228      0.1597
     96  C        -50.6540  -52.7910  129.6240 C.2   228  ARG228      0.2287
     97  O        -49.6360  -52.5850  128.9750 O.2   228  ARG228     -0.2864
     98  CB       -52.4400  -51.2370  128.7710 C.3   228  ARG228      0.0334
     99  CG       -53.4300  -52.2690  128.2770 C.3   228  ARG228      0.0492
    100  CD       -54.2780  -51.6640  127.1730 C.3   228  ARG228      0.2205
    101  NE       -53.4140  -51.2540  126.0810 N.pl3 228  ARG228     -0.0865
    102  CZ       -53.1010  -52.0140  125.0340 C.cat 228  ARG228      0.5346
    103  NH1      -53.6190  -53.2360  124.8950 N.pl3 228  ARG228      0.1354
    104  NH2      -52.2650  -51.5430  124.1120 N.pl3 228  ARG228      0.1354
    105  N        -49.6290  -55.1700  127.1780 N.3   230  GLN230     -0.1245
    106  CA       -49.8200  -54.9550  125.7310 C.3   230  GLN230      0.1566
    107  C        -50.1100  -56.2460  124.9520 C.2   230  GLN230      0.2260
    108  O        -49.2140  -56.8030  124.3150 O.2   230  GLN230     -0.2867
    109  CB       -48.5840  -54.2700  125.1310 C.3   230  GLN230      0.0367
    110  CG       -48.1060  -53.0300  125.8780 C.3   230  GLN230      0.0905
    111  CD       -48.7690  -51.7590  125.3950 C.2   230  GLN230      0.2608
    112  OE1      -48.4940  -51.2880  124.2850 O.2   230  GLN230     -0.2717
    113  NE2      -49.6430  -51.1870  126.2250 N.am  230  GLN230     -0.0878
    114  N        -52.0030  -42.4750  133.2990 N.3   265  HIS265     -0.1227
    115  CA       -52.1320  -43.6070  132.4140 C.3   265  HIS265      0.1737
    116  C        -52.3040  -43.0750  130.9970 C.2   265  HIS265      0.2438
    117  O        -53.2080  -42.2560  130.7670 O.2   265  HIS265     -0.2733
    118  CB       -53.3560  -44.4560  132.7880 C.3   265  HIS265      0.0758
    119  CG       -53.3050  -45.8630  132.2650 C.ar  265  HIS265      0.0818
    120  ND1      -52.6910  -46.2030  131.0770 N.ar  265  HIS265     -0.2268
    121  CD2      -53.7800  -47.0200  132.7810 C.ar  265  HIS265      0.1154
    122  CE1      -52.8200  -47.5010  130.8710 C.ar  265  HIS265      0.1986
    123  NE2      -53.4630  -48.0210  131.9000 N.ar  265  HIS265     -0.2212
    124  N        -51.4590  -43.5340  130.0500 N.am  266  PRO266     -0.2718
    125  CA       -51.5480  -43.1460  128.6390 C.3   266  PRO266      0.1535
    126  C        -52.7840  -43.6090  127.8790 C.2   266  PRO266      0.2598
    127  O        -53.1110  -43.0280  126.8480 O.2   266  PRO266     -0.2715
    128  CB       -50.2980  -43.7840  128.0260 C.3   266  PRO266      0.0310
    129  CG       -49.9380  -44.8890  128.9570 C.3   266  PRO266      0.0237
    130  CD       -50.2210  -44.3010  130.2950 C.3   266  PRO266      0.0939
    131  N        -53.4230  -44.6790  128.3540 N.am  267  MET267     -0.1964
    132  CA       -54.7200  -45.1350  127.8750 C.3   267  MET267      0.1721
    133  C        -54.6010  -45.9090  126.5780 C.2   267  MET267      0.2458
    134  O        -53.6400  -45.7170  125.8320 O.2   267  MET267     -0.2730
    135  CB       -55.6820  -43.9640  127.6980 C.3   267  MET267      0.0427
    136  CG       -55.8120  -43.0660  128.9090 C.3   267  MET267      0.0599
    137  SD       -57.0770  -43.6010  130.0570 S.3   267  MET267     -0.1393
    138  CE       -56.3030  -45.0160  130.8230 C.3   267  MET267      0.0692
    139  N        -55.5480  -46.8310  126.3230 N.am  268  PRO268     -0.2727
    140  CA       -56.6210  -47.1670  127.2300 C.3   268  PRO268      0.1402
    141  C        -56.1560  -48.0760  128.3640 C.2   268  PRO268      0.2269
    142  O        -55.0470  -48.6130  128.3270 O.2   268  PRO268     -0.2865
    143  CB       -57.5970  -47.9250  126.3350 C.3   268  PRO268      0.0296
    144  CG       -56.7280  -48.6020  125.3330 C.3   268  PRO268      0.0237
    145  CD       -55.5190  -47.7340  125.1550 C.3   268  PRO268      0.0939
@<TRIPOS>BOND
     1    42    41    2
     2    39    40    1
     3    41    40    1
     4    40    43    1
     5    43    44    1
     6    44    45    1
     7     1     2    1
     8     6     5    1
     9     2     5    1
    10     2     3    1
    11    45    46    1
    12     5     7    1
    13     3     8   am
    14     3     4    2
    15     8     9    1
    16    12     9    1
    17    12    13    1
    18    46    47    2
    19    11    10    2
    20     9    10    1
    21    35    34    2
    22    10    14   am
    23    34    33    1
    24    78    77    1
    25    38    36    1
    26    47    48    1
    27    47    49    1
    28    14    15    1
    29    36    33    1
    30    36    37    1
    31    33    32    1
    32    77    79    1
    33    77    76    2
    34    17    16    2
    35    15    16    1
    36    15    18    1
    37    19    18    1
    38    16    21   am
    39    32    23   am
    40    24    23    2
    41    76    75    1
    42    23    22    1
    43    75    74    1
    44    18    20    1
    45    58    56   ar
    46    58    59   ar
    47    21    22    1
    48    56    55   ar
    49    59    57   ar
    50    51    50    1
    51    51    52    1
    52    51    54    1
    53    22    25    1
    54    55    57   ar
    55    55    54    1
    56    52    53    2
    57    74    73    1
    58    73    70    1
    59    25    26    1
    60    60    61    1
    61    70    71    1
    62    70    69    1
    63    31    29    1
    64   104   102    1
    65    72    71    2
    66   112   111    2
    67   108   107    2
    68    26    27    1
    69    71    80   am
    70    28    29    2
    71    28    27    1
    72    64    61    1
    73    64    65    1
    74    61    62    1
    75    29    30    1
    76   103   102    1
    77   107   106    1
    78    67    66    2
    79   102   101    2
    80   109   106    1
    81   109   110    1
    82   145   144    1
    83   145   139    1
    84    86    84    1
    85   144   143    1
    86    80    81    1
    87   111   110    1
    88   111   113   am
    89   106   105    1
    90    62    63    2
    91    65    66    1
    92   134   133    2
    93    66    68   am
    94    81    84    1
    95    81    82    1
    96   101   100    1
    97   139   133   am
    98   139   140    1
    99   143   140    1
   100    84    85    1
   101   133   132    1
   102   127   126    2
   103   100    99    1
   104   140   141    1
   105    82    83    2
   106   135   132    1
   107   135   136    1
   108   132   131    1
   109   126   131   am
   110   126   125    1
   111   128   125    1
   112   128   129    1
   113    99    98    1
   114   142   141    2
   115   125   124    1
   116    98    95    1
   117   136   137    1
   118   129   130    1
   119    97    96    2
   120    96    95    1
   121    95    94    1
   122   124   130    1
   123   124   116   am
   124   137   138    1
   125    94    89   am
   126   117   116    2
   127   122   120   ar
   128   122   123   ar
   129   116   115    1
   130   120   119   ar
   131    92    91    1
   132    91    88    1
   133    91    93    1
   134    89    88    1
   135    89    90    2
   136    88    87    1
   137   123   121   ar
   138   119   121   ar
   139   119   118    1
   140   115   118    1
   141   115   114    1
