@<TRIPOS>MOLECULE
tmp/5g1pE00.pdb
 108 104 0 0 0
SMALL
GASTEIGER

@<TRIPOS>ATOM
      1  N          9.2280   50.0270   63.9440 N.3    54  VAL54      -0.1231
      2  CA         7.8680   49.6870   63.5500 C.3    54  VAL54       0.1692
      3  C          7.8770   48.6510   62.3990 C.2    54  VAL54       0.2593
      4  O          8.2640   48.9690   61.2820 O.2    54  VAL54      -0.2718
      5  CB         7.1020   50.9280   63.1100 C.3    54  VAL54       0.0266
      6  CG1        5.6550   50.5810   62.9320 C.3    54  VAL54       0.0020
      7  CG2        7.2040   52.0210   64.1480 C.3    54  VAL54       0.0020
      8  N          7.4370   47.4280   62.6930 N.am   55  SER55      -0.1938
      9  CA         7.3670   46.3410   61.7240 C.3    55  SER55       0.2055
     10  C          6.0850   45.5340   61.8400 C.2    55  SER55       0.2644
     11  O          5.4460   45.5030   62.8940 O.2    55  SER55      -0.2714
     12  CB         8.4760   45.3450   61.9950 C.3    55  SER55       0.2130
     13  OG         8.1420   44.5060   63.1090 O.3    55  SER55      -0.2179
     14  N          5.7470   44.8170   60.7710 N.am   56  THR56      -0.1936
     15  CA         4.6900   43.7680   60.8240 C.3    56  THR56       0.2028
     16  C          4.8700   42.7550   59.7010 C.2    56  THR56       0.2642
     17  O          3.9390   42.4000   59.0100 O.2    56  THR56      -0.2714
     18  CB         3.2480   44.3390   60.8120 C.3    56  THR56       0.1808
     19  OG1        3.2850   45.6800   60.3170 O.3    56  THR56      -0.2208
     20  CG2        2.5860   44.3130   62.1960 C.3    56  THR56       0.0379
     21  N          6.0970   42.2930   59.5260 N.am   57  ARG57      -0.1963
     22  CA         6.4160   41.2120   58.5760 C.3    57  ARG57       0.1729
     23  C          7.4850   40.2580   59.1170 C.2    57  ARG57       0.2616
     24  O          7.3040   39.0420   59.1090 O.2    57  ARG57      -0.2715
     25  CB         6.9180   41.8530   57.3050 C.3    57  ARG57       0.0348
     26  CG         6.8280   41.0230   56.0460 C.3    57  ARG57       0.0492
     27  CD         7.1360   41.9120   54.8460 C.3    57  ARG57       0.2205
     28  NE         6.0910   42.9550   54.6960 N.pl3  57  ARG57      -0.0865
     29  CZ         6.0690   44.1760   55.2260 C.cat  57  ARG57       0.5346
     30  NH1        7.0440   44.6410   55.9780 N.pl3  57  ARG57       0.1354
     31  NH2        5.0200   44.9380   54.9800 N.pl3  57  ARG57       0.1354
     32  N          8.5820   40.8320   59.5880 N.am   58  THR58      -0.1951
     33  CA         9.6110   40.0990   60.3030 C.3    58  THR58       0.1897
     34  C          9.0410   39.4710   61.5740 C.2    58  THR58       0.2313
     35  O          9.1890   38.2710   61.8070 O.2    58  THR58      -0.2863
     36  CB        10.7830   41.0250   60.6940 C.3    58  THR58       0.1794
     37  OG1       11.2640   41.7070   59.5320 O.3    58  THR58      -0.2208
     38  CG2       11.9390   40.2480   61.2710 C.3    58  THR58       0.0378
     39  N         14.9610   43.9090   67.4780 N.3   106  ARG106     -0.1245
     40  CA        15.0940   44.8490   66.3740 C.3   106  ARG106      0.1563
     41  C         15.1860   46.2590   66.9170 C.2   106  ARG106      0.2260
     42  O         14.2440   46.7410   67.5430 O.2   106  ARG106     -0.2867
     43  CB        13.8910   44.7620   65.4450 C.3   106  ARG106      0.0307
     44  CG        14.0270   45.7620   64.2860 C.3   106  ARG106      0.0489
     45  CD        12.8040   46.1310   63.4750 C.3   106  ARG106      0.2205
     46  NE        12.5810   45.3620   62.3130 N.pl3 106  ARG106     -0.0865
     47  CZ        11.8720   45.7240   61.2370 C.cat 106  ARG106      0.5346
     48  NH1       11.2770   46.9260   60.8920 N.pl3 106  ARG106      0.1354
     49  NH2       11.8060   44.7530   60.4260 N.pl3 106  ARG106      0.1354
     50  N         20.6780   42.6650   58.3980 N.3   134  HIS134     -0.1241
     51  CA        19.3670   42.0150   58.4640 C.3   134  HIS134      0.1621
     52  C         19.4750   40.5630   57.9260 C.2   134  HIS134      0.2264
     53  O         18.8930   40.2220   56.8830 O.2   134  HIS134     -0.2867
     54  CB        18.3550   42.7930   57.6350 C.3   134  HIS134      0.0745
     55  CG        16.9240   42.5740   58.0360 C.ar  134  HIS134      0.0817
     56  ND1       16.4620   41.3910   58.5780 N.ar  134  HIS134     -0.2268
     57  CD2       15.8440   43.3920   57.9500 C.ar  134  HIS134      0.1154
     58  CE1       15.1670   41.4930   58.8150 C.ar  134  HIS134      0.1986
     59  NE2       14.7690   42.7000   58.4500 N.ar  134  HIS134     -0.2212
     60  N         16.3710   38.5280   56.5890 N.3   137  GLN137     -0.1245
     61  CA        15.9280   39.0710   55.3040 C.3   137  GLN137      0.1566
     62  C         16.8170   38.5660   54.1830 C.2   137  GLN137      0.2260
     63  O         16.3320   37.9710   53.2120 O.2   137  GLN137     -0.2867
     64  CB        15.9650   40.6140   55.2930 C.3   137  GLN137      0.0367
     65  CG        15.4490   41.2220   54.0020 C.3   137  GLN137      0.0905
     66  CD        13.9260   41.1940   53.9120 C.2   137  GLN137      0.2608
     67  OE1       13.4600   40.8230   52.8920 O.2   137  GLN137     -0.2717
     68  NE2       13.1560   41.5540   54.9710 N.am  137  GLN137     -0.0878
     69  N         18.2960   46.7210   54.1320 N.3   168  THR168     -0.1218
     70  CA        18.0600   45.3340   53.6660 C.3   168  THR168      0.1862
     71  C         19.0300   44.9410   52.5450 C.2   168  THR168      0.2287
     72  O         19.4760   43.7910   52.4680 O.2   168  THR168     -0.2866
     73  CB        16.5980   45.1290   53.1770 C.3   168  THR168      0.1770
     74  OG1       16.3070   45.9870   52.0670 O.3   168  THR168     -0.2211
     75  CG2       15.6190   45.4320   54.2930 C.3   168  THR168      0.0375
     76  N         11.3540   43.3300   49.6360 N.3   260  PRO260     -0.2102
     77  CA        11.3390   43.0180   51.0480 C.3   260  PRO260      0.1504
     78  C         10.0600   43.4730   51.6810 C.2   260  PRO260      0.2576
     79  O          9.5640   42.8290   52.6030 O.2   260  PRO260     -0.2718
     80  CB        12.5230   43.8200   51.6220 C.3   260  PRO260      0.0282
     81  CG        12.9700   44.7400   50.5680 C.3   260  PRO260      0.0208
     82  CD        12.5330   44.1290   49.2760 C.3   260  PRO260      0.0893
     83  N          9.5880   44.6300   51.2350 N.am  261  MET261     -0.1966
     84  CA         8.3660   45.2830   51.7660 C.3   261  MET261      0.1721
     85  C          8.6770   45.9240   53.1430 C.2   261  MET261      0.2458
     86  O          9.6740   45.5550   53.8010 O.2   261  MET261     -0.2730
     87  CB         7.1600   44.3350   51.7750 C.3   261  MET261      0.0427
     88  CG         6.6970   44.1260   50.3320 C.3   261  MET261      0.0599
     89  SD         5.4910   42.8810   49.7770 S.3   261  MET261     -0.1393
     90  CE         4.0990   44.0020   49.5100 C.3   261  MET261      0.0692
     91  N          7.9140   46.9320   53.5550 N.am  262  PRO262     -0.2727
     92  CA         6.7280   47.4770   52.8860 C.3   262  PRO262      0.1402
     93  C          6.9440   48.2820   51.6050 C.2   262  PRO262      0.2269
     94  O          8.0640   48.6920   51.3090 O.2   262  PRO262     -0.2865
     95  CB         6.1340   48.4100   53.9520 C.3   262  PRO262      0.0296
     96  CG         7.2820   48.7750   54.8110 C.3   262  PRO262      0.0237
     97  CD         8.1410   47.5510   54.8680 C.3   262  PRO262      0.0939
     98  N         12.6770   31.2810   59.3990 N.3   288  ARG288     -0.1245
     99  CA        12.6030   31.4780   60.8480 C.3   288  ARG288      0.1563
    100  C         12.3540   30.1440   61.5360 C.2   288  ARG288      0.2260
    101  O         12.9900   29.8040   62.5180 O.2   288  ARG288     -0.2867
    102  CB        11.5030   32.4580   61.2170 C.3   288  ARG288      0.0307
    103  CG        11.8890   33.8900   60.9450 C.3   288  ARG288      0.0489
    104  CD        11.9520   34.1520   59.4670 C.3   288  ARG288      0.2205
    105  NE        12.5670   35.4250   59.0990 N.pl3 288  ARG288     -0.0865
    106  CZ        11.9470   36.5950   59.1080 C.cat 288  ARG288      0.5346
    107  NH1       10.6840   36.6750   59.4860 N.pl3 288  ARG288      0.1354
    108  NH2       12.5880   37.6850   58.7300 N.pl3 288  ARG288      0.1354
@<TRIPOS>BOND
     1    82    76    1
     2    82    81    1
     3    90    89    1
     4    76    77    1
     5    89    88    1
     6    88    87    1
     7    81    80    1
     8    77    80    1
     9    77    78    1
    10    83    78   am
    11    83    84    1
    12    94    93    2
    13    93    92    1
    14    78    79    2
    15    84    87    1
    16    84    85    1
    17    74    73    1
    18    72    71    2
    19    71    70    1
    20    92    91    1
    21    92    95    1
    22    67    66    2
    23    85    91   am
    24    85    86    2
    25    73    70    1
    26    73    75    1
    27    63    62    2
    28    91    97    1
    29    70    69    1
    30    66    65    1
    31    66    68   am
    32    95    96    1
    33    65    64    1
    34    62    61    1
    35    28    27    1
    36    28    29    2
    37    96    97    1
    38    27    26    1
    39    31    29    1
    40    29    30    1
    41    64    61    1
    42    61    60    1
    43    26    25    1
    44    53    52    2
    45    25    22    1
    46    54    55    1
    47    54    51    1
    48    52    51    1
    49    57    55   ar
    50    57    59   ar
    51    55    56   ar
    52    50    51    1
    53    59    58   ar
    54    22    23    1
    55    22    21    1
    56    56    58   ar
    57   108   106    1
    58    17    16    2
    59   105   106    2
    60   105   104    1
    61   106   107    1
    62    24    23    2
    63    23    32   am
    64    98    99    1
    65   104   103    1
    66    21    16   am
    67    37    36    1
    68    32    33    1
    69    16    15    1
    70    33    36    1
    71    33    34    1
    72    19    18    1
    73    49    47    1
    74    36    38    1
    75    14    15    1
    76    14    10   am
    77    18    15    1
    78    18    20    1
    79    99   102    1
    80    99   100    1
    81    48    47    1
    82   103   102    1
    83    47    46    2
    84     4     3    2
    85   100   101    2
    86    34    35    2
    87     9    10    1
    88     9    12    1
    89     9     8    1
    90    10    11    2
    91    12    13    1
    92    46    45    1
    93     3     8   am
    94     3     2    1
    95     6     5    1
    96     5     2    1
    97     5     7    1
    98    45    44    1
    99     2     1    1
   100    44    43    1
   101    43    40    1
   102    40    41    1
   103    40    39    1
   104    41    42    2
