@<TRIPOS>MOLECULE
tmp/5g1zC01.pdb
 174 167 0 0 0
SMALL
GASTEIGER

@<TRIPOS>ATOM
      1  N          9.7290  -16.0880   89.6830 N.3    70  VAL70      -0.1231
      2  CA         9.5040  -14.7630   90.3010 C.3    70  VAL70       0.1692
      3  C          8.5180  -14.9360   91.4740 C.2    70  VAL70       0.2592
      4  O          7.4250  -15.5390   91.3150 O.2    70  VAL70      -0.2718
      5  CB         8.8830  -13.7960   89.2740 C.3    70  VAL70       0.0266
      6  CG1        8.5310  -12.4940   89.9470 C.3    70  VAL70       0.0020
      7  CG2        9.8650  -13.5460   88.1390 C.3    70  VAL70       0.0020
      8  N          8.8920  -14.3390   92.5950 N.am   71  GLU71      -0.1966
      9  CA         7.9770  -14.2170   93.7710 C.3    71  GLU71       0.1733
     10  C          7.6420  -12.7740   93.9810 C.2    71  GLU71       0.2616
     11  O          8.4050  -11.9060   93.5900 O.2    71  GLU71      -0.2715
     12  CB         8.7040  -14.6450   95.0270 C.3    71  GLU71       0.0429
     13  CG         8.9800  -16.1330   94.8980 C.3    71  GLU71       0.1163
     14  CD         9.5190  -16.7490   96.1670 C.2    71  GLU71       0.3649
     15  OE1        9.5560  -16.0910   97.2300 O.co2  71  GLU71      -0.2457
     16  OE2        9.8590  -17.9200   96.1180 O.co2  71  GLU71      -0.2457
     17  N          6.5160  -12.5080   94.6260 N.am   72  ASP72      -0.1957
     18  CA         6.2360  -11.0600   94.8990 C.3    72  ASP72       0.1840
     19  C          7.1450  -10.5190   95.9760 C.2    72  ASP72       0.2622
     20  O          7.7660  -11.2700   96.7500 O.2    72  ASP72      -0.2715
     21  CB         4.7910  -10.8740   95.2720 C.3    72  ASP72       0.1450
     22  CG         4.5320  -11.4140   96.5820 C.2    72  ASP72       0.3671
     23  OD1        4.7490  -12.6590   96.7930 O.co2  72  ASP72      -0.2456
     24  OD2        4.2170  -10.5730   97.4690 O.co2  72  ASP72      -0.2456
     25  N          7.2060   -9.1810   96.0410 N.am   73  ASP73      -0.1971
     26  CA         8.1260   -8.5050   96.9570 C.3    73  ASP73       0.1709
     27  C          8.0800   -8.9650   98.4270 C.2    73  ASP73       0.2293
     28  O          9.1270   -9.0050   99.0740 O.2    73  ASP73      -0.2864
     29  CB         8.0680   -6.9660   96.7910 C.3    73  ASP73       0.1436
     30  CG         8.9150   -6.4620   95.5790 C.2    73  ASP73       0.3671
     31  OD1        8.5490   -6.7160   94.3860 O.co2  73  ASP73      -0.2456
     32  OD2        9.9630   -5.8090   95.8330 O.co2  73  ASP73      -0.2456
     33  N          3.5260  -15.2150   97.0480 N.3    77  PHE77      -0.1241
     34  CA         3.0950  -15.8960   95.8090 C.3    77  PHE77       0.1605
     35  C          4.3220  -16.1190   94.9700 C.2    77  PHE77       0.2264
     36  O          5.2520  -15.3610   95.0460 O.2    77  PHE77      -0.2867
     37  CB         2.2660  -14.9650   94.9710 C.3    77  PHE77       0.0534
     38  CG         1.0150  -14.5120   95.6370 C.ar   77  PHE77      -0.0203
     39  CD1        0.1490  -15.4570   96.1610 C.ar   77  PHE77      -0.0042
     40  CD2        0.7310  -13.1810   95.7170 C.ar   77  PHE77      -0.0042
     41  CE1       -1.0550  -15.0530   96.7690 C.ar   77  PHE77      -0.0003
     42  CE2       -0.4550  -12.7480   96.3240 C.ar   77  PHE77      -0.0003
     43  CZ        -1.3400  -13.6920   96.8640 C.ar   77  PHE77      -0.0000
     44  N          4.9710  -17.0780   90.7930 N.3    79  PHE79      -0.1241
     45  CA         4.2840  -17.3020   89.4530 C.3    79  PHE79       0.1605
     46  C          4.4480  -18.7810   89.1020 C.2    79  PHE79       0.2264
     47  O          5.5100  -19.3910   89.3840 O.2    79  PHE79      -0.2867
     48  CB         4.9090  -16.4030   88.3310 C.3    79  PHE79       0.0534
     49  CG         4.5100  -14.9730   88.5110 C.ar   79  PHE79      -0.0203
     50  CD1        3.2110  -14.6140   88.2320 C.ar   79  PHE79      -0.0042
     51  CD2        5.3300  -14.0460   89.1080 C.ar   79  PHE79      -0.0042
     52  CE1        2.7730  -13.3090   88.3730 C.ar   79  PHE79      -0.0003
     53  CE2        4.9170  -12.7010   89.2560 C.ar   79  PHE79      -0.0003
     54  CZ         3.5850  -12.3460   88.9140 C.ar   79  PHE79      -0.0000
     55  N         10.4210   -6.6940   86.7070 N.3   173  GLY173     -0.1225
     56  CA         9.9360   -5.8530   87.8490 C.3   173  GLY173      0.1811
     57  C         11.1020   -5.1960   88.5340 C.2   173  GLY173      0.2280
     58  O         10.8800   -4.1550   89.2310 O.2   173  GLY173     -0.2866
     59  N          1.2260   -1.9820   87.6920 N.3   185  TYR185     -0.1227
     60  CA         0.2470   -3.0870   87.7410 C.3   185  TYR185      0.1736
     61  C         -1.0540   -2.7000   88.4320 C.2   185  TYR185      0.2595
     62  O         -1.0050   -1.9880   89.4520 O.2   185  TYR185     -0.2718
     63  CB         0.8350   -4.2170   88.6260 C.3   185  TYR185      0.0548
     64  CG         2.2110   -4.7110   88.3430 C.ar  185  TYR185     -0.0200
     65  CD1        2.4090   -5.5470   87.3010 C.ar  185  TYR185     -0.0009
     66  CD2        3.3310   -4.4090   89.2170 C.ar  185  TYR185     -0.0009
     67  CE1        3.7210   -6.0360   87.0150 C.ar  185  TYR185      0.0417
     68  CE2        4.5820   -4.8720   88.9130 C.ar  185  TYR185      0.0417
     69  CZ         4.7720   -5.7180   87.8680 C.ar  185  TYR185      0.1957
     70  OH         6.0460   -6.2060   87.6280 O.3   185  TYR185     -0.2866
     71  N         -2.1560   -3.1560   87.8830 N.am  186  TYR186     -0.1962
     72  CA        -3.4370   -2.9530   88.5280 C.3   186  TYR186      0.1771
     73  C         -4.1920   -4.2950   88.5720 C.2   186  TYR186      0.2619
     74  O         -3.9690   -5.1610   87.7700 O.2   186  TYR186     -0.2715
     75  CB        -4.2670   -1.9290   87.7530 C.3   186  TYR186      0.0574
     76  CG        -3.7590   -0.5320   87.8480 C.ar  186  TYR186     -0.0198
     77  CD1       -2.6290   -0.1400   87.0780 C.ar  186  TYR186     -0.0009
     78  CD2       -4.3590    0.3620   88.7800 C.ar  186  TYR186     -0.0009
     79  CE1       -2.1360    1.1490   87.1480 C.ar  186  TYR186      0.0417
     80  CE2       -3.8250    1.6510   88.8990 C.ar  186  TYR186      0.0417
     81  CZ        -2.7350    1.9920   88.0750 C.ar  186  TYR186      0.1957
     82  OH        -2.1240    3.2810   88.0860 O.3   186  TYR186     -0.2866
     83  N         -5.0950   -4.4730   89.5380 N.am  187  HIS187     -0.1973
     84  CA        -5.8210   -5.7290   89.6500 C.3   187  HIS187      0.1656
     85  C         -7.2610   -5.4590   89.9900 C.2   187  HIS187      0.2291
     86  O         -7.5790   -4.5510   90.7790 O.2   187  HIS187     -0.2864
     87  CB        -5.2440   -6.6450   90.7320 C.3   187  HIS187      0.0771
     88  CG        -4.9970   -5.9510   92.0410 C.ar  187  HIS187      0.0820
     89  ND1       -5.9730   -5.8070   93.0130 N.ar  187  HIS187     -0.2267
     90  CD2       -3.8740   -5.4260   92.5640 C.ar  187  HIS187      0.1154
     91  CE1       -5.4560   -5.1890   94.0610 C.ar  187  HIS187      0.1986
     92  NE2       -4.1930   -4.9200   93.8030 N.ar  187  HIS187     -0.2212
     93  N         -3.7410  -11.0960   99.4830 N.3   200  PHE200     -0.1241
     94  CA        -3.5640  -10.4440   98.2030 C.3   200  PHE200      0.1605
     95  C         -3.8110   -8.9400   98.3170 C.2   200  PHE200      0.2264
     96  O         -3.0000   -8.1470   97.8240 O.2   200  PHE200     -0.2867
     97  CB        -4.5210  -11.0610   97.1700 C.3   200  PHE200      0.0534
     98  CG        -4.3940  -10.4490   95.8200 C.ar  200  PHE200     -0.0203
     99  CD1       -3.4730  -10.9620   94.8990 C.ar  200  PHE200     -0.0042
    100  CD2       -5.2010   -9.3450   95.4440 C.ar  200  PHE200     -0.0042
    101  CE1       -3.3500  -10.4210   93.6380 C.ar  200  PHE200     -0.0003
    102  CE2       -5.0410   -8.7890   94.1890 C.ar  200  PHE200     -0.0003
    103  CZ        -4.1040   -9.3190   93.2820 C.ar  200  PHE200     -0.0000
    104  N         -2.2900  -17.1120   84.0250 N.3   277  LEU277     -0.1245
    105  CA        -0.9730  -17.2800   84.7290 C.3   277  LEU277      0.1561
    106  C         -1.2950  -17.4520   86.2660 C.2   277  LEU277      0.2260
    107  O         -1.4500  -16.4270   86.9560 O.2   277  LEU277     -0.2867
    108  CB        -0.0970  -16.0560   84.3890 C.3   277  LEU277      0.0270
    109  CG         1.1960  -15.9320   85.3010 C.3   277  LEU277      0.0019
    110  CD1        1.9600  -17.2960   85.2930 C.3   277  LEU277      0.0001
    111  CD2        2.0420  -14.7270   84.7750 C.3   277  LEU277      0.0001
    112  N         -0.5490  -18.3170   90.1960 N.3   279  SER279     -0.1217
    113  CA         0.5690  -18.2500   91.1820 C.3   279  SER279      0.1889
    114  C          0.3460  -19.3130   92.2500 C.2   279  SER279      0.2288
    115  O         -0.7820  -19.4850   92.7190 O.2   279  SER279     -0.2866
    116  CB         0.6500  -16.8580   91.7900 C.3   279  SER279      0.2089
    117  OG         1.2190  -15.9230   90.8350 O.3   279  SER279     -0.2183
    118  N         -3.5190  -19.2340   93.2000 N.3   290  LEU290     -0.1245
    119  CA        -4.3010  -18.0930   92.7610 C.3   290  LEU290      0.1561
    120  C         -4.4790  -18.2340   91.2300 C.2   290  LEU290      0.2260
    121  O         -3.4670  -18.2800   90.4680 O.2   290  LEU290     -0.2867
    122  CB        -3.5200  -16.8370   93.0630 C.3   290  LEU290      0.0270
    123  CG        -4.0780  -15.5240   92.4610 C.3   290  LEU290      0.0019
    124  CD1       -5.3390  -15.3030   93.2020 C.3   290  LEU290      0.0001
    125  CD2       -3.0880  -14.3870   92.7470 C.3   290  LEU290      0.0001
    126  N         -5.2100  -16.5890   87.9510 N.3   292  ALA292     -0.1245
    127  CA        -5.2620  -15.2010   87.5760 C.3   292  ALA292      0.1562
    128  C         -5.2930  -15.0450   86.0670 C.2   292  ALA292      0.2260
    129  O         -4.5450  -15.7920   85.3880 O.2   292  ALA292     -0.2867
    130  CB        -4.0270  -14.4780   88.0950 C.3   292  ALA292      0.0290
    131  N         -4.5320  -12.3230   82.9290 N.3   294  TYR294     -0.1241
    132  CA        -3.8170  -11.0880   82.6380 C.3   294  TYR294      0.1605
    133  C         -4.3010  -10.5390   81.2820 C.2   294  TYR294      0.2264
    134  O         -4.2510  -11.2340   80.2780 O.2   294  TYR294     -0.2867
    135  CB        -2.3030  -11.4070   82.5120 C.3   294  TYR294      0.0534
    136  CG        -1.7230  -11.6610   83.9010 C.ar  294  TYR294     -0.0201
    137  CD1       -1.9510  -12.8810   84.6100 C.ar  294  TYR294     -0.0009
    138  CD2       -0.9470  -10.6510   84.5060 C.ar  294  TYR294     -0.0009
    139  CE1       -1.3940  -13.1150   85.9030 C.ar  294  TYR294      0.0417
    140  CE2       -0.4050  -10.8880   85.8120 C.ar  294  TYR294      0.0417
    141  CZ        -0.6930  -12.0780   86.4460 C.ar  294  TYR294      0.1957
    142  OH        -0.1130  -12.1760   87.6840 O.3   294  TYR294     -0.2866
    143  N         -8.9230  -13.2820   89.8330 N.3   323  VAL323     -0.1301
    144  CA        -8.5470  -11.9020   89.7380 C.3   323  VAL323      0.1246
    145  C         -8.2180  -11.6060   88.2310 C.3   323  VAL323      0.2009
    146  O         -7.7740  -12.5660   87.4880 O.3   323  VAL323     -0.2188
    147  CB        -7.2840  -11.6240   90.6530 C.3   323  VAL323      0.0202
    148  CG1       -6.0510  -12.3720   90.1820 C.3   323  VAL323      0.0016
    149  CG2       -6.8780  -10.1640   90.6420 C.3   323  VAL323      0.0016
    150  N         -5.8970   -9.0300   85.9970 N.3   325  ASN325     -0.1225
    151  CA        -4.7220   -8.1010   86.1640 C.3   325  ASN325      0.1785
    152  C         -4.4870   -7.3900   84.8750 C.2   325  ASN325      0.2597
    153  O         -4.6950   -7.9050   83.7680 O.2   325  ASN325     -0.2718
    154  CB        -3.4570   -8.9460   86.4630 C.3   325  ASN325      0.1169
    155  CG        -3.4990   -9.6060   87.7990 C.2   325  ASN325      0.2627
    156  OD1       -3.6580   -8.9970   88.7730 O.2   325  ASN325     -0.2716
    157  ND2       -3.5100  -10.8960   87.7820 N.am  325  ASN325     -0.0877
    158  N         -4.0630   -6.1010   84.9350 N.am  326  ALA326     -0.1979
    159  CA        -3.6850   -5.3960   83.7070 C.3   326  ALA326      0.1597
    160  C         -2.6130   -4.3840   83.9870 C.2   326  ALA326      0.2287
    161  O         -2.3630   -4.1060   85.1370 O.2   326  ALA326     -0.2864
    162  CB        -4.8540   -4.6420   83.1710 C.3   326  ALA326      0.0319
    163  N         -1.2610   -2.0600   92.2360 N.3   344  GLY344     -0.1210
    164  CA        -0.4440   -2.9830   92.9780 C.3   344  GLY344      0.1956
    165  C          0.9190   -2.3700   93.3600 C.2   344  GLY344      0.2611
    166  O          1.2380   -1.2640   92.9940 O.2   344  GLY344     -0.2717
    167  N          1.7420   -3.1730   94.0220 N.am  345  ASP345     -0.1973
    168  CA         3.0740   -2.7600   94.4520 C.3   345  ASP345      0.1709
    169  C          4.0350   -2.7520   93.2660 C.2   345  ASP345      0.2293
    170  O          3.9440   -3.6160   92.3680 O.2   345  ASP345     -0.2864
    171  CB         3.5960   -3.7720   95.4900 C.3   345  ASP345      0.1436
    172  CG         2.9000   -3.6210   96.8490 C.2   345  ASP345      0.3671
    173  OD1        2.6210   -2.4590   97.2490 O.co2 345  ASP345     -0.2456
    174  OD2        2.6200   -4.6500   97.5060 O.co2 345  ASP345     -0.2456
@<TRIPOS>BOND
     1   134   133    2
     2   133   132    1
     3   135   132    1
     4   135   136    1
     5   132   131    1
     6   162   159    1
     7   159   160    1
     8   159   158    1
     9   153   152    2
    10   136   138   ar
    11   136   137   ar
    12   160   161    2
    13   104   105    1
    14   108   105    1
    15   108   109    1
    16   138   140   ar
    17   137   139   ar
    18   105   106    1
    19   111   109    1
    20   152   158   am
    21   152   151    1
    22   110   109    1
    23   129   128    2
    24   140   141   ar
    25   139   141   ar
    26   150   151    1
    27   128   127    1
    28   151   154    1
    29   106   107    2
    30   141   142    1
    31   154   155    1
    32    55    56    1
    33    67    65   ar
    34    67    69   ar
    35    77    79   ar
    36    77    76   ar
    37    79    81   ar
    38    65    64   ar
    39   146   145    1
    40   127   126    1
    41   127   130    1
    42    70    69    1
    43    59    60    1
    44    60    61    1
    45    60    63    1
    46    75    76    1
    47    75    72    1
    48    74    73    2
    49   157   155   am
    50   155   156    2
    51    76    78   ar
    52    56    57    1
    53    69    68   ar
    54    71    61   am
    55    71    72    1
    56    81    82    1
    57    81    80   ar
    58     7     5    1
    59   145   144    1
    60    50    52   ar
    61    50    49   ar
    62    48    49    1
    63    48    45    1
    64    64    63    1
    65    64    66   ar
    66    52    54   ar
    67    61    62    2
    68    49    51   ar
    69    72    73    1
    70    57    58    2
    71    73    83   am
    72    78    80   ar
    73    68    66   ar
    74    54    53   ar
    75    46    47    2
    76    46    45    1
    77    51    53   ar
    78     5     6    1
    79     5     2    1
    80    45    44    1
    81    83    84    1
    82    84    85    1
    83    84    87    1
    84     1     2    1
    85   144   143    1
    86   144   147    1
    87    85    86    2
    88   148   147    1
    89   112   113    1
    90     2     3    1
    91   121   120    2
    92   149   147    1
    93    87    88    1
    94   117   116    1
    95   113   116    1
    96   113   114    1
    97   120   119    1
    98     4     3    2
    99     3     8   am
   100    88    90   ar
   101    88    89   ar
   102   163   164    1
   103   114   115    2
   104   170   169    2
   105   123   125    1
   106   123   122    1
   107   123   124    1
   108    90    92   ar
   109     8     9    1
   110   119   122    1
   111   119   118    1
   112   164   165    1
   113   166   165    2
   114    89    91   ar
   115   169   168    1
   116   103   101   ar
   117   103   102   ar
   118   165   167   am
   119    11    10    2
   120   101    99   ar
   121     9    10    1
   122     9    12    1
   123    92    91   ar
   124    10    17   am
   125   167   168    1
   126   102   100   ar
   127    31    30   ar
   128   168   171    1
   129    17    18    1
   130    13    12    1
   131    13    14    1
   132    18    21    1
   133    18    19    1
   134    99    98   ar
   135    35    36    2
   136    35    34    1
   137    37    38    1
   138    37    34    1
   139    21    22    1
   140   100    98   ar
   141   171   172    1
   142    30    32   ar
   143    30    29    1
   144    38    40   ar
   145    38    39   ar
   146    40    42   ar
   147    34    33    1
   148    98    97    1
   149    19    25   am
   150    19    20    2
   151    25    26    1
   152    16    14   ar
   153    39    41   ar
   154    14    15   ar
   155    42    43   ar
   156    22    23   ar
   157    22    24   ar
   158    41    43   ar
   159    29    26    1
   160   172   173   ar
   161   172   174   ar
   162    26    27    1
   163    97    94    1
   164    96    95    2
   165    94    95    1
   166    94    93    1
   167    27    28    2
