@<TRIPOS>MOLECULE
tmp/5g20A01.pdb
 167 158 0 0 0
SMALL
GASTEIGER

@<TRIPOS>ATOM
      1  N          7.5100   41.3260   64.0610 N.3    71  VAL71      -0.1231
      2  CA         8.4000   42.3220   63.4420 C.3    71  VAL71       0.1692
      3  C          9.0170   43.3220   64.4840 C.2    71  VAL71       0.2592
      4  O          8.2870   43.8480   65.3460 O.2    71  VAL71      -0.2718
      5  CB         7.5640   43.1770   62.5070 C.3    71  VAL71       0.0266
      6  CG1        8.5020   44.1070   61.7020 C.3    71  VAL71       0.0020
      7  CG2        6.8210   42.3140   61.4280 C.3    71  VAL71       0.0020
      8  N         10.3460   43.5140   64.3660 N.am   72  GLU72      -0.1966
      9  CA        11.1380   44.3130   65.2800 C.3    72  GLU72       0.1733
     10  C         12.0540   45.1370   64.4270 C.2    72  GLU72       0.2616
     11  O         12.5290   44.6790   63.3450 O.2    72  GLU72      -0.2715
     12  CB        11.9310   43.2920   66.1350 C.3    72  GLU72       0.0429
     13  CG        12.9330   43.8420   67.1020 C.3    72  GLU72       0.1163
     14  CD        13.5050   42.7620   67.9680 C.2    72  GLU72       0.3649
     15  OE1       12.8660   41.7330   68.2250 O.co2  72  GLU72      -0.2457
     16  OE2       14.5850   43.0260   68.5060 O.co2  72  GLU72      -0.2457
     17  N         12.2290   46.3910   64.8330 N.am   73  ASP73      -0.1957
     18  CA        13.1530   47.2380   64.0300 C.3    73  ASP73       0.1840
     19  C         14.5870   46.8370   64.1210 C.2    73  ASP73       0.2622
     20  O         15.0030   46.0490   64.9790 O.2    73  ASP73      -0.2715
     21  CB        12.9390   48.6670   64.4420 C.3    73  ASP73       0.1450
     22  CG        13.5370   48.9510   65.7930 C.2    73  ASP73       0.3671
     23  OD1       13.1550   48.2660   66.7450 O.co2  73  ASP73      -0.2456
     24  OD2       14.4080   49.8510   65.9490 O.co2  73  ASP73      -0.2456
     25  N         15.3870   47.3750   63.1870 N.am   74  ASP74      -0.1971
     26  CA        16.8000   46.8990   63.0830 C.3    74  ASP74       0.1709
     27  C         17.6440   47.2560   64.3050 C.2    74  ASP74       0.2293
     28  O         18.5900   46.5510   64.6330 O.2    74  ASP74      -0.2864
     29  CB        17.4670   47.5160   61.8500 C.3    74  ASP74       0.1436
     30  CG        16.8750   47.0090   60.5560 C.2    74  ASP74       0.3671
     31  OD1       16.3540   45.8590   60.5300 O.co2  74  ASP74      -0.2456
     32  OD2       16.9560   47.7780   59.5850 O.co2  74  ASP74      -0.2456
     33  N         11.6890   48.3560   69.2060 N.3    78  PHE78      -0.1241
     34  CA        10.2270   48.1640   69.2550 C.3    78  PHE78       0.1605
     35  C          9.9010   46.8510   68.5500 C.2    78  PHE78       0.2264
     36  O         10.5830   46.4520   67.6270 O.2    78  PHE78      -0.2867
     37  CB         9.4680   49.2160   68.4590 C.3    78  PHE78       0.0534
     38  CG         9.7240   50.6310   68.9110 C.ar   78  PHE78      -0.0203
     39  CD1        9.1720   51.0820   70.1190 C.ar   78  PHE78      -0.0042
     40  CD2       10.5160   51.4830   68.1360 C.ar   78  PHE78      -0.0042
     41  CE1        9.3960   52.4060   70.5360 C.ar   78  PHE78      -0.0003
     42  CE2       10.7700   52.8020   68.5750 C.ar   78  PHE78      -0.0003
     43  CZ        10.1610   53.2440   69.7480 C.ar   78  PHE78      -0.0000
     44  N          6.2160   44.6800   67.3620 N.3    80  PHE80      -0.1241
     45  CA         4.7620   44.7500   67.4680 C.3    80  PHE80       0.1605
     46  C          4.2060   43.7960   68.4510 C.2    80  PHE80       0.2264
     47  O          4.7800   42.6840   68.6290 O.2    80  PHE80      -0.2867
     48  CB         4.1520   44.3820   66.0770 C.3    80  PHE80       0.0534
     49  CG         4.3690   45.4080   65.0380 C.ar   80  PHE80      -0.0203
     50  CD1        4.1230   46.7560   65.2930 C.ar   80  PHE80      -0.0042
     51  CD2        4.7850   45.0020   63.7660 C.ar   80  PHE80      -0.0042
     52  CE1        4.2900   47.7300   64.2510 C.ar   80  PHE80      -0.0003
     53  CE2        4.9680   45.9450   62.7020 C.ar   80  PHE80      -0.0003
     54  CZ         4.7270   47.2990   62.9420 C.ar   80  PHE80      -0.0000
     55  N          7.5660   45.4390   55.1950 N.3   195  GLY195     -0.1225
     56  CA         8.4680   46.5990   55.3240 C.3   195  GLY195      0.1811
     57  C          9.8480   46.3240   54.7200 C.2   195  GLY195      0.2280
     58  O         10.7350   47.1950   54.9600 O.2   195  GLY195     -0.2866
     59  N          5.9430   55.3900   55.3920 N.3   207  TYR207     -0.1241
     60  CA         5.1800   55.6170   56.5940 C.3   207  TYR207      0.1605
     61  C          5.2120   56.9890   57.1270 C.2   207  TYR207      0.2264
     62  O          6.2490   57.6830   56.9110 O.2   207  TYR207     -0.2867
     63  CB         5.7090   54.7380   57.7510 C.3   207  TYR207      0.0534
     64  CG         5.2430   53.3340   57.7010 C.ar  207  TYR207     -0.0201
     65  CD1        4.0630   52.9890   58.2980 C.ar  207  TYR207     -0.0009
     66  CD2        5.9690   52.3780   56.9850 C.ar  207  TYR207     -0.0009
     67  CE1        3.6130   51.6060   58.2700 C.ar  207  TYR207      0.0417
     68  CE2        5.5080   51.0510   56.9940 C.ar  207  TYR207      0.0417
     69  CZ         4.3590   50.7410   57.6690 C.ar  207  TYR207      0.1957
     70  OH         3.9640   49.4150   57.6320 O.3   207  TYR207     -0.2866
     71  N          4.0100   59.5050   60.6600 N.3   209  HIS209     -0.1241
     72  CA         3.6540   59.4180   62.1080 C.3   209  HIS209      0.1621
     73  C          3.2140   60.7810   62.5210 C.2   209  HIS209      0.2264
     74  O          3.8580   61.7560   62.1370 O.2   209  HIS209     -0.2867
     75  CB         4.9310   59.0240   62.9290 C.3   209  HIS209      0.0745
     76  CG         5.6010   57.8180   62.3820 C.ar  209  HIS209      0.0817
     77  ND1        5.0470   56.5750   62.5810 N.ar  209  HIS209     -0.2268
     78  CD2        6.6360   57.6380   61.5150 C.ar  209  HIS209      0.1154
     79  CE1        5.7590   55.6650   61.9530 C.ar  209  HIS209      0.1986
     80  NE2        6.7650   56.2750   61.3330 N.ar  209  HIS209     -0.2212
     81  N          6.9660   59.8470   73.6990 N.3   217  LEU217     -0.1245
     82  CA         7.6740   59.5160   72.4860 C.3   217  LEU217      0.1561
     83  C          9.1430   59.9030   72.5690 C.2   217  LEU217      0.2260
     84  O          9.9720   59.1880   72.1010 O.2   217  LEU217     -0.2867
     85  CB         7.0370   60.1010   71.2140 C.3   217  LEU217      0.0270
     86  CG         5.6750   59.4770   70.8520 C.3   217  LEU217      0.0019
     87  CD1        5.2960   60.1240   69.5230 C.3   217  LEU217      0.0001
     88  CD2        5.8180   57.9270   70.8000 C.3   217  LEU217      0.0001
     89  N         11.8640   57.1860   72.0120 N.3   221  ARG221     -0.1245
     90  CA        12.3240   57.1860   70.6340 C.3   221  ARG221      0.1563
     91  C         13.8110   57.4490   70.6000 C.2   221  ARG221      0.2260
     92  O         14.4010   58.0420   71.5520 O.2   221  ARG221     -0.2867
     93  CB        11.5480   58.1890   69.7820 C.3   221  ARG221      0.0307
     94  CG        11.5610   57.8760   68.2160 C.3   221  ARG221      0.0489
     95  CD        10.7200   59.0640   67.6340 C.3   221  ARG221      0.2205
     96  NE        10.8280   60.2500   68.5120 N.pl3 221  ARG221     -0.0865
     97  CZ         9.8180   61.0560   68.8220 C.cat 221  ARG221      0.5346
     98  NH1        8.6210   60.8370   68.2950 N.pl3 221  ARG221      0.1354
     99  NH2       10.0150   62.0990   69.6380 N.pl3 221  ARG221      0.1354
    100  N          3.0620   48.2800   70.5530 N.3   320  SER320     -0.1217
    101  CA         4.4170   47.6890   70.4450 C.3   320  SER320      0.1889
    102  C          5.0640   47.5600   71.7840 C.2   320  SER320      0.2288
    103  O          4.9350   48.4660   72.6090 O.2   320  SER320     -0.2866
    104  CB         5.3080   48.5430   69.5770 C.3   320  SER320      0.2089
    105  OG         4.8620   48.3310   68.2180 O.3   320  SER320     -0.2183
    106  N          4.1500   51.0240   73.4920 N.3   331  LEU331     -0.1245
    107  CA         3.8290   52.2060   72.6730 C.3   331  LEU331      0.1561
    108  C          2.4620   51.9170   72.0630 C.2   331  LEU331      0.2260
    109  O          2.3080   50.8120   71.4970 O.2   331  LEU331     -0.2867
    110  CB         4.8200   52.3440   71.5300 C.3   331  LEU331      0.0270
    111  CG         4.5200   53.4040   70.4800 C.3   331  LEU331      0.0019
    112  CD1        4.6090   54.7870   71.0580 C.3   331  LEU331      0.0001
    113  CD2        5.5500   53.2220   69.3300 C.3   331  LEU331      0.0001
    114  N         -0.0670   52.6390   69.3800 N.3   333  ALA333     -0.1245
    115  CA        -0.1920   53.3460   68.0870 C.3   333  ALA333      0.1562
    116  C         -1.6260   53.1410   67.5520 C.2   333  ALA333      0.2260
    117  O         -2.2120   52.0350   67.5830 O.2   333  ALA333     -0.2867
    118  CB         0.8060   52.7960   67.0190 C.3   333  ALA333      0.0290
    119  N         -3.5680   53.3580   63.9910 N.3   335  TYR335     -0.1241
    120  CA        -3.2950   53.3700   62.5270 C.3   335  TYR335      0.1605
    121  C         -4.5220   53.7810   61.7600 C.2   335  TYR335      0.2264
    122  O         -5.6230   53.3360   62.0070 O.2   335  TYR335     -0.2867
    123  CB        -2.9430   51.9360   62.0780 C.3   335  TYR335      0.0534
    124  CG        -1.4980   51.5900   62.3370 C.ar  335  TYR335     -0.0201
    125  CD1       -1.0110   51.3600   63.6210 C.ar  335  TYR335     -0.0009
    126  CD2       -0.6600   51.5040   61.1950 C.ar  335  TYR335     -0.0009
    127  CE1        0.4020   51.0560   63.7590 C.ar  335  TYR335      0.0417
    128  CE2        0.7000   51.2390   61.3420 C.ar  335  TYR335      0.0417
    129  CZ         1.1710   51.0230   62.5980 C.ar  335  TYR335      0.1957
    130  OH         2.5740   50.7740   62.5740 O.3   335  TYR335     -0.2866
    131  N          0.6400   57.8180   69.2770 N.3   364  VAL364     -0.1245
    132  CA         1.0810   58.2280   67.9380 C.3   364  VAL364      0.1561
    133  C         -0.0210   57.7260   66.9840 C.2   364  VAL364      0.2260
    134  O         -0.6620   56.6920   67.2800 O.2   364  VAL364     -0.2867
    135  CB         2.4920   57.6310   67.6230 C.3   364  VAL364      0.0252
    136  CG1        2.4520   56.0780   67.5420 C.3   364  VAL364      0.0019
    137  CG2        3.0480   58.1860   66.3150 C.3   364  VAL364      0.0019
    138  N         -0.2960   56.5020   63.0410 N.3   366  ASN366     -0.1240
    139  CA         0.5260   56.0920   61.9040 C.3   366  ASN366      0.1653
    140  C         -0.3530   55.8690   60.7080 C.2   366  ASN366      0.2266
    141  O         -1.5380   55.5020   60.7970 O.2   366  ASN366     -0.2867
    142  CB         1.2100   54.7340   62.2350 C.3   366  ASN366      0.1155
    143  CG         2.2300   54.8980   63.3440 C.2   366  ASN366      0.2627
    144  OD1        2.7110   55.9960   63.5910 O.2   366  ASN366     -0.2716
    145  ND2        2.6060   53.8020   63.9920 N.am  366  ASN366     -0.0877
    146  N         10.5460   54.1910   57.5390 N.3   387  GLY387     -0.1210
    147  CA        10.0690   52.9210   56.9270 C.3   387  GLY387      0.1956
    148  C          9.2760   53.1290   55.6470 C.2   387  GLY387      0.2612
    149  O          8.8190   54.2410   55.3310 O.2   387  GLY387     -0.2717
    150  N          9.1540   52.0650   54.8740 N.am  388  HIS388     -0.1961
    151  CA         8.2880   52.0230   53.6680 C.3   388  HIS388      0.1787
    152  C          7.5020   50.7680   53.7390 C.2   388  HIS388      0.2620
    153  O          8.0750   49.6960   54.0990 O.2   388  HIS388     -0.2715
    154  CB         9.1150   51.9140   52.4170 C.3   388  HIS388      0.0785
    155  CG         9.9380   53.1750   52.1720 C.ar  388  HIS388      0.0821
    156  ND1       11.1340   53.3920   52.8100 N.ar  388  HIS388     -0.2267
    157  CD2        9.7130   54.2460   51.3870 C.ar  388  HIS388      0.1154
    158  CE1       11.6460   54.5500   52.3980 C.ar  388  HIS388      0.1986
    159  NE2       10.7920   55.0860   51.5410 N.ar  388  HIS388     -0.2212
    160  N          6.2550   50.8260   53.3700 N.am  389  LEU389     -0.1977
    161  CA         5.4760   49.6050   53.1530 C.3   389  LEU389      0.1596
    162  C          5.4220   49.3110   51.6690 C.2   389  LEU389      0.2287
    163  O          5.0190   50.1630   50.8730 O.2   389  LEU389     -0.2864
    164  CB         4.0670   49.8250   53.7420 C.3   389  LEU389      0.0297
    165  CG         3.2380   48.4810   53.8330 C.3   389  LEU389      0.0022
    166  CD1        3.8620   47.4720   54.8110 C.3   389  LEU389      0.0001
    167  CD2        1.7840   48.8140   54.1640 C.3   389  LEU389      0.0001
@<TRIPOS>BOND
     1   163   162    2
     2   157   159   ar
     3   157   155   ar
     4   159   158   ar
     5   162   161    1
     6   155   154    1
     7   155   156   ar
     8   158   156   ar
     9   154   151    1
    10   161   160    1
    11   161   164    1
    12   160   152   am
    13   151   152    1
    14   151   150    1
    15   152   153    2
    16   164   165    1
    17   165   167    1
    18   165   166    1
    19    57    58    2
    20    57    56    1
    21   150   148   am
    22    55    56    1
    23   149   148    2
    24    59    60    1
    25   148   147    1
    26    60    61    1
    27    60    63    1
    28    62    61    2
    29   147   146    1
    30    66    68   ar
    31    66    64   ar
    32    68    69   ar
    33    70    69    1
    34    69    67   ar
    35    64    63    1
    36    64    65   ar
    37    67    65   ar
    38    32    30   ar
    39    31    30   ar
    40    30    29    1
    41    71    72    1
    42   140   141    2
    43   140   139    1
    44   126   128   ar
    45   126   124   ar
    46    80    78   ar
    47    80    79   ar
    48   128   129   ar
    49     7     5    1
    50    78    76   ar
    51     6     5    1
    52   121   122    2
    53   121   120    1
    54    29    26    1
    55   139   142    1
    56   139   138    1
    57    79    77   ar
    58   123   124    1
    59   123   120    1
    60    72    73    1
    61    72    75    1
    62    74    73    2
    63   142   143    1
    64   124   125   ar
    65    76    77   ar
    66    76    75    1
    67     5     2    1
    68   120   119    1
    69   130   129    1
    70   129   127   ar
    71    53    54   ar
    72    53    51   ar
    73    54    52   ar
    74    26    25    1
    75    26    27    1
    76    25    19   am
    77   143   144    2
    78   143   145   am
    79    11    10    2
    80     2     1    1
    81     2     3    1
    82   125   127   ar
    83    51    49   ar
    84    18    19    1
    85    18    21    1
    86    18    17    1
    87    19    20    2
    88    52    50   ar
    89    27    28    2
    90     8     3   am
    91     8     9    1
    92    10    17   am
    93    10     9    1
    94    21    22    1
    95     3     4    2
    96    49    50   ar
    97    49    48    1
    98     9    12    1
    99    22    24   ar
   100    22    23   ar
   101    48    45    1
   102    12    13    1
   103   137   135    1
   104   133   134    2
   105   133   132    1
   106   118   115    1
   107    13    14    1
   108    44    45    1
   109    45    46    1
   110   136   135    1
   111   116   117    2
   112   116   115    1
   113   135   132    1
   114    36    35    2
   115    95    94    1
   116    95    96    1
   117   132   131    1
   118    14    15   ar
   119    14    16   ar
   120   115   114    1
   121    40    42   ar
   122    40    38   ar
   123    94    93    1
   124   105   104    1
   125    98    97    1
   126    46    47    2
   127    37    38    1
   128    37    34    1
   129    96    97    2
   130    35    34    1
   131    42    43   ar
   132    97    99    1
   133    38    39   ar
   134    33    34    1
   135   113   111    1
   136    87    86    1
   137   104   101    1
   138    43    41   ar
   139    93    90    1
   140    39    41   ar
   141   101   100    1
   142   101   102    1
   143   111   112    1
   144   111   110    1
   145    91    90    1
   146    91    92    2
   147    90    89    1
   148    88    86    1
   149    86    85    1
   150    85    82    1
   151   109   108    2
   152   110   107    1
   153   102   103    2
   154   108   107    1
   155    84    83    2
   156    82    83    1
   157    82    81    1
   158   107   106    1
