@<TRIPOS>MOLECULE
tmp/5g21A01.pdb
 246 239 0 0 0
SMALL
GASTEIGER

@<TRIPOS>ATOM
      1  N          6.0610   38.9050   66.1740 N.3    70  TYR70      -0.1227
      2  CA         5.5950   39.5770   64.9320 C.3    70  TYR70       0.1736
      3  C          6.4400   40.8010   64.5940 C.2    70  TYR70       0.2595
      4  O          7.5970   41.0580   65.0510 O.2    70  TYR70      -0.2718
      5  CB         4.0960   39.8840   64.9600 C.3    70  TYR70       0.0548
      6  CG         3.4220   40.0510   63.5770 C.ar   70  TYR70      -0.0200
      7  CD1        3.6730   39.2160   62.4950 C.ar   70  TYR70      -0.0009
      8  CD2        2.4920   41.1450   63.4400 C.ar   70  TYR70      -0.0009
      9  CE1        3.0480   39.4860   61.2390 C.ar   70  TYR70       0.0417
     10  CE2        1.9040   41.3900   62.1980 C.ar   70  TYR70       0.0417
     11  CZ         2.1810   40.5390   61.1560 C.ar   70  TYR70       0.1957
     12  OH         1.5600   40.7820   59.9280 O.3    70  TYR70      -0.2866
     13  N          5.9340   41.6300   63.6940 N.am   71  VAL71      -0.1966
     14  CA         6.7570   42.6660   63.0770 C.3    71  VAL71       0.1727
     15  C          7.2250   43.7610   63.9810 C.2    71  VAL71       0.2616
     16  O          6.4340   44.2930   64.7620 O.2    71  VAL71      -0.2715
     17  CB         6.0370   43.4810   61.9180 C.3    71  VAL71       0.0290
     18  CG1        7.1940   43.9550   60.9990 C.3    71  VAL71       0.0023
     19  CG2        5.0710   42.6880   61.0970 C.3    71  VAL71       0.0023
     20  N          8.5120   44.0900   63.8680 N.am   72  GLU72      -0.1963
     21  CA         9.0840   45.3030   64.5520 C.3    72  GLU72       0.1733
     22  C          9.4560   46.3090   63.5170 C.2    72  GLU72       0.2616
     23  O          9.8020   45.9370   62.3890 O.2    72  GLU72      -0.2715
     24  CB        10.3300   44.8240   65.3290 C.3    72  GLU72       0.0429
     25  CG        10.0180   43.7460   66.3340 C.3    72  GLU72       0.1163
     26  CD        11.2310   43.2240   67.1220 C.2    72  GLU72       0.3649
     27  OE1       12.4000   43.7550   66.9600 O.co2  72  GLU72      -0.2457
     28  OE2       10.9890   42.2370   67.8240 O.co2  72  GLU72      -0.2457
     29  N          9.5070   47.5510   63.8830 N.am   73  ASP73      -0.1957
     30  CA        10.0730   48.5960   62.9600 C.3    73  ASP73       0.1840
     31  C         11.6030   48.3990   62.8160 C.2    73  ASP73       0.2622
     32  O         12.2220   47.5510   63.4960 O.2    73  ASP73      -0.2715
     33  CB         9.7250   49.9240   63.4320 C.3    73  ASP73       0.1450
     34  CG        10.4870   50.2990   64.6590 C.2    73  ASP73       0.3671
     35  OD1       10.3640   49.6320   65.6500 O.co2  73  ASP73      -0.2456
     36  OD2       11.2590   51.2700   64.5690 O.co2  73  ASP73      -0.2456
     37  N         12.1900   49.0980   61.7990 N.am   74  ASP74      -0.1971
     38  CA        13.5840   48.7970   61.4430 C.3    74  ASP74       0.1709
     39  C         14.5380   49.1230   62.5740 C.2    74  ASP74       0.2293
     40  O         15.6420   48.5370   62.6330 O.2    74  ASP74      -0.2864
     41  CB        14.0470   49.5690   60.1750 C.3    74  ASP74       0.1436
     42  CG        13.3330   49.1200   58.9230 C.2    74  ASP74       0.3671
     43  OD1       12.9410   47.9070   58.8250 O.co2  74  ASP74      -0.2456
     44  OD2       13.1380   49.9880   58.0390 O.co2  74  ASP74      -0.2456
     45  N          9.4000   49.3030   68.2680 N.3    78  PHE78      -0.1241
     46  CA         8.0100   48.8190   68.4650 C.3    78  PHE78       0.1605
     47  C          7.8470   47.4440   67.9130 C.2    78  PHE78       0.2264
     48  O          8.4710   47.1190   66.8900 O.2    78  PHE78      -0.2867
     49  CB         7.0400   49.7090   67.6380 C.3    78  PHE78       0.0534
     50  CG         7.0140   51.1180   68.1030 C.ar   78  PHE78      -0.0203
     51  CD1        6.5450   51.4640   69.3790 C.ar   78  PHE78      -0.0042
     52  CD2        7.3490   52.1680   67.1620 C.ar   78  PHE78      -0.0042
     53  CE1        6.5250   52.8460   69.8180 C.ar   78  PHE78      -0.0003
     54  CE2        7.2860   53.5050   67.5550 C.ar   78  PHE78      -0.0003
     55  CZ         6.8560   53.8570   68.8770 C.ar   78  PHE78      -0.0000
     56  N          4.2370   45.0830   66.8700 N.3    80  PHE80      -0.1241
     57  CA         2.7900   45.0950   67.0020 C.3    80  PHE80       0.1605
     58  C          2.2800   44.0970   68.0520 C.2    80  PHE80       0.2264
     59  O          2.9310   43.0190   68.2210 O.2    80  PHE80      -0.2867
     60  CB         2.1530   44.6410   65.6490 C.3    80  PHE80       0.0534
     61  CG         2.2500   45.6530   64.5540 C.ar   80  PHE80      -0.0203
     62  CD1        1.7050   46.8960   64.7090 C.ar   80  PHE80      -0.0042
     63  CD2        2.7910   45.2760   63.3280 C.ar   80  PHE80      -0.0042
     64  CE1        1.7890   47.8670   63.6740 C.ar   80  PHE80      -0.0003
     65  CE2        2.8640   46.2240   62.2930 C.ar   80  PHE80      -0.0003
     66  CZ         2.3010   47.4880   62.4250 C.ar   80  PHE80      -0.0000
     67  N         -1.2450   42.9710   68.2890 N.3    82  TYR82      -0.1241
     68  CA        -2.6190   42.7660   67.9270 C.3    82  TYR82       0.1605
     69  C         -3.4290   42.0370   68.9940 C.2    82  TYR82       0.2264
     70  O         -2.9140   41.0190   69.5550 O.2    82  TYR82      -0.2867
     71  CB        -2.7220   41.9770   66.6130 C.3    82  TYR82       0.0534
     72  CG        -2.2840   42.6970   65.3820 C.ar   82  TYR82      -0.0201
     73  CD1       -0.9740   42.7380   64.9630 C.ar   82  TYR82      -0.0009
     74  CD2       -3.2750   43.3790   64.5960 C.ar   82  TYR82      -0.0009
     75  CE1       -0.5930   43.3610   63.7670 C.ar   82  TYR82       0.0417
     76  CE2       -2.8780   43.9980   63.3900 C.ar   82  TYR82       0.0417
     77  CZ        -1.6010   43.9890   62.9930 C.ar   82  TYR82       0.1957
     78  OH        -1.2460   44.5900   61.7650 O.3    82  TYR82      -0.2866
     79  N         -2.0640   37.7890   55.4350 N.3   157  ASN157     -0.1240
     80  CA        -1.4930   38.6740   56.4620 C.3   157  ASN157      0.1653
     81  C         -0.9870   37.7540   57.5830 C.2   157  ASN157      0.2266
     82  O         -1.2100   36.5480   57.6430 O.2   157  ASN157     -0.2867
     83  CB        -2.6470   39.5800   56.9680 C.3   157  ASN157      0.1155
     84  CG        -2.2430   40.8150   57.7400 C.2   157  ASN157      0.2627
     85  OD1       -1.1110   41.0990   57.9470 O.2   157  ASN157     -0.2716
     86  ND2       -3.2950   41.6000   58.0990 N.am  157  ASN157     -0.0877
     87  N          0.5110   42.9090   51.8230 N.3   193  THR193     -0.1203
     88  CA         1.3690   44.0990   51.9790 C.3   193  THR193      0.1994
     89  C          2.5290   43.6920   52.8590 C.2   193  THR193      0.2618
     90  O          2.4190   42.6970   53.6390 O.2   193  THR193     -0.2717
     91  CB         0.6560   45.3140   52.5910 C.3   193  THR193      0.1784
     92  OG1        0.0890   44.9540   53.8650 O.3   193  THR193     -0.2211
     93  CG2       -0.4500   45.9090   51.7030 C.3   193  THR193      0.0376
     94  N          3.5940   44.5020   52.8120 N.am  194  ALA194     -0.1965
     95  CA         4.7340   44.3250   53.7530 C.3   194  ALA194      0.1728
     96  C          5.4320   45.6580   53.8790 C.2   194  ALA194      0.2616
     97  O          5.3890   46.4950   52.9660 O.2   194  ALA194     -0.2715
     98  CB         5.6850   43.2420   53.2190 C.3   194  ALA194      0.0334
     99  N          6.1360   45.8010   54.9910 N.am  195  GLY195     -0.1955
    100  CA         7.0420   46.9680   55.1970 C.3   195  GLY195      0.1869
    101  C          8.2920   46.8100   54.3630 C.2   195  GLY195      0.2309
    102  O          8.8490   47.8420   53.9100 O.2   195  GLY195     -0.2863
    103  N          4.1500   55.7780   55.4230 N.3   207  TYR207     -0.1227
    104  CA         3.2930   55.9710   56.5920 C.3   207  TYR207      0.1736
    105  C          3.2680   57.3980   57.0520 C.2   207  TYR207      0.2595
    106  O          4.2930   58.1270   56.8810 O.2   207  TYR207     -0.2718
    107  CB         3.8110   55.1320   57.7500 C.3   207  TYR207      0.0548
    108  CG         3.1580   53.7200   57.7320 C.ar  207  TYR207     -0.0200
    109  CD1        1.8460   53.5180   58.2300 C.ar  207  TYR207     -0.0009
    110  CD2        3.8640   52.6260   57.3410 C.ar  207  TYR207     -0.0009
    111  CE1        1.2280   52.2320   58.2410 C.ar  207  TYR207      0.0417
    112  CE2        3.3230   51.3070   57.3120 C.ar  207  TYR207      0.0417
    113  CZ         2.0090   51.1690   57.7600 C.ar  207  TYR207      0.1957
    114  OH         1.3810   49.9260   57.7550 O.3   207  TYR207     -0.2866
    115  N          2.1890   57.8200   57.6730 N.am  208  PHE208     -0.1962
    116  CA         2.0260   59.1340   58.2780 C.3   208  PHE208      0.1771
    117  C          1.4870   58.9440   59.6750 C.2   208  PHE208      0.2619
    118  O          0.6810   58.0140   59.8800 O.2   208  PHE208     -0.2715
    119  CB         1.0590   60.0020   57.4550 C.3   208  PHE208      0.0574
    120  CG         1.6990   60.4550   56.1810 C.ar  208  PHE208     -0.0200
    121  CD1        1.7730   59.6020   55.0560 C.ar  208  PHE208     -0.0042
    122  CD2        2.3030   61.7400   56.1680 C.ar  208  PHE208     -0.0042
    123  CE1        2.4090   60.0050   53.8760 C.ar  208  PHE208     -0.0003
    124  CE2        2.9450   62.1550   54.9750 C.ar  208  PHE208     -0.0003
    125  CZ         3.0040   61.2600   53.8730 C.ar  208  PHE208     -0.0000
    126  N          1.8750   59.7710   60.5990 N.am  209  HIS209     -0.1973
    127  CA         1.3580   59.6680   61.9950 C.3   209  HIS209      0.1656
    128  C          1.0150   61.0490   62.4920 C.2   209  HIS209      0.2291
    129  O          1.6160   62.0980   62.1170 O.2   209  HIS209     -0.2864
    130  CB         2.3860   59.0300   62.9360 C.3   209  HIS209      0.0771
    131  CG         3.6580   59.7920   63.0010 C.ar  209  HIS209      0.0820
    132  ND1        4.6310   59.6490   62.0420 N.ar  209  HIS209     -0.2267
    133  CD2        4.0600   60.8200   63.7900 C.ar  209  HIS209      0.1154
    134  CE1        5.6400   60.4700   62.2990 C.ar  209  HIS209      0.1986
    135  NE2        5.2990   61.2120   63.3390 N.ar  209  HIS209     -0.2212
    136  N          4.3880   60.1300   73.6400 N.3   217  LEU217     -0.1245
    137  CA         5.2640   59.9710   72.4670 C.3   217  LEU217      0.1561
    138  C          6.7200   60.4180   72.6740 C.2   217  LEU217      0.2260
    139  O          7.6530   59.8990   72.0120 O.2   217  LEU217     -0.2867
    140  CB         4.6410   60.6180   71.2270 C.3   217  LEU217      0.0270
    141  CG         3.3340   59.9330   70.9310 C.3   217  LEU217      0.0019
    142  CD1        2.9060   60.5960   69.6220 C.3   217  LEU217      0.0001
    143  CD2        3.6110   58.4710   70.5930 C.3   217  LEU217      0.0001
    144  N         10.1150   58.3070   70.6060 N.3   222  PHE222     -0.1241
    145  CA         9.6860   58.3600   69.1920 C.3   222  PHE222      0.1605
    146  C          9.6370   59.8320   68.7190 C.2   222  PHE222      0.2264
    147  O         10.0340   60.1500   67.5760 O.2   222  PHE222     -0.2867
    148  CB         8.3390   57.6780   68.8880 C.3   222  PHE222      0.0534
    149  CG         7.8050   58.0420   67.5190 C.ar  222  PHE222     -0.0203
    150  CD1        8.3780   57.4810   66.3720 C.ar  222  PHE222     -0.0042
    151  CD2        6.8020   59.0170   67.3660 C.ar  222  PHE222     -0.0042
    152  CE1        7.9240   57.8350   65.1070 C.ar  222  PHE222     -0.0003
    153  CE2        6.3500   59.3780   66.0970 C.ar  222  PHE222     -0.0003
    154  CZ         6.9080   58.7780   64.9670 C.ar  222  PHE222     -0.0000
    155  N          1.0260   48.6030   70.2190 N.3   320  SER320     -0.1217
    156  CA         2.3710   48.0620   70.0070 C.3   320  SER320      0.1889
    157  C          3.0870   48.0010   71.3780 C.2   320  SER320      0.2288
    158  O          3.0140   48.9080   72.1680 O.2   320  SER320     -0.2866
    159  CB         3.1940   48.9230   69.1330 C.3   320  SER320      0.2089
    160  OG         2.7320   48.6600   67.7690 O.3   320  SER320     -0.2183
    161  N          2.0720   51.2490   73.3420 N.3   331  LEU331     -0.1245
    162  CA         1.6330   52.4280   72.5190 C.3   331  LEU331      0.1561
    163  C          0.2550   52.1410   72.0060 C.2   331  LEU331      0.2260
    164  O          0.0080   51.0920   71.4210 O.2   331  LEU331     -0.2867
    165  CB         2.6070   52.5910   71.3290 C.3   331  LEU331      0.0270
    166  CG         2.0670   53.5760   70.2910 C.3   331  LEU331      0.0019
    167  CD1        2.4420   54.9340   70.7700 C.3   331  LEU331      0.0001
    168  CD2        2.7380   53.2700   68.9360 C.3   331  LEU331      0.0001
    169  N         -2.2660   52.8140   69.4280 N.3   333  ALA333     -0.1245
    170  CA        -2.3390   53.5450   68.1240 C.3   333  ALA333      0.1562
    171  C         -3.6820   53.2570   67.5060 C.2   333  ALA333      0.2260
    172  O         -4.2580   52.1210   67.4650 O.2   333  ALA333     -0.2867
    173  CB        -1.2400   53.0380   67.2270 C.3   333  ALA333      0.0290
    174  N         -5.5750   53.5850   63.6940 N.3   335  TYR335     -0.1241
    175  CA        -5.2300   53.5630   62.2560 C.3   335  TYR335      0.1605
    176  C         -6.4720   53.9910   61.4890 C.2   335  TYR335      0.2264
    177  O         -7.5760   53.4450   61.6570 O.2   335  TYR335     -0.2867
    178  CB        -4.8810   52.0990   61.8820 C.3   335  TYR335      0.0534
    179  CG        -3.5140   51.7140   62.4550 C.ar  335  TYR335     -0.0201
    180  CD1       -3.3770   51.4070   63.7970 C.ar  335  TYR335     -0.0009
    181  CD2       -2.4120   51.7140   61.6320 C.ar  335  TYR335     -0.0009
    182  CE1       -2.1310   51.0870   64.3330 C.ar  335  TYR335      0.0417
    183  CE2       -1.0980   51.4870   62.2330 C.ar  335  TYR335      0.0417
    184  CZ        -1.0430   51.1580   63.5340 C.ar  335  TYR335      0.1957
    185  OH         0.2540   50.9420   64.0970 O.3   335  TYR335     -0.2866
    186  N         -1.6880   58.0950   69.1930 N.3   364  VAL364     -0.1245
    187  CA        -1.2050   58.5080   67.8290 C.3   364  VAL364      0.1561
    188  C         -2.2680   57.9580   66.8990 C.2   364  VAL364      0.2260
    189  O         -2.8860   56.9160   67.1840 O.2   364  VAL364     -0.2867
    190  CB         0.2150   57.9470   67.5690 C.3   364  VAL364      0.0252
    191  CG1        0.2440   56.3880   67.5310 C.3   364  VAL364      0.0019
    192  CG2        0.8120   58.5410   66.2260 C.3   364  VAL364      0.0019
    193  N         -2.3410   56.7140   62.9180 N.3   366  ASN366     -0.1240
    194  CA        -1.4900   56.3700   61.7800 C.3   366  ASN366      0.1653
    195  C         -2.2520   56.1020   60.5500 C.2   366  ASN366      0.2266
    196  O         -3.4340   55.6910   60.5840 O.2   366  ASN366     -0.2867
    197  CB        -0.7240   55.0830   62.1820 C.3   366  ASN366      0.1155
    198  CG         0.2090   55.2930   63.3270 C.2   366  ASN366      0.2627
    199  OD1        0.7080   56.3670   63.5710 O.2   366  ASN366     -0.2716
    200  ND2        0.4310   54.1910   64.1450 N.am  366  ASN366     -0.0877
    201  N          8.9220   57.1230   59.2650 N.3   386  ASP386     -0.1225
    202  CA         9.8380   56.1650   58.7470 C.3   386  ASP386      0.1805
    203  C          8.8730   55.0300   58.4000 C.2   386  ASP386      0.2598
    204  O          7.7750   54.7660   59.0260 O.2   386  ASP386     -0.2718
    205  CB        10.9150   55.7940   59.7660 C.3   386  ASP386      0.1424
    206  CG        11.9010   56.9220   59.9570 C.2   386  ASP386      0.3668
    207  OD1       11.6050   57.8220   60.8320 O.co2 386  ASP386     -0.2456
    208  OD2       12.9540   56.9330   59.2100 O.co2 386  ASP386     -0.2456
    209  N          9.2690   54.4660   57.3250 N.am  387  GLY387     -0.1942
    210  CA         8.5820   53.4310   56.9200 C.3   387  GLY387      0.2014
    211  C          7.5960   53.7340   55.8250 C.2   387  GLY387      0.2639
    212  O          6.9620   54.7970   55.6880 O.2   387  GLY387     -0.2714
    213  N          7.4170   52.6440   55.1330 N.am  388  HIS388     -0.1959
    214  CA         6.5490   52.5560   54.0120 C.3   388  HIS388      0.1787
    215  C          5.7050   51.3190   54.1210 C.2   388  HIS388      0.2620
    216  O          5.9710   50.3970   54.8980 O.2   388  HIS388     -0.2715
    217  CB         7.3600   52.3870   52.7590 C.3   388  HIS388      0.0785
    218  CG         8.3070   53.5480   52.5080 C.ar  388  HIS388      0.0821
    219  ND1        8.0630   54.5410   51.5710 N.ar  388  HIS388     -0.2267
    220  CD2        9.4980   53.8560   53.0810 C.ar  388  HIS388      0.1154
    221  CE1        9.0430   55.4330   51.6120 C.ar  388  HIS388      0.1986
    222  NE2        9.9400   55.0210   52.4860 N.ar  388  HIS388     -0.2212
    223  N          4.6520   51.2680   53.3400 N.am  389  LEU389     -0.1977
    224  CA         3.9140   49.9970   53.1730 C.3   389  LEU389      0.1596
    225  C          3.8690   49.6830   51.6970 C.2   389  LEU389      0.2287
    226  O          3.5540   50.5820   50.9420 O.2   389  LEU389     -0.2864
    227  CB         2.4940   50.1040   53.7060 C.3   389  LEU389      0.0297
    228  CG         1.8150   48.6950   53.7770 C.3   389  LEU389      0.0022
    229  CD1        2.5690   47.7590   54.8120 C.3   389  LEU389      0.0001
    230  CD2        0.3680   48.8050   54.1750 C.3   389  LEU389      0.0001
    231  N         -5.1450   47.7130   54.6260 N.3   410  MET410     -0.1230
    232  CA        -4.6230   46.4080   55.0670 C.3   410  MET410      0.1702
    233  C         -4.2370   46.4030   56.5690 C.2   410  MET410      0.2592
    234  O         -3.4970   47.2740   57.0340 O.2   410  MET410     -0.2718
    235  CB        -3.3640   46.1760   54.1850 C.3   410  MET410      0.0401
    236  CG        -3.8980   45.8290   52.7370 C.3   410  MET410      0.0596
    237  SD        -4.6990   44.2610   52.5450 S.3   410  MET410     -0.1393
    238  CE        -3.3110   43.1790   52.2560 C.3   410  MET410      0.0692
    239  N         -4.8970   45.4570   57.2640 N.am  411  LEU411     -0.1980
    240  CA        -4.8950   45.4970   58.7610 C.3   411  LEU411      0.1596
    241  C         -3.5140   45.0820   59.3070 C.2   411  LEU411      0.2287
    242  O         -2.7300   44.3020   58.6850 O.2   411  LEU411     -0.2864
    243  CB        -5.9710   44.5290   59.2920 C.3   411  LEU411      0.0297
    244  CG        -7.4000   44.8810   58.8730 C.3   411  LEU411      0.0022
    245  CD1       -8.3750   43.8070   59.3830 C.3   411  LEU411      0.0001
    246  CD2       -7.8660   46.3050   59.2490 C.3   411  LEU411      0.0001
@<TRIPOS>BOND
     1   226   225    2
     2   219   221   ar
     3   219   218   ar
     4   221   222   ar
     5   225   224    1
     6    93    91    1
     7    87    88    1
     8    88    91    1
     9    88    89    1
    10   238   237    1
    11   222   220   ar
    12   218   217    1
    13   218   220   ar
    14   237   236    1
    15    91    92    1
    16   236   235    1
    17   217   214    1
    18    94    89   am
    19    94    95    1
    20    89    90    2
    21    97    96    2
    22   224   223    1
    23   224   227    1
    24    98    95    1
    25   223   215   am
    26   227   228    1
    27    95    96    1
    28   228   230    1
    29   228   229    1
    30   125   123   ar
    31   125   124   ar
    32   123   121   ar
    33    96    99   am
    34   102   101    2
    35   214   215    1
    36   214   213    1
    37   215   216    2
    38   235   232    1
    39   101   100    1
    40   231   232    1
    41   124   122   ar
    42    99   100    1
    43   121   120   ar
    44   232   233    1
    45   213   211   am
    46   103   104    1
    47    79    80    1
    48   212   211    2
    49   211   210    1
    50   122   120   ar
    51   120   119    1
    52    80    83    1
    53    80    81    1
    54   233   234    2
    55   233   239   am
    56   104   105    1
    57   104   107    1
    58   106   105    2
    59   210   209    1
    60    83    84    1
    61   105   115   am
    62   239   240    1
    63   112   110   ar
    64   112   113   ar
    65   209   203   am
    66   110   108   ar
    67   119   116    1
    68    81    82    2
    69   115   116    1
    70   108   107    1
    71   108   109   ar
    72    84    85    2
    73    84    86   am
    74   114   113    1
    75   113   111   ar
    76    44    42   ar
    77   109   111   ar
    78   116   117    1
    79   203   202    1
    80   203   204    2
    81   242   241    2
    82   202   201    1
    83   202   205    1
    84   240   243    1
    85   240   241    1
    86    43    42   ar
    87   244   246    1
    88   244   243    1
    89   244   245    1
    90    42    41    1
    91   208   206   ar
    92   117   118    2
    93   117   126   am
    94   205   206    1
    95    12    11    1
    96   206   207   ar
    97    41    38    1
    98   195   196    2
    99   195   194    1
   100   126   127    1
   101    18    17    1
   102    19    17    1
   103    11     9   ar
   104    11    10   ar
   105     9     7   ar
   106    38    37    1
   107    38    39    1
   108   176   177    2
   109   176   175    1
   110   181   183   ar
   111   181   179   ar
   112    78    77    1
   113   194   197    1
   114   194   193    1
   115    37    31   am
   116   178   175    1
   117   178   179    1
   118    17    14    1
   119   127   128    1
   120   127   130    1
   121   132   134   ar
   122   132   131   ar
   123   129   128    2
   124   197   198    1
   125    10     8   ar
   126   183   184   ar
   127   175   174    1
   128    65    66   ar
   129    65    63   ar
   130   134   135   ar
   131    23    22    2
   132    66    64   ar
   133   179   180   ar
   134     7     6   ar
   135    39    40    2
   136    31    30    1
   137    31    32    2
   138   130   131    1
   139    30    33    1
   140    30    29    1
   141    77    76   ar
   142    77    75   ar
   143   131   133   ar
   144    14    13    1
   145    14    15    1
   146   198   199    2
   147   198   200   am
   148    63    61   ar
   149   135   133   ar
   150    76    74   ar
   151    33    34    1
   152     8     6   ar
   153    22    29   am
   154    22    21    1
   155   184   185    1
   156   184   182   ar
   157     6     5    1
   158    64    62   ar
   159    13     3   am
   160    75    73   ar
   161   180   182   ar
   162    20    15   am
   163    20    21    1
   164    15    16    2
   165    21    24    1
   166    61    62   ar
   167    61    60    1
   168    36    34   ar
   169     3     2    1
   170     3     4    2
   171    74    72   ar
   172    34    35   ar
   173     2     5    1
   174     2     1    1
   175    73    72   ar
   176   154   152   ar
   177   154   153   ar
   178   152   150   ar
   179    24    25    1
   180    72    71    1
   181    60    57    1
   182   153   151   ar
   183   192   190    1
   184    25    26    1
   185   150   149   ar
   186    71    68    1
   187    56    57    1
   188    48    47    2
   189   188   189    2
   190   188   187    1
   191    27    26   ar
   192    57    58    1
   193    26    28   ar
   194    52    54   ar
   195    52    50   ar
   196   173   170    1
   197   151   149   ar
   198   172   171    2
   199   171   170    1
   200   149   148    1
   201   191   190    1
   202    54    55   ar
   203   190   187    1
   204   147   146    2
   205    49    50    1
   206    49    46    1
   207   160   159    1
   208   187   186    1
   209    47    46    1
   210    68    67    1
   211    68    69    1
   212    58    59    2
   213    50    51   ar
   214   170   169    1
   215    45    46    1
   216   146   145    1
   217    55    53   ar
   218   148   145    1
   219   168   166    1
   220    69    70    2
   221   159   156    1
   222   145   144    1
   223    51    53   ar
   224   142   141    1
   225   156   155    1
   226   156   157    1
   227   166   167    1
   228   166   165    1
   229   143   141    1
   230   141   140    1
   231   140   137    1
   232   165   162    1
   233   157   158    2
   234   164   163    2
   235   163   162    1
   236   139   138    2
   237   137   138    1
   238   137   136    1
   239   162   161    1
