@<TRIPOS>MOLECULE
tmp/5g28A04.pdb
 69 64 0 0 0
SMALL
GASTEIGER

@<TRIPOS>ATOM
      1  N        -11.7950  -36.0290   10.5500 N.3    22  THR22      -0.1203
      2  CA       -10.7440  -36.9680   10.1850 C.3    22  THR22       0.1994
      3  C        -10.9630  -37.5670    8.7670 C.2    22  THR22       0.2617
      4  O        -10.0330  -37.6540    7.9610 O.2    22  THR22      -0.2717
      5  CB       -10.6280  -38.1210   11.2130 C.3    22  THR22       0.1784
      6  OG1      -10.2880  -37.4640   12.4810 O.3    22  THR22      -0.2211
      7  CG2       -9.4580  -38.9980   10.8510 C.3    22  THR22       0.0376
      8  N        -12.1860  -37.9380    8.4520 N.am   23  MET23      -0.1979
      9  CA       -12.5340  -38.3810    7.1290 C.3    23  MET23       0.1605
     10  C        -12.2710  -37.2810    6.0900 C.2    23  MET23       0.2287
     11  O        -11.7720  -37.5680    4.9730 O.2    23  MET23      -0.2864
     12  CB       -13.9910  -38.8080    7.0570 C.3    23  MET23       0.0413
     13  CG       -14.4220  -39.3930    5.7500 C.3    23  MET23       0.0598
     14  SD       -15.1740  -38.0690    4.7140 S.3    23  MET23      -0.1393
     15  CE       -16.6890  -37.7330    5.6050 C.3    23  MET23       0.0692
     16  N        -10.0220  -34.9740    6.2370 N.3    25  VAL25      -0.1231
     17  CA        -8.5530  -34.9370    5.9980 C.3    25  VAL25       0.1692
     18  C         -8.1720  -35.9840    4.9990 C.2    25  VAL25       0.2593
     19  O         -7.4550  -35.6730    4.0310 O.2    25  VAL25      -0.2718
     20  CB        -7.7470  -35.1230    7.3090 C.3    25  VAL25       0.0266
     21  CG1       -6.2550  -35.1580    7.0500 C.3    25  VAL25       0.0020
     22  CG2       -8.0670  -34.0080    8.2710 C.3    25  VAL25       0.0020
     23  N         -8.6510  -37.1950    5.1900 N.am   26  GLY26      -0.1942
     24  CA        -8.2890  -38.2990    4.3650 C.3    26  GLY26       0.2014
     25  C         -8.7420  -38.1040    2.9230 C.2    26  GLY26       0.2638
     26  O         -7.9740  -38.4170    1.9900 O.2    26  GLY26      -0.2714
     27  N         -9.9640  -37.5970    2.7220 N.am   27  VAL27      -0.1977
     28  CA       -10.4910  -37.4060    1.3700 C.3    27  VAL27       0.1596
     29  C         -9.6450  -36.3460    0.6590 C.2    27  VAL27       0.2287
     30  O         -9.3210  -36.5320   -0.5420 O.2    27  VAL27      -0.2864
     31  CB       -11.9560  -36.9540    1.4170 C.3    27  VAL27       0.0276
     32  CG1      -12.5160  -36.5510    0.0670 C.3    27  VAL27       0.0022
     33  CG2      -12.7970  -38.1630    1.9440 C.3    27  VAL27       0.0022
     34  N         -6.1380  -37.7560   -0.1720 N.3    30  ALA30      -0.1231
     35  CA        -6.2750  -38.7500   -1.2410 C.3    30  ALA30       0.1694
     36  C         -6.4170  -38.0250   -2.5830 C.2    30  ALA30       0.2591
     37  O         -5.7240  -38.3680   -3.5820 O.2    30  ALA30      -0.2718
     38  CB        -7.4300  -39.6560   -1.0580 C.3    30  ALA30       0.0304
     39  N         -7.2760  -37.0190   -2.6260 N.am   31  ALA31      -0.1980
     40  CA        -7.5450  -36.3150   -3.8860 C.3    31  ALA31       0.1597
     41  C         -6.2400  -35.5730   -4.3140 C.2    31  ALA31       0.2287
     42  O         -5.9620  -35.4530   -5.5390 O.2    31  ALA31      -0.2864
     43  CB        -8.6670  -35.3220   -3.7380 C.3    31  ALA31       0.0319
     44  N         -4.1640  -37.7290   -6.5170 N.3    34  PHE34      -0.1241
     45  CA        -4.7730  -37.8150   -7.8050 C.3    34  PHE34       0.1605
     46  C         -4.4430  -36.5810   -8.6720 C.2    34  PHE34       0.2264
     47  O         -4.0230  -36.7380   -9.8690 O.2    34  PHE34      -0.2867
     48  CB        -6.2910  -37.9650   -7.7210 C.3    34  PHE34       0.0534
     49  CG        -6.9970  -37.9650   -9.0810 C.ar   34  PHE34      -0.0203
     50  CD1       -7.0420  -39.1190   -9.8250 C.ar   34  PHE34      -0.0042
     51  CD2       -7.5440  -36.7870   -9.5840 C.ar   34  PHE34      -0.0042
     52  CE1       -7.6560  -39.1310  -11.0510 C.ar   34  PHE34      -0.0003
     53  CE2       -8.1520  -36.7730  -10.8550 C.ar   34  PHE34      -0.0003
     54  CZ        -8.2090  -37.9790  -11.5620 C.ar   34  PHE34      -0.0000
     55  N        -13.2680  -30.7750   -3.6650 N.3   235  VAL235     -0.1245
     56  CA       -12.8700  -32.0700   -4.2400 C.3   235  VAL235      0.1561
     57  C        -13.6880  -32.3450   -5.5220 C.2   235  VAL235      0.2260
     58  O        -13.0800  -32.5720   -6.6110 O.2   235  VAL235     -0.2867
     59  CB       -13.0010  -33.2280   -3.2730 C.3   235  VAL235      0.0252
     60  CG1      -12.6420  -34.5360   -3.9120 C.3   235  VAL235      0.0019
     61  CG2      -12.1630  -32.9570   -1.9470 C.3   235  VAL235      0.0019
     62  N        -12.1810  -32.0570   -9.2910 N.3   239  LEU239     -0.1245
     63  CA       -12.2320  -33.1290  -10.2110 C.3   239  LEU239      0.1561
     64  C        -12.8930  -32.6620  -11.5570 C.2   239  LEU239      0.2260
     65  O        -12.4350  -33.0100  -12.6600 O.2   239  LEU239     -0.2867
     66  CB       -12.9720  -34.3300   -9.6850 C.3   239  LEU239      0.0270
     67  CG       -12.2700  -35.0640   -8.5490 C.3   239  LEU239      0.0019
     68  CD1      -13.1470  -36.1210   -7.8980 C.3   239  LEU239      0.0001
     69  CD2      -10.9940  -35.7150   -9.0540 C.3   239  LEU239      0.0001
@<TRIPOS>BOND
     1    65    64    2
     2    54    52   ar
     3    54    53   ar
     4    64    63    1
     5    52    50   ar
     6    53    51   ar
     7    63    66    1
     8    63    62    1
     9    47    46    2
    10    50    49   ar
    11    66    67    1
    12    51    49   ar
    13    49    48    1
    14    69    67    1
    15    46    45    1
    16    67    68    1
    17    45    48    1
    18    45    44    1
    19    58    57    2
    20    42    41    2
    21    57    56    1
    22    41    40    1
    23    56    55    1
    24    56    59    1
    25    60    59    1
    26    40    43    1
    27    40    39    1
    28    37    36    2
    29    59    61    1
    30    39    36   am
    31    36    35    1
    32    35    38    1
    33    35    34    1
    34    30    29    2
    35    32    31    1
    36    29    28    1
    37    28    31    1
    38    28    27    1
    39    31    33    1
    40    26    25    2
    41    27    25   am
    42    25    24    1
    43    19    18    2
    44    24    23    1
    45    14    15    1
    46    14    13    1
    47    11    10    2
    48    18    23   am
    49    18    17    1
    50    13    12    1
    51    17    16    1
    52    17    20    1
    53    10     9    1
    54    21    20    1
    55    12     9    1
    56     9     8    1
    57    20    22    1
    58     4     3    2
    59     8     3   am
    60     3     2    1
    61     2     1    1
    62     2     5    1
    63     7     5    1
    64     5     6    1
