@<TRIPOS>MOLECULE
tmp/5g2bB00.pdb
 224 215 0 0 0
SMALL
GASTEIGER

@<TRIPOS>ATOM
      1  N         26.7840   25.9380   23.5570 N.3    83  TYR83      -0.1227
      2  CA        27.0960   26.6560   24.8110 C.3    83  TYR83       0.1736
      3  C         26.5740   28.1040   24.8710 C.2    83  TYR83       0.2595
      4  O         25.7760   28.4520   25.7540 O.2    83  TYR83      -0.2718
      5  CB        28.6010   26.6210   25.1210 C.3    83  TYR83       0.0548
      6  CG        28.9400   27.2760   26.4610 C.ar   83  TYR83      -0.0200
      7  CD1       28.5930   26.6590   27.6740 C.ar   83  TYR83      -0.0009
      8  CD2       29.6460   28.4450   26.5200 C.ar   83  TYR83      -0.0009
      9  CE1       28.9380   27.2330   28.9110 C.ar   83  TYR83       0.0417
     10  CE2       29.9700   29.0700   27.7440 C.ar   83  TYR83       0.0417
     11  CZ        29.6340   28.4510   28.9480 C.ar   83  TYR83       0.1957
     12  OH        29.9420   29.0420   30.1550 O.3    83  TYR83      -0.2866
     13  N         26.9270   28.9240   23.8760 N.am   84  HIS84      -0.1975
     14  CA        26.6230   30.3540   23.9310 C.3    84  HIS84       0.1656
     15  C         25.2610   30.6030   23.3530 C.2    84  HIS84       0.2291
     16  O         25.1010   31.3720   22.3780 O.2    84  HIS84      -0.2864
     17  CB        27.6530   31.1610   23.1570 C.3    84  HIS84       0.0771
     18  CG        28.9680   31.2620   23.8370 C.ar   84  HIS84       0.0820
     19  ND1       30.0460   30.5010   23.4840 N.ar   84  HIS84      -0.2267
     20  CD2       29.3790   32.0310   24.8650 C.ar   84  HIS84       0.1154
     21  CE1       31.0630   30.7600   24.2830 C.ar   84  HIS84       0.1986
     22  NE2       30.6940   31.7090   25.1110 N.ar   84  HIS84      -0.2212
     23  N         26.1500   38.2120   25.1890 N.3   125  ASP125     -0.1239
     24  CA        26.6370   37.3070   24.1140 C.3   125  ASP125      0.1674
     25  C         25.7160   37.2190   22.8500 C.2   125  ASP125      0.2266
     26  O         25.8320   36.2880   22.0760 O.2   125  ASP125     -0.2867
     27  CB        26.8240   35.9190   24.6960 C.3   125  ASP125      0.1410
     28  CG        28.2000   35.6970   25.3380 C.2   125  ASP125      0.3668
     29  OD1       29.2840   36.2460   25.0050 O.co2 125  ASP125     -0.2456
     30  OD2       28.1840   34.8810   26.2300 O.co2 125  ASP125     -0.2456
     31  N         26.0390   35.2190   19.2460 N.3   128  HIS128     -0.1241
     32  CA        27.2090   34.3580   19.1910 C.3   128  HIS128      0.1621
     33  C         26.9130   33.1230   18.2600 C.2   128  HIS128      0.2264
     34  O         25.8490   32.4950   18.3230 O.2   128  HIS128     -0.2867
     35  CB        27.5280   33.8540   20.6160 C.3   128  HIS128      0.0745
     36  CG        28.9690   33.5680   20.9000 C.ar  128  HIS128      0.0817
     37  ND1       29.6430   32.4750   20.3810 N.ar  128  HIS128     -0.2268
     38  CD2       29.8540   34.1980   21.7080 C.ar  128  HIS128      0.1154
     39  CE1       30.8820   32.4530   20.8330 C.ar  128  HIS128      0.1986
     40  NE2       31.0320   33.4740   21.6630 N.ar  128  HIS128     -0.2212
     41  N         35.0320   31.8950   18.5500 N.3   132  ASN132     -0.1240
     42  CA        35.6470   32.9540   19.3800 C.3   132  ASN132      0.1653
     43  C         36.3160   34.0210   18.5430 C.2   132  ASN132      0.2266
     44  O         36.3820   33.8970   17.2980 O.2   132  ASN132     -0.2867
     45  CB        36.5920   32.3400   20.4040 C.3   132  ASN132      0.1155
     46  CG        37.8160   31.6970   19.8250 C.2   132  ASN132      0.2627
     47  OD1       38.2270   31.9000   18.6860 O.2   132  ASN132     -0.2716
     48  ND2       38.4460   30.9200   20.6480 N.am  132  ASN132     -0.0877
     49  N         34.1500   41.3690   29.0040 N.3   198  THR198     -0.1218
     50  CA        34.0060   39.9040   28.9550 C.3   198  THR198      0.1862
     51  C         34.9650   39.2570   27.9870 C.2   198  THR198      0.2287
     52  O         35.1190   38.0500   28.0230 O.2   198  THR198     -0.2866
     53  CB        32.5470   39.4210   28.7220 C.3   198  THR198      0.1770
     54  OG1       32.0410   39.8990   27.4600 O.3   198  THR198     -0.2211
     55  CG2       31.6580   40.0060   29.8180 C.3   198  THR198      0.0375
     56  N         37.9630   37.5970   26.9030 N.3   200  MET200     -0.1245
     57  CA        38.9700   36.8800   27.7300 C.3   200  MET200      0.1570
     58  C         40.3980   37.2060   27.3860 C.2   200  MET200      0.2261
     59  O         41.2620   36.9150   28.1900 O.2   200  MET200     -0.2867
     60  CB        38.7700   35.3560   27.7870 C.3   200  MET200      0.0387
     61  CG        37.6570   34.9200   28.7380 C.3   200  MET200      0.0595
     62  SD        37.8500   35.3970   30.4830 S.3   200  MET200     -0.1393
     63  CE        39.1840   34.2820   30.9440 C.3   200  MET200      0.0692
     64  N         30.2940   34.8530   34.0250 N.3   237  ASP237     -0.1225
     65  CA        30.6990   34.2320   32.7720 C.3   237  ASP237      0.1805
     66  C         31.5770   33.0240   32.9950 C.2   237  ASP237      0.2597
     67  O         31.4910   32.0490   32.2350 O.2   237  ASP237     -0.2718
     68  CB        31.5340   35.2250   31.9360 C.3   237  ASP237      0.1424
     69  CG        31.1630   35.2320   30.4680 C.2   237  ASP237      0.3668
     70  OD1       30.1870   34.5590   30.1310 O.co2 237  ASP237     -0.2456
     71  OD2       31.8080   36.0000   29.6840 O.co2 237  ASP237     -0.2456
     72  N         32.4670   33.0920   34.0010 N.am  238  ILE238     -0.1980
     73  CA        33.2950   31.9370   34.2940 C.3   238  ILE238      0.1595
     74  C         32.8180   31.1560   35.5410 C.2   238  ILE238      0.2287
     75  O         33.5730   30.3870   36.1470 O.2   238  ILE238     -0.2864
     76  CB        34.7960   32.2380   34.3230 C.3   238  ILE238      0.0276
     77  CG1       35.1720   33.2700   35.3690 C.3   238  ILE238      0.0022
     78  CG2       35.3000   32.6850   32.9610 C.3   238  ILE238      0.0022
     79  CD1       36.6850   33.2850   35.6160 C.3   238  ILE238      0.0001
     80  N         30.7420   28.6020   35.7730 N.3   240  ASN240     -0.1225
     81  CA        30.3150   27.1850   35.6430 C.3   240  ASN240      0.1785
     82  C         31.0060   26.2580   36.6300 C.2   240  ASN240      0.2597
     83  O         30.3900   25.2980   37.1590 O.2   240  ASN240     -0.2718
     84  CB        30.5830   26.5890   34.2430 C.3   240  ASN240      0.1169
     85  CG        29.8030   27.2430   33.1380 C.2   240  ASN240      0.2627
     86  OD1       30.2190   27.1570   31.9660 O.2   240  ASN240     -0.2716
     87  ND2       28.7020   27.9050   33.4640 N.am  240  ASN240     -0.0877
     88  N         32.2700   26.5410   36.9240 N.am  241  VAL241     -0.1980
     89  CA        32.9910   25.6520   37.8090 C.3   241  VAL241      0.1595
     90  C         32.6470   25.8960   39.2620 C.2   241  VAL241      0.2287
     91  O         33.2290   25.2330   40.0770 O.2   241  VAL241     -0.2864
     92  CB        34.4880   25.7710   37.6420 C.3   241  VAL241      0.0276
     93  CG1       34.9110   25.2470   36.2590 C.3   241  VAL241      0.0022
     94  CG2       34.9200   27.2230   37.8540 C.3   241  VAL241      0.0022
     95  N         27.8800   21.5720   37.0650 N.3   248  SER248     -0.1217
     96  CA        29.1520   21.9610   36.4940 C.3   248  SER248      0.1889
     97  C         29.6260   21.0280   35.3240 C.2   248  SER248      0.2288
     98  O         30.1980   21.4740   34.3100 O.2   248  SER248     -0.2866
     99  CB        30.2120   22.0200   37.5920 C.3   248  SER248      0.2089
    100  OG        31.3760   22.6550   37.1280 O.3   248  SER248     -0.2183
    101  N         30.4130   21.8620   31.3270 N.3   252  ALA252     -0.1245
    102  CA        31.6910   21.4620   30.7820 C.3   252  ALA252      0.1562
    103  C         31.5040   20.6890   29.4310 C.2   252  ALA252      0.2260
    104  O         32.2240   20.9450   28.4410 O.2   252  ALA252     -0.2867
    105  CB        32.4360   20.6020   31.7920 C.3   252  ALA252      0.0290
    106  N         30.4010   23.3840   26.6790 N.3   255  VAL255     -0.1231
    107  CA        31.3970   24.3220   26.1640 C.3   255  VAL255      0.1692
    108  C         32.4840   23.5580   25.4420 C.2   255  VAL255      0.2592
    109  O         33.0780   24.0540   24.4610 O.2   255  VAL255     -0.2718
    110  CB        31.9780   25.2540   27.2310 C.3   255  VAL255      0.0266
    111  CG1       32.8620   24.5350   28.1990 C.3   255  VAL255      0.0020
    112  CG2       32.8090   26.3700   26.5700 C.3   255  VAL255      0.0020
    113  N         32.7550   22.3490   25.9130 N.am  256  THR256     -0.1953
    114  CA        33.6980   21.4670   25.2410 C.3   256  THR256      0.1897
    115  C         33.2660   21.1190   23.7970 C.2   256  THR256      0.2313
    116  O         34.0720   21.1100   22.8440 O.2   256  THR256     -0.2863
    117  CB        33.9670   20.1760   26.0930 C.3   256  THR256      0.1794
    118  OG1       34.4850   20.5180   27.4000 O.3   256  THR256     -0.2208
    119  CG2       35.0300   19.3310   25.4450 C.3   256  THR256      0.0378
    120  N         33.6020   24.2300   21.6130 N.3   259  PHE259     -0.1227
    121  CA        34.9990   24.5100   21.1930 C.3   259  PHE259      0.1736
    122  C         35.4520   23.4790   20.1180 C.2   259  PHE259      0.2595
    123  O         36.1290   23.8200   19.1390 O.2   259  PHE259     -0.2718
    124  CB        35.9540   24.4250   22.3870 C.3   259  PHE259      0.0547
    125  CG        35.9250   25.6240   23.2810 C.ar  259  PHE259     -0.0202
    126  CD1       34.8310   26.5110   23.2990 C.ar  259  PHE259     -0.0042
    127  CD2       37.0060   25.8820   24.0920 C.ar  259  PHE259     -0.0042
    128  CE1       34.8200   27.6150   24.1280 C.ar  259  PHE259     -0.0003
    129  CE2       37.0180   27.0110   24.9060 C.ar  259  PHE259     -0.0003
    130  CZ        35.9320   27.8710   24.9110 C.ar  259  PHE259     -0.0000
    131  N         35.0440   22.2200   20.2920 N.am  260  TYR260     -0.1976
    132  CA        35.3940   21.2170   19.2620 C.3   260  TYR260      0.1639
    133  C         34.8340   21.5020   17.8510 C.2   260  TYR260      0.2290
    134  O         35.4690   21.1660   16.8270 O.2   260  TYR260     -0.2864
    135  CB        35.0070   19.8280   19.7670 C.3   260  TYR260      0.0560
    136  CG        35.8640   19.2390   20.8770 C.ar  260  TYR260     -0.0198
    137  CD1       37.2020   19.5510   21.0250 C.ar  260  TYR260     -0.0009
    138  CD2       35.3170   18.2930   21.7650 C.ar  260  TYR260     -0.0009
    139  CE1       37.9640   18.9800   22.0180 C.ar  260  TYR260      0.0417
    140  CE2       36.0850   17.7310   22.7730 C.ar  260  TYR260      0.0417
    141  CZ        37.4030   18.0840   22.8670 C.ar  260  TYR260      0.1957
    142  OH        38.1720   17.5340   23.8280 O.3   260  TYR260     -0.2866
    143  N         45.0780   22.7290   20.5370 N.3   275  PRO275     -0.2102
    144  CA        44.6930   21.4690   21.2000 C.3   275  PRO275      0.1504
    145  C         43.3510   21.4130   21.9070 C.2   275  PRO275      0.2576
    146  O         42.6240   20.4210   21.7650 O.2   275  PRO275     -0.2718
    147  CB        45.8480   21.2480   22.2050 C.3   275  PRO275      0.0282
    148  CG        47.0090   21.8670   21.5150 C.3   275  PRO275      0.0208
    149  CD        46.4520   23.1330   20.9300 C.3   275  PRO275      0.0893
    150  N         43.0260   22.4480   22.6710 N.am  276  MET276     -0.1966
    151  CA        41.7750   22.5320   23.4130 C.3   276  MET276      0.1736
    152  C         40.5540   22.4700   22.4820 C.2   276  MET276      0.2616
    153  O         39.4680   22.1300   22.9100 O.2   276  MET276     -0.2715
    154  CB        41.7670   23.8560   24.1930 C.3   276  MET276      0.0427
    155  CG        40.6010   24.1290   25.1460 C.3   276  MET276      0.0599
    156  SD        40.6910   25.7950   25.8990 S.3   276  MET276     -0.1393
    157  CE        40.1580   25.5200   27.5960 C.3   276  MET276      0.0692
    158  N         40.7370   22.8440   21.2210 N.am  277  PHE277     -0.1974
    159  CA        39.6370   22.8890   20.2600 C.3   277  PHE277      0.1639
    160  C         39.6490   21.6600   19.3440 C.2   277  PHE277      0.2290
    161  O         38.8000   21.5580   18.4700 O.2   277  PHE277     -0.2864
    162  CB        39.6610   24.2220   19.4460 C.3   277  PHE277      0.0560
    163  CG        39.4770   25.4720   20.2900 C.ar  277  PHE277     -0.0200
    164  CD1       40.5760   26.0130   20.9980 C.ar  277  PHE277     -0.0042
    165  CD2       38.2560   26.1280   20.3590 C.ar  277  PHE277     -0.0042
    166  CE1       40.4370   27.1750   21.7530 C.ar  277  PHE277     -0.0003
    167  CE2       38.0990   27.2800   21.1480 C.ar  277  PHE277     -0.0003
    168  CZ        39.1990   27.8130   21.8260 C.ar  277  PHE277     -0.0000
    169  N         40.9010   13.9630   24.3920 N.3   283  MET283     -0.1230
    170  CA        41.3270   14.2950   25.7470 C.3   283  MET283      0.1702
    171  C         40.1210   14.3510   26.6440 C.2   283  MET283      0.2592
    172  O         39.0320   14.6910   26.2070 O.2   283  MET283     -0.2718
    173  CB        42.1030   15.6060   25.7760 C.3   283  MET283      0.0401
    174  CG        43.5690   15.3960   25.4770 C.3   283  MET283      0.0596
    175  SD        44.3810   14.6620   26.9090 S.3   283  MET283     -0.1393
    176  CE        44.5800   16.1090   27.9640 C.3   283  MET283      0.0692
    177  N         40.3070   13.9770   27.9040 N.am  284  GLU284     -0.1966
    178  CA        39.1530   13.7560   28.7850 C.3   284  GLU284      0.1733
    179  C         38.5940   15.0960   29.2530 C.2   284  GLU284      0.2616
    180  O         39.3460   16.0480   29.4460 O.2   284  GLU284     -0.2715
    181  CB        39.5170   12.8570   29.9790 C.3   284  GLU284      0.0429
    182  CG        39.3590   11.3660   29.6610 C.3   284  GLU284      0.1163
    183  CD        40.2970   10.4730   30.4580 C.2   284  GLU284      0.3649
    184  OE1       41.5370   10.6820   30.4210 O.co2 284  GLU284     -0.2457
    185  OE2       39.7890    9.5550   31.1240 O.co2 284  GLU284     -0.2457
    186  N         37.2760   15.1380   29.4030 N.am  285  LEU285     -0.1977
    187  CA        36.5690   16.2620   29.9750 C.3   285  LEU285      0.1596
    188  C         37.2330   16.6900   31.3010 C.2   285  LEU285      0.2287
    189  O         37.5450   17.8490   31.4890 O.2   285  LEU285     -0.2864
    190  CB        35.1370   15.8380   30.2180 C.3   285  LEU285      0.0297
    191  CG        34.1220   16.9300   30.5260 C.3   285  LEU285      0.0022
    192  CD1       33.7720   17.7530   29.2840 C.3   285  LEU285      0.0001
    193  CD2       32.8870   16.2920   31.1170 C.3   285  LEU285      0.0001
    194  N         40.5800   18.6610   31.2100 N.3   288  GLY288     -0.1210
    195  CA        40.3610   20.0220   30.7550 C.3   288  GLY288      0.1956
    196  C         39.8650   20.9390   31.8670 C.2   288  GLY288      0.2611
    197  O         40.3880   22.0020   32.0500 O.2   288  GLY288     -0.2717
    198  N         38.8400   20.4770   32.5650 N.am  289  GLN289     -0.1979
    199  CA        38.2170   21.1980   33.6520 C.3   289  GLN289      0.1601
    200  C         39.1910   21.4710   34.7770 C.2   289  GLN289      0.2287
    201  O         39.2880   22.5950   35.2390 O.2   289  GLN289     -0.2864
    202  CB        37.0480   20.4270   34.2000 C.3   289  GLN289      0.0394
    203  CG        35.8720   20.3690   33.2580 C.3   289  GLN289      0.0908
    204  CD        35.3500   21.7550   32.9620 C.2   289  GLN289      0.2608
    205  OE1       34.7470   22.4040   33.8190 O.2   289  GLN289     -0.2717
    206  NE2       35.6020   22.2230   31.7490 N.am  289  GLN289     -0.0878
    207  N         41.5700   24.2300   33.4540 N.3   292  PHE292     -0.1241
    208  CA        40.9040   25.5360   33.4220 C.3   292  PHE292      0.1605
    209  C         40.7290   26.0580   34.8890 C.2   292  PHE292      0.2264
    210  O         40.9060   27.2520   35.1550 O.2   292  PHE292     -0.2867
    211  CB        39.5640   25.4200   32.6660 C.3   292  PHE292      0.0534
    212  CG        38.7300   26.6600   32.7060 C.ar  292  PHE292     -0.0203
    213  CD1       38.9690   27.7100   31.8080 C.ar  292  PHE292     -0.0042
    214  CD2       37.6850   26.7720   33.6220 C.ar  292  PHE292     -0.0042
    215  CE1       38.1660   28.8580   31.8370 C.ar  292  PHE292     -0.0003
    216  CE2       36.8660   27.9130   33.6560 C.ar  292  PHE292     -0.0003
    217  CZ        37.1120   28.9600   32.7680 C.ar  292  PHE292     -0.0000
    218  N         42.9130   29.3620   35.2870 N.3   296  VAL296     -0.1245
    219  CA        41.9800   30.4950   35.1030 C.3   296  VAL296      0.1561
    220  C         41.0210   30.7110   36.2840 C.2   296  VAL296      0.2260
    221  O         41.0790   31.7390   36.9100 O.2   296  VAL296     -0.2867
    222  CB        41.2080   30.3780   33.7690 C.3   296  VAL296      0.0252
    223  CG1       40.2770   31.5650   33.5440 C.3   296  VAL296      0.0019
    224  CG2       42.2120   30.3130   32.6160 C.3   296  VAL296      0.0019
@<TRIPOS>BOND
     1   134   133    2
     2    44    43    2
     3   133   132    1
     4    33    34    2
     5    33    32    1
     6   161   160    2
     7    43    42    1
     8    41    42    1
     9    47    46    2
    10   123   122    2
    11    32    31    1
    12    32    35    1
    13   132   135    1
    14   132   131    1
    15   160   159    1
    16    42    45    1
    17   162   159    1
    18   162   163    1
    19   135   136    1
    20    46    45    1
    21    46    48   am
    22   122   131   am
    23   122   121    1
    24   159   158    1
    25   163   165   ar
    26   163   164   ar
    27   165   167   ar
    28    37    39   ar
    29    37    36   ar
    30   143   149    1
    31   143   144    1
    32    35    36    1
    33    39    40   ar
    34   136   137   ar
    35   136   138   ar
    36    36    38   ar
    37   149   148    1
    38   164   166   ar
    39   137   139   ar
    40   167   168   ar
    41   121   120    1
    42   121   124    1
    43   144   145    1
    44   144   147    1
    45   158   152   am
    46   148   147    1
    47    40    38   ar
    48   166   168   ar
    49   146   145    2
    50   138   140   ar
    51   145   150   am
    52   139   141   ar
    53    26    25    2
    54    16    15    2
    55   124   125    1
    56   152   153    2
    57   152   151    1
    58   150   151    1
    59   140   141   ar
    60   116   115    2
    61    25    24    1
    62   141   142    1
    63    17    18    1
    64    17    14    1
    65   125   126   ar
    66   125   127   ar
    67   126   128   ar
    68    15    14    1
    69   151   154    1
    70    19    18   ar
    71    19    21   ar
    72     1     2    1
    73   115   114    1
    74    18    20   ar
    75    13    14    1
    76    13     3   am
    77   127   129   ar
    78    24    27    1
    79    24    23    1
    80   128   130   ar
    81   154   155    1
    82    21    22   ar
    83   169   170    1
    84   109   108    2
    85    27    28    1
    86     2     3    1
    87     2     5    1
    88    20    22   ar
    89     3     4    2
    90   129   130   ar
    91    29    28   ar
    92     5     6    1
    93   155   156    1
    94   114   113    1
    95   114   117    1
    96    28    30   ar
    97   108   113   am
    98   108   107    1
    99   119   117    1
   100   174   173    1
   101   174   175    1
   102   170   173    1
   103   170   171    1
   104   156   157    1
   105   117   118    1
   106   107   106    1
   107   107   110    1
   108   172   171    2
   109     6     8   ar
   110     6     7   ar
   111     8    10   ar
   112   112   110    1
   113   171   177   am
   114    56    57    1
   115   175   176    1
   116   110   111    1
   117    58    57    1
   118    58    59    2
   119    54    53    1
   120     7     9   ar
   121    57    60    1
   122    10    11   ar
   123    60    61    1
   124   177   178    1
   125    51    52    2
   126    51    50    1
   127   104   103    2
   128    53    50    1
   129    53    55    1
   130    61    62    1
   131   178   179    1
   132   178   181    1
   133     9    11   ar
   134    11    12    1
   135    50    49    1
   136   179   186   am
   137   179   180    2
   138   192   191    1
   139   186   187    1
   140   103   102    1
   141   182   181    1
   142   182   183    1
   143    71    69   ar
   144   187   190    1
   145   187   188    1
   146    70    69   ar
   147   190   191    1
   148   184   183   ar
   149   183   185   ar
   150    69    68    1
   151    62    63    1
   152   191   193    1
   153   195   194    1
   154   195   196    1
   155   102   101    1
   156   102   105    1
   157   188   189    2
   158   206   204   am
   159   213   215   ar
   160   213   212   ar
   161   215   217   ar
   162   196   197    2
   163   196   198   am
   164    68    65    1
   165    86    85    2
   166    67    66    2
   167   198   199    1
   168   224   222    1
   169   211   212    1
   170   211   208    1
   171   212   214   ar
   172   217   216   ar
   173    65    66    1
   174    65    64    1
   175    78    76    1
   176   204   203    1
   177   204   205    2
   178    66    72   am
   179    85    87   am
   180    85    84    1
   181   203   202    1
   182   208   207    1
   183   208   209    1
   184   223   222    1
   185   214   216   ar
   186   199   202    1
   187   199   200    1
   188   222   219    1
   189    72    73    1
   190    84    81    1
   191    73    76    1
   192    73    74    1
   193    98    97    2
   194    76    77    1
   195   200   201    2
   196   209   210    2
   197   219   218    1
   198   219   220    1
   199    97    96    1
   200    77    79    1
   201    74    75    2
   202    81    80    1
   203    81    82    1
   204    93    92    1
   205   220   221    2
   206    96    95    1
   207    96    99    1
   208    82    88   am
   209    82    83    2
   210    88    89    1
   211   100    99    1
   212    92    89    1
   213    92    94    1
   214    89    90    1
   215    90    91    2
