@<TRIPOS>MOLECULE
tmp/5g2gB00.pdb
 155 146 0 0 0
SMALL
GASTEIGER

@<TRIPOS>ATOM
      1  N          3.2760  -13.2370  -38.3990 N.3    14  TYR14      -0.1241
      2  CA         3.8980  -14.5540  -38.5020 C.3    14  TYR14       0.1605
      3  C          2.8480  -15.6670  -38.4900 C.2    14  TYR14       0.2264
      4  O          2.8520  -16.5600  -39.3600 O.2    14  TYR14      -0.2867
      5  CB         4.9100  -14.7350  -37.3590 C.3    14  TYR14       0.0534
      6  CG         5.4400  -16.1440  -37.2550 C.ar   14  TYR14      -0.0201
      7  CD1        6.5800  -16.5360  -37.9580 C.ar   14  TYR14      -0.0009
      8  CD2        4.7980  -17.0880  -36.4620 C.ar   14  TYR14      -0.0009
      9  CE1        7.0560  -17.8650  -37.8790 C.ar   14  TYR14       0.0417
     10  CE2        5.2730  -18.3940  -36.3610 C.ar   14  TYR14       0.0417
     11  CZ         6.4130  -18.7730  -37.0650 C.ar   14  TYR14       0.1957
     12  OH         6.8610  -20.0910  -36.9660 O.3    14  TYR14      -0.2866
     13  N          2.1030  -18.4640  -41.4290 N.3    18  VAL18      -0.1245
     14  CA         2.0890  -19.9020  -41.1750 C.3    18  VAL18       0.1561
     15  C          0.7670  -20.5140  -41.6360 C.2    18  VAL18       0.2260
     16  O          0.7500  -21.5810  -42.2650 O.2    18  VAL18      -0.2867
     17  CB         2.3670  -20.1880  -39.6800 C.3    18  VAL18       0.0252
     18  CG1        2.0690  -21.6540  -39.3590 C.3    18  VAL18       0.0019
     19  CG2        3.8290  -19.8330  -39.3210 C.3    18  VAL18       0.0019
     20  N         12.7420  -25.6130  -31.8470 N.3    38  ASP38      -0.1239
     21  CA        11.3480  -25.9790  -32.0990 C.3    38  ASP38       0.1674
     22  C         11.2820  -27.4860  -32.3710 C.2    38  ASP38       0.2266
     23  O         11.6370  -27.9440  -33.4410 O.2    38  ASP38      -0.2867
     24  CB        10.8000  -25.1390  -33.2890 C.3    38  ASP38       0.1410
     25  CG         9.3510  -25.4980  -33.6840 C.2    38  ASP38       0.3668
     26  OD1        8.8030  -26.4970  -33.1730 O.co2  38  ASP38      -0.2456
     27  OD2        8.7670  -24.7840  -34.5410 O.co2  38  ASP38      -0.2456
     28  N         13.2980  -26.3410  -42.6620 N.3    54  PHE54      -0.1227
     29  CA        12.5000  -26.7350  -41.5120 C.3    54  PHE54       0.1736
     30  C         11.0340  -26.3970  -41.7460 C.2    54  PHE54       0.2595
     31  O         10.1490  -27.2430  -41.5300 O.2    54  PHE54      -0.2718
     32  CB        13.0690  -26.0660  -40.2620 C.3    54  PHE54       0.0547
     33  CG        12.2170  -26.2380  -39.0380 C.ar   54  PHE54      -0.0202
     34  CD1       12.2150  -27.4350  -38.3440 C.ar   54  PHE54      -0.0042
     35  CD2       11.4110  -25.2150  -38.6000 C.ar   54  PHE54      -0.0042
     36  CE1       11.4280  -27.5930  -37.2150 C.ar   54  PHE54      -0.0003
     37  CE2       10.6240  -25.3680  -37.4580 C.ar   54  PHE54      -0.0003
     38  CZ        10.6230  -26.5450  -36.7880 C.ar   54  PHE54      -0.0000
     39  N         10.7600  -25.1850  -42.2610 N.am   55  TYR55      -0.1976
     40  CA         9.3720  -24.8220  -42.5470 C.3    55  TYR55       0.1639
     41  C          8.8140  -25.5840  -43.7530 C.2    55  TYR55       0.2290
     42  O          7.6260  -25.9240  -43.7610 O.2    55  TYR55      -0.2864
     43  CB         9.2470  -23.3080  -42.7420 C.3    55  TYR55       0.0560
     44  CG         9.2340  -22.5770  -41.3900 C.ar   55  TYR55      -0.0198
     45  CD1        8.0470  -22.4170  -40.6730 C.ar   55  TYR55      -0.0009
     46  CD2       10.4000  -22.0870  -40.8310 C.ar   55  TYR55      -0.0009
     47  CE1        8.0200  -21.7680  -39.4270 C.ar   55  TYR55       0.0417
     48  CE2       10.3940  -21.4310  -39.5600 C.ar   55  TYR55       0.0417
     49  CZ         9.1880  -21.2720  -38.8790 C.ar   55  TYR55       0.1957
     50  OH         9.1260  -20.6450  -37.6600 O.3    55  TYR55      -0.2866
     51  N          9.5180  -28.6960  -44.4490 N.3    57  GLN57      -0.1231
     52  CA         9.1330  -30.0000  -43.9250 C.3    57  GLN57       0.1698
     53  C          7.8730  -29.8990  -43.0820 C.2    57  GLN57       0.2593
     54  O          7.0170  -30.7870  -43.1300 O.2    57  GLN57      -0.2718
     55  CB        10.2700  -30.6020  -43.1010 C.3    57  GLN57       0.0381
     56  CG         9.8950  -31.8950  -42.4060 C.3    57  GLN57       0.0905
     57  CD        10.3050  -31.9060  -40.9460 C.2    57  GLN57       0.2608
     58  OE1        9.5200  -31.5510  -40.0600 O.2    57  GLN57      -0.2717
     59  NE2       11.5450  -32.3060  -40.6860 N.am   57  GLN57      -0.0878
     60  N          7.7180  -28.8170  -42.3400 N.am   58  GLY58      -0.1942
     61  CA         6.5590  -28.7080  -41.4690 C.3    58  GLY58       0.2014
     62  C          5.2610  -28.3510  -42.1670 C.2    58  GLY58       0.2638
     63  O          4.1880  -28.8350  -41.7970 O.2    58  GLY58      -0.2714
     64  N          5.3430  -27.4900  -43.1770 N.am   59  LEU59      -0.1977
     65  CA         4.1710  -26.8910  -43.7850 C.3    59  LEU59       0.1596
     66  C          4.0080  -27.2680  -45.2480 C.2    59  LEU59       0.2287
     67  O          2.9930  -26.9050  -45.8540 O.2    59  LEU59      -0.2864
     68  CB         4.2370  -25.3610  -43.6640 C.3    59  LEU59       0.0297
     69  CG         4.4500  -24.7520  -42.2850 C.3    59  LEU59       0.0022
     70  CD1        4.6960  -23.2510  -42.4000 C.3    59  LEU59       0.0001
     71  CD2        3.2540  -25.0560  -41.4080 C.3    59  LEU59       0.0001
     72  N         -1.6860  -27.4600  -43.3460 N.3    64  VAL64      -0.1245
     73  CA        -1.5260  -27.0380  -41.9640 C.3    64  VAL64       0.1561
     74  C         -2.2600  -25.7270  -41.7480 C.2    64  VAL64       0.2260
     75  O         -2.1600  -24.8000  -42.5600 O.2    64  VAL64      -0.2867
     76  CB        -0.0360  -26.8850  -41.6210 C.3    64  VAL64       0.0252
     77  CG1        0.1180  -26.2160  -40.2840 C.3    64  VAL64       0.0019
     78  CG2        0.6580  -28.2420  -41.6560 C.3    64  VAL64       0.0019
     79  N         -0.9910  -20.3960  -29.4990 N.3    84  PHE84      -0.1241
     80  CA        -1.7440  -20.6740  -30.7090 C.3    84  PHE84       0.1605
     81  C         -1.9750  -22.1670  -30.8150 C.2    84  PHE84       0.2264
     82  O         -1.4820  -22.9610  -30.0060 O.2    84  PHE84      -0.2867
     83  CB        -1.0460  -20.1040  -31.9510 C.3    84  PHE84       0.0534
     84  CG         0.3610  -20.6240  -32.2040 C.ar   84  PHE84      -0.0203
     85  CD1        1.4450  -20.1200  -31.5080 C.ar   84  PHE84      -0.0042
     86  CD2        0.5890  -21.5590  -33.2360 C.ar   84  PHE84      -0.0042
     87  CE1        2.7280  -20.5860  -31.7560 C.ar   84  PHE84      -0.0003
     88  CE2        1.8510  -22.0130  -33.4990 C.ar   84  PHE84      -0.0003
     89  CZ         2.9280  -21.5290  -32.7640 C.ar   84  PHE84      -0.0000
     90  N         -2.2690  -25.3660  -33.8610 N.3    86  VAL86      -0.1245
     91  CA        -1.9670  -25.7840  -35.2190 C.3    86  VAL86       0.1561
     92  C         -2.7830  -27.0310  -35.4770 C.2    86  VAL86       0.2260
     93  O         -2.8660  -27.9070  -34.6130 O.2    86  VAL86      -0.2867
     94  CB        -0.4650  -26.0640  -35.4170 C.3    86  VAL86       0.0252
     95  CG1       -0.2060  -26.5490  -36.8370 C.3    86  VAL86       0.0019
     96  CG2        0.3470  -24.8020  -35.1350 C.3    86  VAL86       0.0019
     97  N         -3.5380  -30.2050  -38.2550 N.3    88  MET88      -0.1245
     98  CA        -2.8680  -30.9070  -39.3420 C.3    88  MET88       0.1570
     99  C         -3.3320  -32.3490  -39.3010 C.2    88  MET88       0.2261
    100  O         -4.0260  -32.7560  -38.3760 O.2    88  MET88      -0.2867
    101  CB        -1.3440  -30.7780  -39.2210 C.3    88  MET88       0.0387
    102  CG        -0.6800  -31.6660  -38.1910 C.3    88  MET88       0.0595
    103  SD        -0.5050  -30.8870  -36.5790 S.3    88  MET88      -0.1393
    104  CE        -1.9700  -31.4870  -35.7780 C.3    88  MET88       0.0692
    105  N         -2.4480  -29.2740  -32.2110 N.3    97  LEU97      -0.1245
    106  CA        -1.2970  -29.1450  -31.3320 C.3    97  LEU97       0.1561
    107  C         -1.2950  -27.7410  -30.7620 C.2    97  LEU97       0.2260
    108  O         -1.3130  -26.7700  -31.5150 O.2    97  LEU97      -0.2867
    109  CB         0.0080  -29.4130  -32.0830 C.3    97  LEU97       0.0270
    110  CG         1.2990  -29.2690  -31.2700 C.3    97  LEU97       0.0019
    111  CD1        1.4660  -30.4460  -30.3000 C.3    97  LEU97       0.0001
    112  CD2        2.5140  -29.1490  -32.1890 C.3    97  LEU97       0.0001
    113  N          0.5900  -24.6930  -28.9380 N.3    99  VAL99      -0.1245
    114  CA         1.9760  -24.2450  -28.9740 C.3    99  VAL99       0.1561
    115  C          2.0430  -22.8580  -28.3510 C.2    99  VAL99       0.2260
    116  O          1.0720  -22.1000  -28.3910 O.2    99  VAL99      -0.2867
    117  CB         2.5150  -24.1950  -30.4270 C.3    99  VAL99       0.0252
    118  CG1        3.9990  -23.8130  -30.4530 C.3    99  VAL99       0.0019
    119  CG2        2.2930  -25.5440  -31.1200 C.3    99  VAL99       0.0019
    120  N          4.9040  -19.7240  -28.8620 N.3   101  ASP101     -0.1239
    121  CA         6.1310  -19.2360  -29.4810 C.3   101  ASP101      0.1674
    122  C          6.6390  -18.0340  -28.6970 C.2   101  ASP101      0.2266
    123  O          5.8830  -17.0960  -28.4330 O.2   101  ASP101     -0.2867
    124  CB         5.9230  -18.7960  -30.9430 C.3   101  ASP101      0.1410
    125  CG         6.0560  -19.9270  -31.9240 C.2   101  ASP101      0.3668
    126  OD1        6.4140  -21.0510  -31.5330 O.co2 101  ASP101     -0.2456
    127  OD2        5.8330  -19.6650  -33.1130 O.co2 101  ASP101     -0.2456
    128  N         13.5190  -17.7910  -32.2320 N.3   114  LYS114     -0.1245
    129  CA        12.1970  -18.3320  -31.9460 C.3   114  LYS114      0.1561
    130  C         12.3640  -19.5830  -31.0960 C.2   114  LYS114      0.2260
    131  O         13.2170  -20.4280  -31.3890 O.2   114  LYS114     -0.2867
    132  CB        11.4230  -18.6760  -33.2340 C.3   114  LYS114      0.0271
    133  CG         9.9580  -19.1070  -32.9230 C.3   114  LYS114      0.0035
    134  CD         9.2900  -19.8460  -34.1100 C.3   114  LYS114      0.0206
    135  CE         9.5160  -21.3460  -34.0410 C.3   114  LYS114      0.1093
    136  NZ         8.9020  -22.0260  -35.2470 N.3   114  LYS114     -0.1314
    137  N          9.8270  -22.5450  -29.6090 N.3   116  ALA116     -0.1245
    138  CA         8.4770  -23.1010  -29.7100 C.3   116  ALA116      0.1562
    139  C          8.3190  -24.1160  -28.5730 C.2   116  ALA116      0.2260
    140  O          8.9560  -25.1730  -28.5890 O.2   116  ALA116     -0.2867
    141  CB         8.2440  -23.7740  -31.0560 C.3   116  ALA116      0.0290
    142  N          6.2300  -26.8630  -26.8560 N.3   118  TRP118     -0.1241
    143  CA         5.2030  -27.8670  -27.0740 C.3   118  TRP118      0.1605
    144  C          5.8440  -29.2430  -26.9440 C.2   118  TRP118      0.2264
    145  O          7.0630  -29.3950  -27.1010 O.2   118  TRP118     -0.2867
    146  CB         4.5540  -27.6970  -28.4750 C.3   118  TRP118      0.0550
    147  CG         5.4860  -27.9500  -29.6350 C.ar  118  TRP118      0.0003
    148  CD1        6.2330  -27.0190  -30.3320 C.ar  118  TRP118      0.0946
    149  CD2        5.7330  -29.2100  -30.2720 C.ar  118  TRP118      0.0152
    150  NE1        6.9460  -27.6370  -31.3380 N.ar  118  TRP118     -0.2442
    151  CE2        6.6510  -28.9800  -31.3290 C.ar  118  TRP118      0.0810
    152  CE3        5.2790  -30.5140  -30.0500 C.ar  118  TRP118      0.0012
    153  CZ2        7.1200  -30.0020  -32.1490 C.ar  118  TRP118      0.0191
    154  CZ3        5.7430  -31.5330  -30.8800 C.ar  118  TRP118      0.0001
    155  CH2        6.6520  -31.2650  -31.9170 C.ar  118  TRP118      0.0015
@<TRIPOS>BOND
     1    67    66    2
     2    66    65    1
     3    51    52    1
     4    52    55    1
     5    52    53    1
     6    65    68    1
     7    65    64    1
     8    42    41    2
     9    41    40    1
    10    68    69    1
    11    72    73    1
    12    64    62   am
    13    54    53    2
    14    55    56    1
    15    53    60   am
    16    43    40    1
    17    43    44    1
    18    28    29    1
    19    75    74    2
    20    40    39    1
    21    56    57    1
    22    70    69    1
    23    60    61    1
    24    69    71    1
    25    16    15    2
    26    39    30   am
    27    62    63    2
    28    62    61    1
    29    73    74    1
    30    73    76    1
    31    30    31    2
    32    30    29    1
    33    78    76    1
    34    15    14    1
    35    76    77    1
    36    29    32    1
    37    13    14    1
    38    44    46   ar
    39    44    45   ar
    40    14    17    1
    41    57    59   am
    42    57    58    2
    43    46    48   ar
    44    45    47   ar
    45    32    33    1
    46    17    18    1
    47    17    19    1
    48    48    49   ar
    49    47    49   ar
    50     4     3    2
    51    98    99    1
    52    98   101    1
    53    98    97    1
    54    99   100    2
    55   101   102    1
    56    33    35   ar
    57    33    34   ar
    58    49    50    1
    59    35    37   ar
    60     2     3    1
    61     2     1    1
    62     2     5    1
    63    34    36   ar
    64   102   103    1
    65     7     9   ar
    66     7     6   ar
    67     9    11   ar
    68    37    38   ar
    69     5     6    1
    70     6     8   ar
    71    36    38   ar
    72    11    12    1
    73    11    10   ar
    74    95    94    1
    75   103   104    1
    76     8    10   ar
    77    92    91    1
    78    92    93    2
    79    94    91    1
    80    94    96    1
    81   136   135    1
    82    91    90    1
    83    27    25   ar
    84   134   135    1
    85   134   133    1
    86    25    24    1
    87    25    26   ar
    88    88    86   ar
    89    88    89   ar
    90    23    22    2
    91    24    21    1
    92    86    84   ar
    93   132   133    1
    94   132   129    1
    95   127   125   ar
    96    89    87   ar
    97    22    21    1
    98   128   129    1
    99   105   106    1
   100    84    83    1
   101    84    85   ar
   102   112   110    1
   103   153   155   ar
   104   153   151   ar
   105    21    20    1
   106   109   106    1
   107   109   110    1
   108    83    80    1
   109   129   130    1
   110   125   126   ar
   111   125   124    1
   112   155   154   ar
   113    87    85   ar
   114   108   107    2
   115   131   130    2
   116   150   151   ar
   117   150   148   ar
   118   106   107    1
   119   151   149   ar
   120   110   111    1
   121   119   117    1
   122   141   138    1
   123   124   121    1
   124   154   152   ar
   125    81    80    1
   126    81    82    2
   127    80    79    1
   128   118   117    1
   129   117   114    1
   130   148   147   ar
   131   149   152   ar
   132   149   147   ar
   133   138   137    1
   134   138   139    1
   135   147   146    1
   136   121   120    1
   137   121   122    1
   138   114   113    1
   139   114   115    1
   140   122   123    2
   141   140   139    2
   142   146   143    1
   143   116   115    2
   144   145   144    2
   145   143   144    1
   146   143   142    1
