@<TRIPOS>MOLECULE
tmp/5g2nA00.pdb
 202 188 0 0 0
SMALL
GASTEIGER

@<TRIPOS>ATOM
      1  N         58.7930   10.9030   40.9820 N.3   556  LYS556     -0.1245
      2  CA        58.1060   11.3980   39.8210 C.3   556  LYS556      0.1561
      3  C         56.6360   11.3470   40.0060 C.2   556  LYS556      0.2260
      4  O         55.9170   11.9560   39.2140 O.2   556  LYS556     -0.2867
      5  CB        58.5000   10.6000   38.5760 C.3   556  LYS556      0.0271
      6  CG        59.8350   11.0690   37.9560 C.3   556  LYS556      0.0035
      7  CD        60.6990    9.9400   37.3870 C.3   556  LYS556      0.0206
      8  CE        62.0580    9.8710   38.1330 C.3   556  LYS556      0.1093
      9  NZ        62.8910    8.6980   37.7140 N.3   556  LYS556     -0.1314
     10  N         53.1670   12.3710   41.7540 N.3   558  LYS558     -0.1245
     11  CA        52.6180   13.5430   42.3950 C.3   558  LYS558      0.1561
     12  C         51.0780   13.4460   42.4410 C.2   558  LYS558      0.2260
     13  O         50.4890   12.4030   42.2180 O.2   558  LYS558     -0.2867
     14  CB        53.1820   14.8470   41.7500 C.3   558  LYS558      0.0271
     15  CG        53.0970   14.9580   40.2270 C.3   558  LYS558      0.0035
     16  CD        52.5610   16.3180   39.7050 C.3   558  LYS558      0.0206
     17  CE        51.4500   16.0880   38.6330 C.3   558  LYS558      0.1093
     18  NZ        50.7580   17.2470   37.9310 N.3   558  LYS558     -0.1314
     19  N         47.8410   15.6190   40.9900 N.3   560  MET560     -0.1245
     20  CA        47.6410   16.6460   39.9750 C.3   560  MET560      0.1570
     21  C         46.8340   17.7700   40.5570 C.2   560  MET560      0.2261
     22  O         46.0760   17.5710   41.5040 O.2   560  MET560     -0.2867
     23  CB        46.9440   16.0940   38.7330 C.3   560  MET560      0.0387
     24  CG        47.8690   15.5820   37.6360 C.3   560  MET560      0.0595
     25  SD        47.0630   14.4070   36.5280 S.3   560  MET560     -0.1393
     26  CE        47.1870   12.9410   37.5570 C.3   560  MET560      0.0692
     27  N         49.1640   11.0860   39.8950 N.3   568  TRP568     -0.1241
     28  CA        50.1000   10.8660   38.8050 C.3   568  TRP568      0.1605
     29  C         51.1200    9.8820   39.2650 C.2   568  TRP568      0.2264
     30  O         51.8950   10.2100   40.0840 O.2   568  TRP568     -0.2867
     31  CB        50.8120   12.1610   38.5090 C.3   568  TRP568      0.0550
     32  CG        51.8120   12.0960   37.4370 C.ar  568  TRP568      0.0003
     33  CD1       53.1260   11.7900   37.5580 C.ar  568  TRP568      0.0946
     34  CD2       51.5860   12.4050   36.0880 C.ar  568  TRP568      0.0152
     35  NE1       53.7330   11.8740   36.3520 N.ar  568  TRP568     -0.2442
     36  CE2       52.8140   12.2670   35.4230 C.ar  568  TRP568      0.0810
     37  CE3       50.4580   12.7930   35.3710 C.ar  568  TRP568      0.0012
     38  CZ2       52.9580   12.4910   34.0570 C.ar  568  TRP568      0.0191
     39  CZ3       50.5770   13.0260   34.0210 C.ar  568  TRP568      0.0001
     40  CH2       51.8250   12.8690   33.3610 C.ar  568  TRP568      0.0015
     41  N         54.2970    7.1090   38.1750 N.3   570  GLU570     -0.1245
     42  CA        55.2180    6.4930   37.2240 C.3   570  GLU570      0.1567
     43  C         55.8650    5.2700   37.8390 C.2   570  GLU570      0.2260
     44  O         56.3180    5.3360   38.9750 O.2   570  GLU570     -0.2867
     45  CB        56.2380    7.5240   36.7480 C.3   570  GLU570      0.0388
     46  CG        55.6530    8.5230   35.7430 C.3   570  GLU570      0.1160
     47  CD        56.4950    9.7620   35.6060 C.2   570  GLU570      0.3649
     48  OE1       57.7020    9.6670   35.8190 O.co2 570  GLU570     -0.2457
     49  OE2       55.9930   10.8500   35.3050 O.co2 570  GLU570     -0.2457
     50  N         47.4470    7.3190   35.7500 N.3   587  ILE587     -0.1245
     51  CA        46.6210    8.1610   36.5720 C.3   587  ILE587      0.1561
     52  C         45.5820    7.3200   37.2790 C.2   587  ILE587      0.2260
     53  O         44.7900    6.7210   36.6200 O.2   587  ILE587     -0.2867
     54  CB        45.9410    9.2300   35.7310 C.3   587  ILE587      0.0252
     55  CG1       46.9790   10.1260   35.0770 C.3   587  ILE587      0.0019
     56  CG2       44.9780   10.0250   36.5930 C.3   587  ILE587      0.0019
     57  CD1       46.4430   10.9130   33.9140 C.3   587  ILE587      0.0001
     58  N         42.2940    7.8450   39.7060 N.3   589  LYS589     -0.1245
     59  CA        41.3500    8.9590   39.7720 C.3   589  LYS589      0.1561
     60  C         40.1080    8.4180   40.4000 C.2   589  LYS589      0.2260
     61  O         39.5660    7.4180   39.9300 O.2   589  LYS589     -0.2867
     62  CB        41.0710    9.4750   38.3630 C.3   589  LYS589      0.0271
     63  CG        39.8410   10.3660   38.1400 C.3   589  LYS589      0.0035
     64  CD        40.0710   11.8370   38.4820 C.3   589  LYS589      0.0206
     65  CE        40.1750   12.7750   37.2760 C.3   589  LYS589      0.1093
     66  NZ        38.8530   13.0470   36.7140 N.3   589  LYS589     -0.1314
     67  N         35.0770   10.3360   38.6170 N.3   592  ASP592     -0.1239
     68  CA        34.4370   10.2640   37.2690 C.3   592  ASP592      0.1674
     69  C         33.8190    8.8560   37.0640 C.2   592  ASP592      0.2266
     70  O         34.3010    7.8310   37.5510 O.2   592  ASP592     -0.2867
     71  CB        35.4840   10.5960   36.1470 C.3   592  ASP592      0.1410
     72  CG        35.8400   12.1020   36.0560 C.2   592  ASP592      0.3668
     73  OD1       35.3880   12.9330   36.8460 O.co2 592  ASP592     -0.2456
     74  OD2       36.6290   12.5120   35.2060 O.co2 592  ASP592     -0.2456
     75  N         34.1610    6.2410   35.0420 N.3   594  LEU594     -0.1245
     76  CA        35.0690    5.8110   33.9550 C.3   594  LEU594      0.1561
     77  C         34.4810    4.7210   33.0790 C.2   594  LEU594      0.2260
     78  O         34.9580    4.4870   31.9900 O.2   594  LEU594     -0.2867
     79  CB        36.4180    5.3430   34.5090 C.3   594  LEU594      0.0270
     80  CG        37.5960    6.3130   34.7120 C.3   594  LEU594      0.0019
     81  CD1       37.2100    7.7750   34.7110 C.3   594  LEU594      0.0001
     82  CD2       38.3650    5.9310   35.9770 C.3   594  LEU594      0.0001
     83  N         33.7650    6.5810   29.9620 N.3   597  ASP597     -0.1239
     84  CA        35.0610    6.7940   29.3080 C.3   597  ASP597      0.1674
     85  C         35.4960    5.4900   28.5900 C.2   597  ASP597      0.2266
     86  O         35.7890    5.5510   27.4120 O.2   597  ASP597     -0.2867
     87  CB        36.1130    7.2910   30.3210 C.3   597  ASP597      0.1410
     88  CG        35.8820    8.7720   30.7930 C.2   597  ASP597      0.3668
     89  OD1       35.0970    9.0550   31.7220 O.co2 597  ASP597     -0.2456
     90  OD2       36.5340    9.6890   30.2610 O.co2 597  ASP597     -0.2456
     91  N         43.6210    6.1000   24.4650 N.3   623  TYR623     -0.1241
     92  CA        44.3210    5.6420   25.6410 C.3   623  TYR623      0.1605
     93  C         43.6110    4.5670   26.4820 C.2   623  TYR623      0.2264
     94  O         42.4290    4.3430   26.3610 O.2   623  TYR623     -0.2867
     95  CB        44.7370    6.8540   26.4870 C.3   623  TYR623      0.0534
     96  CG        43.6000    7.7360   26.8930 C.ar  623  TYR623     -0.0201
     97  CD1       42.8790    7.4630   28.0520 C.ar  623  TYR623     -0.0009
     98  CD2       43.2250    8.8390   26.1180 C.ar  623  TYR623     -0.0009
     99  CE1       41.8550    8.2660   28.4300 C.ar  623  TYR623      0.0417
    100  CE2       42.1690    9.6420   26.4910 C.ar  623  TYR623      0.0417
    101  CZ        41.4960    9.3560   27.6620 C.ar  623  TYR623      0.1957
    102  OH        40.4330   10.1410   28.0950 O.3   623  TYR623     -0.2866
    103  N         42.2800    2.8020   29.8640 N.3   625  CYS625     -0.1235
    104  CA        41.3670    3.3430   30.8300 C.3   625  CYS625      0.1677
    105  C         40.4960    2.2250   31.2930 C.2   625  CYS625      0.2270
    106  O         39.8890    1.5710   30.4690 O.2   625  CYS625     -0.2867
    107  CB        40.4610    4.3850   30.2100 C.3   625  CYS625      0.0956
    108  SG        39.2410    5.0070   31.4000 S.3   625  CYS625     -0.0801
    109  N         43.8730    5.3520   34.3160 N.3   635  ILE635     -0.1231
    110  CA        43.9730    5.9620   33.0000 C.3   635  ILE635      0.1693
    111  C         45.4250    5.9560   32.5660 C.2   635  ILE635      0.2595
    112  O         46.3240    6.2900   33.3810 O.2   635  ILE635     -0.2718
    113  CB        43.5190    7.4150   33.0950 C.3   635  ILE635      0.0266
    114  CG1       42.1320    7.4810   33.7970 C.3   635  ILE635      0.0019
    115  CG2       43.6060    8.0610   31.7250 C.3   635  ILE635      0.0020
    116  CD1       41.7180    8.8890   34.1390 C.3   635  ILE635      0.0001
    117  N         45.6370    5.5710   31.3130 N.am  636  GLU636     -0.1920
    118  CA        46.9820    5.5060   30.7200 C.3   636  GLU636      0.1949
    119  C         47.5150    6.8950   30.5560 C.2   636  GLU636      0.2659
    120  O         46.7740    7.7350   30.1130 O.2   636  GLU636     -0.2711
    121  CB        46.9190    4.8580   29.3140 C.2   636  GLU636      0.0111
    122  CG        48.2600    4.6530   28.6060 C.2   636  GLU636      0.0838
    123  CD        48.2070    4.1200   27.1580 C.2   636  GLU636      0.3877
    124  OE1       47.1700    3.6270   26.5720 O.co2 636  GLU636     -0.2406
    125  OE2       49.3170    4.2160   26.5710 O.co2 636  GLU636     -0.2406
    126  N         48.7800    7.1250   30.9020 N.am  637  ILE637     -0.1961
    127  CA        49.5070    8.3910   30.6170 C.3   637  ILE637      0.1727
    128  C         50.3570    8.3340   29.3280 C.2   637  ILE637      0.2616
    129  O         51.3230    7.5910   29.2430 O.2   637  ILE637     -0.2715
    130  CB        50.4900    8.7150   31.7650 C.3   637  ILE637      0.0290
    131  CG1       49.7080    8.9030   33.0540 C.3   637  ILE637      0.0022
    132  CG2       51.3930    9.9190   31.4130 C.3   637  ILE637      0.0023
    133  CD1       50.5290    9.3140   34.2470 C.3   637  ILE637      0.0001
    134  N         50.0200    9.1750   28.3670 N.am  638  VAL638     -0.1977
    135  CA        50.7560    9.3000   27.1260 C.3   638  VAL638      0.1596
    136  C         51.9410   10.1660   27.3410 C.2   638  VAL638      0.2287
    137  O         51.8220   11.2480   27.8810 O.2   638  VAL638     -0.2864
    138  CB        49.9000    9.9420   26.0170 C.3   638  VAL638      0.0276
    139  CG1       50.7300   10.3090   24.7920 C.3   638  VAL638      0.0022
    140  CG2       48.7900    8.9880   25.6000 C.3   638  VAL638      0.0022
    141  N         53.1050   14.7480   26.3880 N.3   641  ALA641     -0.1231
    142  CA        51.7400   15.1620   26.0820 C.3   641  ALA641      0.1694
    143  C         51.4290   16.3110   26.9830 C.2   641  ALA641      0.2593
    144  O         51.8310   16.3100   28.1680 O.2   641  ALA641     -0.2718
    145  CB        50.7920   14.0290   26.3620 C.3   641  ALA641      0.0304
    146  N         50.7390   17.3040   26.4400 N.am  642  THR642     -0.1939
    147  CA        50.3390   18.4690   27.2270 C.3   642  THR642      0.2028
    148  C         49.0260   19.0830   26.7510 C.2   642  THR642      0.2642
    149  O         48.6450   18.9640   25.5700 O.2   642  THR642     -0.2714
    150  CB        51.4130   19.5500   27.1910 C.3   642  THR642      0.1808
    151  OG1       50.9920   20.6780   27.9460 O.3   642  THR642     -0.2208
    152  CG2       51.6110   20.0230   25.8430 C.3   642  THR642      0.0379
    153  N         48.3840   19.7940   27.6640 N.am  643  THR643     -0.1950
    154  CA        47.0720   20.3230   27.4480 C.3   643  THR643      0.1897
    155  C         47.1590   21.5280   26.6130 C.2   643  THR643      0.2313
    156  O         48.0200   22.3330   26.8310 O.2   643  THR643     -0.2863
    157  CB        46.4430   20.7710   28.7760 C.3   643  THR643      0.1794
    158  OG1       46.5570   19.7250   29.7230 O.3   643  THR643     -0.2208
    159  CG2       45.0050   20.9950   28.6320 C.3   643  THR643      0.0378
    160  N         41.1350   22.4390   28.4430 N.3   700  ASP700     -0.1239
    161  CA        41.6050   21.4770   29.4580 C.3   700  ASP700      0.1674
    162  C         41.6130   20.0730   28.9500 C.2   700  ASP700      0.2266
    163  O         42.5080   19.3080   29.2730 O.2   700  ASP700     -0.2867
    164  CB        40.6750   21.4320   30.6730 C.3   700  ASP700      0.1410
    165  CG        40.9790   22.4790   31.6910 C.2   700  ASP700      0.3668
    166  OD1       42.0260   23.1520   31.5840 O.co2 700  ASP700     -0.2456
    167  OD2       40.1440   22.6220   32.6220 O.co2 700  ASP700     -0.2456
    168  N         44.5920   17.5060   24.4420 N.3   703  MET703     -0.1245
    169  CA        46.0130   17.5110   24.6280 C.3   703  MET703      0.1570
    170  C         46.6640   17.3500   23.2720 C.2   703  MET703      0.2261
    171  O         45.9860   17.1040   22.2490 O.2   703  MET703     -0.2867
    172  CB        46.3960   16.3430   25.5110 C.3   703  MET703      0.0387
    173  CG        45.5560   16.1940   26.7740 C.3   703  MET703      0.0595
    174  SD        46.3530   15.1080   27.9710 S.3   703  MET703     -0.1393
    175  CE        47.7930   16.1180   28.3320 C.3   703  MET703      0.0692
    176  N         44.8540   14.7750   20.7800 N.3   711  PHE711     -0.1241
    177  CA        43.8540   13.8740   21.2680 C.3   711  PHE711      0.1605
    178  C         43.0120   14.4840   22.3540 C.2   711  PHE711      0.2264
    179  O         43.5160   15.3110   23.1090 O.2   711  PHE711     -0.2867
    180  CB        44.4780   12.5850   21.7460 C.3   711  PHE711      0.0534
    181  CG        45.4850   12.7400   22.8380 C.ar  711  PHE711     -0.0203
    182  CD1       46.7860   13.1740   22.5780 C.ar  711  PHE711     -0.0042
    183  CD2       45.1910   12.3550   24.1420 C.ar  711  PHE711     -0.0042
    184  CE1       47.7510   13.2620   23.6250 C.ar  711  PHE711     -0.0003
    185  CE2       46.1400   12.4470   25.1880 C.ar  711  PHE711     -0.0003
    186  CZ        47.4140   12.9000   24.9380 C.ar  711  PHE711     -0.0000
    187  N         40.5630   14.0820   25.8070 N.3   713  ILE713     -0.1231
    188  CA        40.4750   13.2800   27.0580 C.3   713  ILE713      0.1692
    189  C         39.1570   13.4890   27.8160 C.2   713  ILE713      0.2592
    190  O         38.4390   14.4290   27.5400 O.2   713  ILE713     -0.2718
    191  CB        41.6830   13.5490   28.0000 C.3   713  ILE713      0.0266
    192  CG1       41.7830   15.0070   28.4610 C.3   713  ILE713      0.0019
    193  CG2       42.9940   13.2270   27.3110 C.3   713  ILE713      0.0020
    194  CD1       42.5890   15.1800   29.7590 C.3   713  ILE713      0.0001
    195  N         38.8410   12.5740   28.7280 N.am  714  ASP714     -0.1974
    196  CA        37.8110   12.7630   29.7710 C.3   714  ASP714      0.1709
    197  C         36.3930   12.9640   29.2350 C.2   714  ASP714      0.2293
    198  O         35.9190   14.0680   29.1160 O.2   714  ASP714     -0.2864
    199  CB        38.2100   13.9270   30.6950 C.3   714  ASP714      0.1436
    200  CG        37.2570   14.1140   31.8990 C.2   714  ASP714      0.3671
    201  OD1       36.3320   13.2680   32.1100 O.co2 714  ASP714     -0.2456
    202  OD2       37.4430   15.1310   32.6170 O.co2 714  ASP714     -0.2456
@<TRIPOS>BOND
     1   176   177    1
     2   177   180    1
     3   177   178    1
     4   180   181    1
     5   171   170    2
     6   178   179    2
     7   182   181   ar
     8   182   184   ar
     9   181   183   ar
    10   170   169    1
    11   184   186   ar
    12   183   185   ar
    13   168   169    1
    14    91    92    1
    15   169   172    1
    16   139   138    1
    17   186   185   ar
    18   172   173    1
    19   149   148    2
    20   140   138    1
    21    92    93    1
    22    92    95    1
    23   187   188    1
    24   152   150    1
    25   138   135    1
    26   142   145    1
    27   142   141    1
    28   142   143    1
    29    98   100   ar
    30    98    96   ar
    31    94    93    2
    32   146   143   am
    33   146   147    1
    34    95    96    1
    35   100   101   ar
    36   125   123   ar
    37   124   123   ar
    38   155   156    2
    39   155   154    1
    40   148   147    1
    41   148   153   am
    42   173   174    1
    43    96    97   ar
    44   143   144    2
    45   188   189    1
    46   188   191    1
    47   135   136    1
    48   135   134    1
    49   123   122    1
    50   150   147    1
    51   150   151    1
    52   193   191    1
    53   136   137    2
    54    86    85    2
    55   154   153    1
    56   154   157    1
    57   190   189    2
    58   101   102    1
    59   101    99   ar
    60   189   195   am
    61   174   175    1
    62   191   192    1
    63    97    99   ar
    64   134   128   am
    65   160   161    1
    66   192   194    1
    67    85    84    1
    68   122   121    2
    69   159   157    1
    70   195   196    1
    71   157   158    1
    72   162   163    2
    73   162   161    1
    74   198   197    2
    75   197   196    1
    76   129   128    2
    77    84    83    1
    78    84    87    1
    79   121   118    1
    80   128   127    1
    81   161   164    1
    82   196   199    1
    83   103   104    1
    84   120   119    2
    85   107   104    1
    86   107   108    1
    87    90    88   ar
    88    87    88    1
    89   106   105    2
    90   119   118    1
    91   119   126   am
    92   127   126    1
    93   127   130    1
    94   164   165    1
    95   199   200    1
    96   118   117    1
    97    88    89   ar
    98   104   105    1
    99   117   111   am
   100   132   130    1
   101   166   165   ar
   102   165   167   ar
   103   115   113    1
   104   130   131    1
   105   200   201   ar
   106   200   202   ar
   107    78    77    2
   108   111   110    1
   109   111   112    2
   110   110   113    1
   111   110   109    1
   112   131   133    1
   113    77    76    1
   114   113   114    1
   115    40    39   ar
   116    40    38   ar
   117   114   116    1
   118    57    55    1
   119    76    79    1
   120    76    75    1
   121    39    37   ar
   122    38    36   ar
   123    79    80    1
   124    81    80    1
   125    80    82    1
   126    55    54    1
   127    74    72   ar
   128    49    47   ar
   129    37    34   ar
   130    36    34   ar
   131    36    35   ar
   132    47    46    1
   133    47    48   ar
   134    54    51    1
   135    54    56    1
   136    46    45    1
   137    50    51    1
   138    72    71    1
   139    72    73   ar
   140    34    32   ar
   141    71    68    1
   142    35    33   ar
   143    25    26    1
   144    25    24    1
   145    51    52    1
   146    53    52    2
   147    66    65    1
   148    45    42    1
   149    69    68    1
   150    69    70    2
   151    42    43    1
   152    42    41    1
   153    68    67    1
   154    65    64    1
   155     7     6    1
   156     7     8    1
   157    32    33   ar
   158    32    31    1
   159    24    23    1
   160     9     8    1
   161    43    44    2
   162    18    17    1
   163     6     5    1
   164    63    62    1
   165    63    64    1
   166    62    59    1
   167    31    28    1
   168     5     2    1
   169    17    16    1
   170    23    20    1
   171    28    29    1
   172    28    27    1
   173     4     3    2
   174    29    30    2
   175    16    15    1
   176    58    59    1
   177    59    60    1
   178     2     3    1
   179     2     1    1
   180    61    60    2
   181    20    21    1
   182    20    19    1
   183    15    14    1
   184    21    22    2
   185    14    11    1
   186    10    11    1
   187    13    12    2
   188    11    12    1
