@<TRIPOS>MOLECULE
tmp/5g2tA00.pdb
 107 100 0 0 0
SMALL
GASTEIGER

@<TRIPOS>ATOM
      1  N          6.9900   23.7290  -64.7950 N.3    75  ASN75      -0.1240
      2  CA         5.9520   23.5210  -65.7930 C.3    75  ASN75       0.1653
      3  C          6.1990   24.2340  -67.1300 C.2    75  ASN75       0.2266
      4  O          5.3750   24.0950  -68.0280 O.2    75  ASN75      -0.2867
      5  CB         4.5590   23.9120  -65.2680 C.3    75  ASN75       0.1155
      6  CG         3.9070   22.8170  -64.4600 C.2    75  ASN75       0.2627
      7  OD1        4.3720   21.6640  -64.4110 O.2    75  ASN75      -0.2716
      8  ND2        2.8250   23.1810  -63.7910 N.am   75  ASN75      -0.0877
      9  N         -4.4030   13.1520  -69.8420 N.3   107  LYS107     -0.1245
     10  CA        -3.3670   14.1920  -69.7110 C.3   107  LYS107      0.1561
     11  C         -1.9580   13.6150  -69.9610 C.2   107  LYS107      0.2260
     12  O         -1.6140   12.5800  -69.4150 O.2   107  LYS107     -0.2867
     13  CB        -3.4280   14.7840  -68.2960 C.3   107  LYS107      0.0271
     14  CG        -2.4860   15.9390  -68.0350 C.3   107  LYS107      0.0035
     15  CD        -2.8390   16.6650  -66.7420 C.3   107  LYS107      0.0206
     16  CE        -1.7090   17.5990  -66.3670 C.3   107  LYS107      0.1093
     17  NZ        -1.9690   18.4440  -65.1650 N.3   107  LYS107     -0.1314
     18  N          1.6450   15.8940  -70.4210 N.3   109  HIS109     -0.1241
     19  CA         2.4370   16.8190  -69.5720 C.3   109  HIS109      0.1621
     20  C          3.6690   16.1280  -69.0160 C.2   109  HIS109      0.2264
     21  O          4.0600   16.3210  -67.8510 O.2   109  HIS109     -0.2867
     22  CB         1.5290   17.3720  -68.4650 C.3   109  HIS109      0.0745
     23  CG         1.8160   18.7810  -68.0600 C.ar  109  HIS109      0.0817
     24  ND1        1.5340   19.2470  -66.7960 N.ar  109  HIS109     -0.2268
     25  CD2        2.2730   19.8460  -68.7590 C.ar  109  HIS109      0.1154
     26  CE1        1.8070   20.5370  -66.7280 C.ar  109  HIS109      0.1986
     27  NE2        2.2850   20.9190  -67.8960 N.ar  109  HIS109     -0.2212
     28  N        -10.9080   21.0540  -67.9420 N.3   137  ASP137     -0.1239
     29  CA       -10.3900   19.9210  -67.1260 C.3   137  ASP137      0.1674
     30  C        -11.4560   18.8070  -67.0130 C.2   137  ASP137      0.2266
     31  O        -11.2080   17.6390  -67.3470 O.2   137  ASP137     -0.2867
     32  CB       -10.0660   20.3820  -65.6930 C.3   137  ASP137      0.1410
     33  CG        -8.9480   21.3950  -65.6270 C.2   137  ASP137      0.3668
     34  OD1       -8.2610   21.6380  -66.6630 O.co2 137  ASP137     -0.2456
     35  OD2       -8.7360   21.9490  -64.5220 O.co2 137  ASP137     -0.2456
     36  N        -12.5270   17.4110  -70.5760 N.3   140  LEU140     -0.1245
     37  CA       -11.5170   16.4620  -71.0750 C.3   140  LEU140      0.1561
     38  C        -11.6130   15.0840  -70.4100 C.2   140  LEU140      0.2260
     39  O        -11.4820   14.0790  -71.1010 O.2   140  LEU140     -0.2867
     40  CB       -10.0840   17.0100  -70.9330 C.3   140  LEU140      0.0270
     41  CG        -9.7520   18.1290  -71.9500 C.3   140  LEU140      0.0019
     42  CD1       -8.5400   18.9310  -71.4840 C.3   140  LEU140      0.0001
     43  CD2       -9.5760   17.6160  -73.3820 C.3   140  LEU140      0.0001
     44  N         -7.7320   14.4230  -65.2260 N.3   167  GLN167     -0.1245
     45  CA        -7.4690   15.7690  -64.7100 C.3   167  GLN167      0.1566
     46  C         -8.0190   16.0110  -63.3250 C.2   167  GLN167      0.2260
     47  O         -7.3410   16.5830  -62.5050 O.2   167  GLN167     -0.2867
     48  CB        -8.0950   16.8220  -65.6060 C.3   167  GLN167      0.0367
     49  CG        -7.5750   16.8200  -67.0350 C.3   167  GLN167      0.0905
     50  CD        -6.5460   17.8770  -67.3030 C.2   167  GLN167      0.2608
     51  OE1       -6.1820   18.6670  -66.4190 O.2   167  GLN167     -0.2717
     52  NE2       -6.0290   17.8790  -68.5280 N.am  167  GLN167     -0.0878
     53  N         -8.1590   18.3940  -60.4460 N.3   170  HIS170     -0.1241
     54  CA        -7.5830   19.6620  -60.9660 C.3   170  HIS170      0.1621
     55  C         -8.5530   20.8570  -61.2650 C.2   170  HIS170      0.2264
     56  O         -8.1200   22.0030  -61.2220 O.2   170  HIS170     -0.2867
     57  CB        -6.7430   19.3450  -62.2270 C.3   170  HIS170      0.0745
     58  CG        -5.8910   20.4700  -62.7040 C.ar  170  HIS170      0.0817
     59  ND1       -6.3620   21.4630  -63.5310 N.ar  170  HIS170     -0.2268
     60  CD2       -4.5900   20.7420  -62.5010 C.ar  170  HIS170      0.1154
     61  CE1       -5.3900   22.3090  -63.8080 C.ar  170  HIS170      0.1986
     62  NE2       -4.3010   21.8910  -63.1980 N.ar  170  HIS170     -0.2212
     63  N         -0.1300   32.1850  -58.2380 N.3   219  ARG219     -0.1231
     64  CA        -1.3530   32.9020  -58.6250 C.3   219  ARG219      0.1694
     65  C         -2.5910   32.4870  -57.8280 C.2   219  ARG219      0.2591
     66  O         -3.3780   33.3350  -57.3940 O.2   219  ARG219     -0.2718
     67  CB        -1.6310   32.7640  -60.1280 C.3   219  ARG219      0.0321
     68  CG        -3.0250   33.2650  -60.5270 C.3   219  ARG219      0.0489
     69  CD        -3.3360   33.1730  -62.0130 C.3   219  ARG219      0.2205
     70  NE        -3.1720   31.8160  -62.5670 N.pl3 219  ARG219     -0.0865
     71  CZ        -3.7320   31.3540  -63.6950 C.cat 219  ARG219      0.5346
     72  NH1       -4.5760   32.0900  -64.4150 N.pl3 219  ARG219      0.1354
     73  NH2       -3.4550   30.1200  -64.0920 N.pl3 219  ARG219      0.1354
     74  N         -2.7940   31.1860  -57.6420 N.am  220  ARG220     -0.1980
     75  CA        -3.9750   30.7340  -56.9000 C.3   220  ARG220      0.1597
     76  C         -3.9550   31.1680  -55.4450 C.2   220  ARG220      0.2287
     77  O         -5.0070   31.4970  -54.8900 O.2   220  ARG220     -0.2864
     78  CB        -4.1670   29.2230  -56.9900 C.3   220  ARG220      0.0334
     79  CG        -4.3610   28.7010  -58.3970 C.3   220  ARG220      0.0492
     80  CD        -5.3800   29.4780  -59.1880 C.3   220  ARG220      0.2205
     81  NE        -5.5470   28.9380  -60.5260 N.pl3 220  ARG220     -0.0865
     82  CZ        -6.4020   29.4160  -61.4180 C.cat 220  ARG220      0.5346
     83  NH1       -7.1340   30.5010  -61.1660 N.pl3 220  ARG220      0.1354
     84  NH2       -6.4760   28.8350  -62.5990 N.pl3 220  ARG220      0.1354
     85  N          6.9560   28.5670  -63.2240 N.3   369  TYR369     -0.1241
     86  CA         7.0500   29.1740  -64.5740 C.3   369  TYR369      0.1605
     87  C          8.1940   30.1650  -64.6890 C.2   369  TYR369      0.2264
     88  O          8.1830   31.0110  -65.5620 O.2   369  TYR369     -0.2867
     89  CB         5.7190   29.8310  -64.9990 C.3   369  TYR369      0.0534
     90  CG         4.6160   28.8490  -65.2690 C.ar  369  TYR369     -0.0201
     91  CD1        4.7030   27.9360  -66.3370 C.ar  369  TYR369     -0.0009
     92  CD2        3.4670   28.8320  -64.4790 C.ar  369  TYR369     -0.0009
     93  CE1        3.6930   27.0230  -66.5740 C.ar  369  TYR369      0.0417
     94  CE2        2.4490   27.9280  -64.7180 C.ar  369  TYR369      0.0417
     95  CZ         2.5660   27.0250  -65.7660 C.ar  369  TYR369      0.1957
     96  OH         1.5580   26.1190  -65.9850 O.3   369  TYR369     -0.2866
     97  N          3.2190   37.1420  -61.2180 N.3   465  ARG465     -0.1245
     98  CA         2.8320   37.0650  -62.6480 C.3   465  ARG465      0.1563
     99  C          2.3600   38.4070  -63.2110 C.2   465  ARG465      0.2260
    100  O          2.4670   38.6260  -64.4120 O.2   465  ARG465     -0.2867
    101  CB         1.7470   36.0010  -62.8970 C.3   465  ARG465      0.0307
    102  CG         2.1100   34.5840  -62.5400 C.3   465  ARG465      0.0489
    103  CD         0.8510   33.8160  -62.1900 C.3   465  ARG465      0.2205
    104  NE         1.1240   32.4020  -61.9620 N.pl3 465  ARG465     -0.0865
    105  CZ         1.0110   31.4590  -62.8920 C.cat 465  ARG465      0.5346
    106  NH1        0.6160   31.7650  -64.1240 N.pl3 465  ARG465      0.1354
    107  NH2        1.2900   30.1980  -62.5840 N.pl3 465  ARG465      0.1354
@<TRIPOS>BOND
     1    43    41    1
     2    41    42    1
     3    41    40    1
     4    39    38    2
     5    37    40    1
     6    37    36    1
     7    37    38    1
     8    18    19    1
     9    11    10    1
    10    11    12    2
    11     9    10    1
    12    10    13    1
    13    19    20    1
    14    19    22    1
    15    20    21    2
    16    25    23   ar
    17    25    27   ar
    18    52    50   am
    19    22    23    1
    20    13    14    1
    21    23    24   ar
    22    14    15    1
    23     4     3    2
    24    28    29    1
    25    27    26   ar
    26    31    30    2
    27    50    49    1
    28    50    51    2
    29     3     2    1
    30    29    30    1
    31    29    32    1
    32    49    48    1
    33    24    26   ar
    34    15    16    1
    35    34    33   ar
    36    93    91   ar
    37    93    95   ar
    38    16    17    1
    39    91    90   ar
    40    96    95    1
    41     2     5    1
    42     2     1    1
    43    95    94   ar
    44    32    33    1
    45    33    35   ar
    46    48    45    1
    47    88    87    2
    48    90    89    1
    49    90    92   ar
    50     5     6    1
    51    44    45    1
    52    89    86    1
    53    94    92   ar
    54    45    46    1
    55    87    86    1
    56    86    85    1
    57     6     7    2
    58     6     8   am
    59    72    71    1
    60   100    99    2
    61   106   105    1
    62    73    71    1
    63    61    59   ar
    64    61    62   ar
    65    71    70    2
    66    59    58   ar
    67    46    47    2
    68    99    98    1
    69    62    60   ar
    70   101    98    1
    71   101   102    1
    72   105   107    1
    73   105   104    2
    74    58    60   ar
    75    58    57    1
    76    98    97    1
    77    84    82    1
    78    70    69    1
    79   102   103    1
    80    57    54    1
    81   103   104    1
    82    69    68    1
    83    82    83    1
    84    82    81    2
    85    55    56    2
    86    55    54    1
    87    54    53    1
    88    68    67    1
    89    81    80    1
    90    67    64    1
    91    80    79    1
    92    64    63    1
    93    64    65    1
    94    79    78    1
    95    65    74   am
    96    65    66    2
    97    74    75    1
    98    78    75    1
    99    75    76    1
   100    76    77    2
