@<TRIPOS>MOLECULE
tmp/5g2tA01.pdb
 155 148 0 0 0
SMALL
GASTEIGER

@<TRIPOS>ATOM
      1  N         -5.0050   13.8990  -61.1830 N.3    14  ASP14      -0.1239
      2  CA        -4.2260   15.1000  -60.8720 C.3    14  ASP14       0.1674
      3  C         -4.8270   15.8270  -59.6440 C.2    14  ASP14       0.2266
      4  O         -6.0320   16.1170  -59.6560 O.2    14  ASP14      -0.2867
      5  CB        -4.2530   16.0020  -62.1110 C.3    14  ASP14       0.1410
      6  CG        -3.1060   16.9440  -62.1740 C.2    14  ASP14       0.3668
      7  OD1       -2.9570   17.7730  -61.2680 O.co2  14  ASP14      -0.2456
      8  OD2       -2.3290   16.8490  -63.1440 O.co2  14  ASP14      -0.2456
      9  N          4.3810   19.1510  -58.3730 N.3    53  LEU53      -0.1231
     10  CA         4.0150   19.9430  -59.5700 C.3    53  LEU53       0.1693
     11  C          3.8870   18.9730  -60.7050 C.2    53  LEU53       0.2592
     12  O          4.7180   18.0820  -60.8140 O.2    53  LEU53      -0.2718
     13  CB         5.0930   20.9790  -59.8980 C.3    53  LEU53       0.0284
     14  CG         4.6580   22.0900  -60.8520 C.3    53  LEU53       0.0019
     15  CD1        3.5610   22.9400  -60.2190 C.3    53  LEU53       0.0001
     16  CD2        5.8400   22.9410  -61.3270 C.3    53  LEU53       0.0001
     17  N          2.8810   19.1470  -61.5590 N.am   54  SER54      -0.1952
     18  CA         2.5670   18.1630  -62.6160 C.3    54  SER54       0.1924
     19  C          3.6860   17.7660  -63.6330 C.2    54  SER54       0.2314
     20  O          4.0180   16.5820  -63.7570 O.2    54  SER54      -0.2863
     21  CB         1.3340   18.6410  -63.3850 C.3    54  SER54       0.2116
     22  OG         0.9720   17.7200  -64.3820 O.3    54  SER54      -0.2180
     23  N          6.9900   23.7290  -64.7950 N.3    75  ASN75      -0.1240
     24  CA         5.9520   23.5210  -65.7930 C.3    75  ASN75       0.1653
     25  C          6.1990   24.2340  -67.1300 C.2    75  ASN75       0.2266
     26  O          5.3750   24.0950  -68.0280 O.2    75  ASN75      -0.2867
     27  CB         4.5590   23.9120  -65.2680 C.3    75  ASN75       0.1155
     28  CG         3.9070   22.8170  -64.4600 C.2    75  ASN75       0.2627
     29  OD1        4.3720   21.6640  -64.4110 O.2    75  ASN75      -0.2716
     30  ND2        2.8250   23.1810  -63.7910 N.am   75  ASN75      -0.0877
     31  N         -4.4030   13.1520  -69.8420 N.3   107  LYS107     -0.1245
     32  CA        -3.3670   14.1920  -69.7110 C.3   107  LYS107      0.1561
     33  C         -1.9580   13.6150  -69.9610 C.2   107  LYS107      0.2260
     34  O         -1.6140   12.5800  -69.4150 O.2   107  LYS107     -0.2867
     35  CB        -3.4280   14.7840  -68.2960 C.3   107  LYS107      0.0271
     36  CG        -2.4860   15.9390  -68.0350 C.3   107  LYS107      0.0035
     37  CD        -2.8390   16.6650  -66.7420 C.3   107  LYS107      0.0206
     38  CE        -1.7090   17.5990  -66.3670 C.3   107  LYS107      0.1093
     39  NZ        -1.9690   18.4440  -65.1650 N.3   107  LYS107     -0.1314
     40  N          1.6450   15.8940  -70.4210 N.3   109  HIS109     -0.1241
     41  CA         2.4370   16.8190  -69.5720 C.3   109  HIS109      0.1621
     42  C          3.6690   16.1280  -69.0160 C.2   109  HIS109      0.2264
     43  O          4.0600   16.3210  -67.8510 O.2   109  HIS109     -0.2867
     44  CB         1.5290   17.3720  -68.4650 C.3   109  HIS109      0.0745
     45  CG         1.8160   18.7810  -68.0600 C.ar  109  HIS109      0.0817
     46  ND1        1.5340   19.2470  -66.7960 N.ar  109  HIS109     -0.2268
     47  CD2        2.2730   19.8460  -68.7590 C.ar  109  HIS109      0.1154
     48  CE1        1.8070   20.5370  -66.7280 C.ar  109  HIS109      0.1986
     49  NE2        2.2850   20.9190  -67.8960 N.ar  109  HIS109     -0.2212
     50  N         -8.1590   18.3940  -60.4460 N.3   170  HIS170     -0.1241
     51  CA        -7.5830   19.6620  -60.9660 C.3   170  HIS170      0.1621
     52  C         -8.5530   20.8570  -61.2650 C.2   170  HIS170      0.2264
     53  O         -8.1200   22.0030  -61.2220 O.2   170  HIS170     -0.2867
     54  CB        -6.7430   19.3450  -62.2270 C.3   170  HIS170      0.0745
     55  CG        -5.8910   20.4700  -62.7040 C.ar  170  HIS170      0.0817
     56  ND1       -6.3620   21.4630  -63.5310 N.ar  170  HIS170     -0.2268
     57  CD2       -4.5900   20.7420  -62.5010 C.ar  170  HIS170      0.1154
     58  CE1       -5.3900   22.3090  -63.8080 C.ar  170  HIS170      0.1986
     59  NE2       -4.3010   21.8910  -63.1980 N.ar  170  HIS170     -0.2212
     60  N         -8.6010   24.3130  -59.4760 N.3   173  CYS173     -0.1235
     61  CA        -7.8690   25.4830  -59.9530 C.3   173  CYS173      0.1677
     62  C         -8.8340   26.5260  -60.5460 C.2   173  CYS173      0.2270
     63  O         -8.8220   27.6960  -60.1240 O.2   173  CYS173     -0.2867
     64  CB        -6.8000   25.0900  -60.9640 C.3   173  CYS173      0.0956
     65  SG        -5.5030   24.0290  -60.3060 S.3   173  CYS173     -0.0801
     66  N          2.5280   32.3760  -56.2020 N.3   218  HIS218     -0.1226
     67  CA         1.5670   31.3680  -56.6830 C.3   218  HIS218      0.1752
     68  C          0.2630   32.0880  -56.9680 C.2   218  HIS218      0.2596
     69  O         -0.3910   32.5380  -56.0430 O.2   218  HIS218     -0.2718
     70  CB         1.4220   30.3410  -55.5570 C.3   218  HIS218      0.0759
     71  CG         0.4320   29.2390  -55.8010 C.ar  218  HIS218      0.0818
     72  ND1        0.1020   28.7870  -57.0530 N.ar  218  HIS218     -0.2268
     73  CD2       -0.2430   28.4480  -54.9290 C.ar  218  HIS218      0.1154
     74  CE1       -0.7550   27.7860  -56.9530 C.ar  218  HIS218      0.1986
     75  NE2       -0.9850   27.5610  -55.6700 N.ar  218  HIS218     -0.2212
     76  N         -0.1300   32.1850  -58.2380 N.am  219  ARG219     -0.1966
     77  CA        -1.3530   32.9020  -58.6250 C.3   219  ARG219      0.1729
     78  C         -2.5910   32.4870  -57.8280 C.2   219  ARG219      0.2616
     79  O         -3.3780   33.3350  -57.3940 O.2   219  ARG219     -0.2715
     80  CB        -1.6310   32.7640  -60.1280 C.3   219  ARG219      0.0348
     81  CG        -3.0250   33.2650  -60.5270 C.3   219  ARG219      0.0492
     82  CD        -3.3360   33.1730  -62.0130 C.3   219  ARG219      0.2205
     83  NE        -3.1720   31.8160  -62.5670 N.pl3 219  ARG219     -0.0865
     84  CZ        -3.7320   31.3540  -63.6950 C.cat 219  ARG219      0.5346
     85  NH1       -4.5760   32.0900  -64.4150 N.pl3 219  ARG219      0.1354
     86  NH2       -3.4550   30.1200  -64.0920 N.pl3 219  ARG219      0.1354
     87  N         -2.7940   31.1860  -57.6420 N.am  220  ARG220     -0.1977
     88  CA        -3.9750   30.7340  -56.9000 C.3   220  ARG220      0.1597
     89  C         -3.9550   31.1680  -55.4450 C.2   220  ARG220      0.2287
     90  O         -5.0070   31.4970  -54.8900 O.2   220  ARG220     -0.2864
     91  CB        -4.1670   29.2230  -56.9900 C.3   220  ARG220      0.0334
     92  CG        -4.3610   28.7010  -58.3970 C.3   220  ARG220      0.0492
     93  CD        -5.3800   29.4780  -59.1880 C.3   220  ARG220      0.2205
     94  NE        -5.5470   28.9380  -60.5260 N.pl3 220  ARG220     -0.0865
     95  CZ        -6.4020   29.4160  -61.4180 C.cat 220  ARG220      0.5346
     96  NH1       -7.1340   30.5010  -61.1660 N.pl3 220  ARG220      0.1354
     97  NH2       -6.4760   28.8350  -62.5990 N.pl3 220  ARG220      0.1354
     98  N          0.5420   14.5080  -57.6970 N.3   274  HIS274     -0.1241
     99  CA         0.7580   15.2860  -56.4860 C.3   274  HIS274      0.1621
    100  C         -0.6030   15.5510  -55.8920 C.2   274  HIS274      0.2264
    101  O         -1.6460   15.2700  -56.5210 O.2   274  HIS274     -0.2867
    102  CB         1.4560   16.6400  -56.7710 C.3   274  HIS274      0.0745
    103  CG         0.7140   17.4740  -57.7380 C.ar  274  HIS274      0.0817
    104  ND1       -0.4280   18.1700  -57.3970 N.ar  274  HIS274     -0.2268
    105  CD2        0.8920   17.6700  -59.0650 C.ar  274  HIS274      0.1154
    106  CE1       -0.9200   18.7460  -58.4750 C.ar  274  HIS274      0.1986
    107  NE2       -0.1360   18.4650  -59.4960 N.ar  274  HIS274     -0.2212
    108  N         -4.1480   24.4650  -53.7900 N.3   285  THR285     -0.1203
    109  CA        -3.3730   23.7400  -54.8300 C.3   285  THR285      0.1994
    110  C         -1.9570   23.3350  -54.3920 C.2   285  THR285      0.2617
    111  O         -1.8110   22.6700  -53.3680 O.2   285  THR285     -0.2717
    112  CB        -3.4660   24.4030  -56.2460 C.3   285  THR285      0.1784
    113  OG1       -2.6530   25.5670  -56.3280 O.3   285  THR285     -0.2211
    114  CG2       -4.8970   24.7820  -56.5590 C.3   285  THR285      0.0376
    115  N         -0.9250   23.7610  -55.1280 N.am  286  LYS286     -0.1979
    116  CA         0.4400   23.2610  -54.9420 C.3   286  LYS286      0.1596
    117  C          1.4100   24.2870  -55.4980 C.2   286  LYS286      0.2287
    118  O          1.1580   24.8460  -56.5820 O.2   286  LYS286     -0.2864
    119  CB         0.6800   21.8760  -55.6240 C.3   286  LYS286      0.0298
    120  CG         0.7600   21.8320  -57.1620 C.3   286  LYS286      0.0038
    121  CD        -0.4950   22.3290  -57.8790 C.3   286  LYS286      0.0206
    122  CE        -0.4010   22.1170  -59.3750 C.3   286  LYS286      0.1093
    123  NZ        -1.6260   22.5790  -60.1010 N.3   286  LYS286     -0.1314
    124  N          7.9040   27.2030  -60.8540 N.3   368  GLU368     -0.1231
    125  CA         6.6950   26.7890  -61.5870 C.3   368  GLU368      0.1699
    126  C          6.7720   27.2620  -63.0440 C.2   368  GLU368      0.2592
    127  O          6.6240   26.4570  -63.9810 O.2   368  GLU368     -0.2718
    128  CB         5.4310   27.2820  -60.8660 C.3   368  GLU368      0.0402
    129  CG         4.1310   26.9160  -61.5710 C.3   368  GLU368      0.1161
    130  CD         2.8810   27.0370  -60.7000 C.2   368  GLU368      0.3649
    131  OE1        2.9820   27.4930  -59.5410 O.co2 368  GLU368     -0.2457
    132  OE2        1.7790   26.6540  -61.1720 O.co2 368  GLU368     -0.2457
    133  N          6.9560   28.5670  -63.2240 N.am  369  TYR369     -0.1976
    134  CA         7.0500   29.1740  -64.5740 C.3   369  TYR369      0.1639
    135  C          8.1940   30.1650  -64.6890 C.2   369  TYR369      0.2290
    136  O          8.1830   31.0110  -65.5620 O.2   369  TYR369     -0.2864
    137  CB         5.7190   29.8310  -64.9990 C.3   369  TYR369      0.0560
    138  CG         4.6160   28.8490  -65.2690 C.ar  369  TYR369     -0.0198
    139  CD1        4.7030   27.9360  -66.3370 C.ar  369  TYR369     -0.0009
    140  CD2        3.4670   28.8320  -64.4790 C.ar  369  TYR369     -0.0009
    141  CE1        3.6930   27.0230  -66.5740 C.ar  369  TYR369      0.0417
    142  CE2        2.4490   27.9280  -64.7180 C.ar  369  TYR369      0.0417
    143  CZ         2.5660   27.0250  -65.7660 C.ar  369  TYR369      0.1957
    144  OH         1.5580   26.1190  -65.9850 O.3   369  TYR369     -0.2866
    145  N          3.2190   37.1420  -61.2180 N.3   465  ARG465     -0.1245
    146  CA         2.8320   37.0650  -62.6480 C.3   465  ARG465      0.1563
    147  C          2.3600   38.4070  -63.2110 C.2   465  ARG465      0.2260
    148  O          2.4670   38.6260  -64.4120 O.2   465  ARG465     -0.2867
    149  CB         1.7470   36.0010  -62.8970 C.3   465  ARG465      0.0307
    150  CG         2.1100   34.5840  -62.5400 C.3   465  ARG465      0.0489
    151  CD         0.8510   33.8160  -62.1900 C.3   465  ARG465      0.2205
    152  NE         1.1240   32.4020  -61.9620 N.pl3 465  ARG465     -0.0865
    153  CZ         1.0110   31.4590  -62.8920 C.cat 465  ARG465      0.5346
    154  NH1        0.6160   31.7650  -64.1240 N.pl3 465  ARG465      0.1354
    155  NH2        1.2900   30.1980  -62.5840 N.pl3 465  ARG465      0.1354
@<TRIPOS>BOND
     1    40    41    1
     2    33    32    1
     3    33    34    2
     4    31    32    1
     5    32    35    1
     6    41    42    1
     7    41    44    1
     8    42    43    2
     9    47    45   ar
    10    47    49   ar
    11    44    45    1
    12    35    36    1
    13    45    46   ar
    14    36    37    1
    15    26    25    2
    16    49    48   ar
    17    25    24    1
    18    46    48   ar
    19    37    38    1
    20   141   139   ar
    21   141   143   ar
    22    38    39    1
    23   139   138   ar
    24   144   143    1
    25    24    27    1
    26    24    23    1
    27   143   142   ar
    28   136   135    2
    29   138   137    1
    30   138   140   ar
    31    27    28    1
    32   137   134    1
    33   142   140   ar
    34   135   134    1
    35   134   133    1
    36    28    29    2
    37    28    30   am
    38    85    84    1
    39   148   147    2
    40    22    21    1
    41   154   153    1
    42    86    84    1
    43   127   126    2
    44    58    56   ar
    45    58    59   ar
    46    20    19    2
    47    84    83    2
    48    19    18    1
    49    56    55   ar
    50    21    18    1
    51   133   126   am
    52   147   146    1
    53    59    57   ar
    54     8     6   ar
    55   126   125    1
    56   149   146    1
    57   149   150    1
    58   153   155    1
    59   153   152    2
    60    55    57   ar
    61    55    54    1
    62   146   145    1
    63    18    17    1
    64    97    95    1
    65    83    82    1
    66   150   151    1
    67    54    51    1
    68   151   152    1
    69     6     5    1
    70     6     7   ar
    71     5     2    1
    72    82    81    1
    73   125   128    1
    74   125   124    1
    75   129   128    1
    76   129   130    1
    77    17    11   am
    78    95    96    1
    79    95    94    2
    80    16    14    1
    81    52    53    2
    82    52    51    1
    83     1     2    1
    84   132   130   ar
    85    51    50    1
    86    64    65    1
    87    64    61    1
    88     2     3    1
    89    14    15    1
    90    14    13    1
    91    12    11    2
    92    11    10    1
    93   130   131   ar
    94    62    63    2
    95    62    61    1
    96    81    80    1
    97    94    93    1
    98    80    77    1
    99   123   122    1
   100    61    60    1
   101    13    10    1
   102     4     3    2
   103    10     9    1
   104   107   105   ar
   105   107   106   ar
   106   122   121    1
   107    93    92    1
   108   105   103   ar
   109    77    76    1
   110    77    78    1
   111   106   104   ar
   112    92    91    1
   113    76    68   am
   114   121   120    1
   115    78    87   am
   116    78    79    2
   117   103   104   ar
   118   103   102    1
   119    98    99    1
   120    87    88    1
   121   120   119    1
   122    72    74   ar
   123    72    71   ar
   124    91    88    1
   125    68    67    1
   126    68    69    2
   127    74    75   ar
   128    88    89    1
   129   102    99    1
   130    67    66    1
   131    67    70    1
   132   118   117    2
   133   114   112    1
   134   101   100    2
   135    99   100    1
   136   113   112    1
   137   112   109    1
   138    71    70    1
   139    71    73   ar
   140    75    73   ar
   141   119   116    1
   142   117   116    1
   143    89    90    2
   144   115   116    1
   145   115   110   am
   146   109   110    1
   147   109   108    1
   148   110   111    2
