@<TRIPOS>MOLECULE
tmp/5g2uA00.pdb
 137 131 0 0 0
SMALL
GASTEIGER

@<TRIPOS>ATOM
      1  N          6.1020   28.0770    2.7180 N.3    50  LEU50      -0.1231
      2  CA         4.8460   27.7910    3.3890 C.3    50  LEU50       0.1693
      3  C          3.7730   27.6990    2.2930 C.2    50  LEU50       0.2592
      4  O          3.7430   28.4690    1.3650 O.2    50  LEU50      -0.2718
      5  CB         4.4810   28.8960    4.4080 C.3    50  LEU50       0.0284
      6  CG         3.3920   28.5310    5.4090 C.3    50  LEU50       0.0019
      7  CD1        3.8020   27.4270    6.3710 C.3    50  LEU50       0.0001
      8  CD2        2.9550   29.7750    6.1990 C.3    50  LEU50       0.0001
      9  N          2.6530   26.7170    2.5400 N.am   51  SER51      -0.1952
     10  CA         1.7710   26.3740    1.3960 C.3    51  SER51       0.1924
     11  C          0.9370   27.5500    0.9010 C.2    51  SER51       0.2314
     12  O          0.9980   27.8930   -0.2710 O.2    51  SER51      -0.2863
     13  CB         0.9140   25.2510    1.8480 C.3    51  SER51       0.2116
     14  OG        -0.0300   24.9570    0.8440 O.3    51  SER51      -0.2180
     15  N         -0.6110   31.1170    6.6130 N.3    72  ASN72      -0.1240
     16  CA        -1.6440   30.1140    6.3470 C.3    72  ASN72       0.1653
     17  C         -2.9780   30.4840    6.9830 C.2    72  ASN72       0.2266
     18  O         -3.9180   29.7100    6.9270 O.2    72  ASN72      -0.2867
     19  CB        -1.2030   28.7240    6.8320 C.3    72  ASN72       0.1155
     20  CG        -0.3310   28.0000    5.8090 C.2    72  ASN72       0.2627
     21  OD1       -0.0770   28.4820    4.7040 O.2    72  ASN72      -0.2716
     22  ND2        0.1290   26.8430    6.1920 N.am   72  ASN72      -0.0877
     23  N         -5.3210   19.8630   -4.1330 N.3   104  LYS104     -0.1245
     24  CA        -5.1940   20.8870   -3.1100 C.3   104  LYS104      0.1561
     25  C         -5.3330   22.2640   -3.6820 C.2   104  LYS104      0.2260
     26  O         -4.7580   22.5620   -4.7220 O.2   104  LYS104     -0.2867
     27  CB        -3.8420   20.7100   -2.4050 C.3   104  LYS104      0.0271
     28  CG        -3.5960   21.6910   -1.2520 C.3   104  LYS104      0.0035
     29  CD        -2.3000   21.3830   -0.5070 C.3   104  LYS104      0.0206
     30  CE        -2.0800   22.3590    0.6200 C.3   104  LYS104      0.1093
     31  NZ        -0.9310   22.0460    1.4790 N.3   104  LYS104     -0.1314
     32  N         -5.7700   25.9080   -1.4750 N.3   106  HIS106     -0.1241
     33  CA        -4.9280   26.6590   -0.5530 C.3   106  HIS106      0.1621
     34  C         -4.2700   27.8600   -1.2270 C.2   106  HIS106      0.2264
     35  O         -3.1270   28.2410   -0.9430 O.2   106  HIS106     -0.2867
     36  CB        -3.9320   25.7090    0.1070 C.3   106  HIS106      0.0745
     37  CG        -3.6140   26.0490    1.5250 C.ar  106  HIS106      0.0817
     38  ND1       -2.4090   25.7180    2.0930 N.ar  106  HIS106     -0.2268
     39  CD2       -4.3490   26.6000    2.5100 C.ar  106  HIS106      0.1154
     40  CE1       -2.4040   26.0730    3.3620 C.ar  106  HIS106      0.1986
     41  NE2       -3.5720   26.6030    3.6460 N.ar  106  HIS106     -0.2212
     42  N          3.4640   15.6230    2.0230 N.3   165  HIS165     -0.1241
     43  CA         2.9680   16.2810    3.2340 C.3   165  HIS165      0.1621
     44  C          2.4980   15.3280    4.3190 C.2   165  HIS165      0.2264
     45  O          2.4410   15.7790    5.4670 O.2   165  HIS165     -0.2867
     46  CB         1.8210   17.2350    2.8520 C.3   165  HIS165      0.0745
     47  CG         1.2710   18.0880    3.9600 C.ar  165  HIS165      0.0817
     48  ND1        0.2910   17.6440    4.8060 N.ar  165  HIS165     -0.2268
     49  CD2        1.4960   19.3770    4.2890 C.ar  165  HIS165      0.1154
     50  CE1       -0.0870   18.6260    5.6020 C.ar  165  HIS165      0.1986
     51  NE2        0.6370   19.6900    5.3170 N.ar  165  HIS165     -0.2212
     52  N          3.9290   15.2460    7.9000 N.3   168  CYS168     -0.1235
     53  CA         3.4470   16.0030    9.0740 C.3   168  CYS168      0.1677
     54  C          2.7260   15.0690   10.0400 C.2   168  CYS168      0.2270
     55  O          3.0280   15.0420   11.2400 O.2   168  CYS168     -0.2867
     56  CB         2.4930   17.0900    8.6320 C.3   168  CYS168      0.0956
     57  SG         3.2520   18.3690    7.6060 S.3   168  CYS168     -0.0801
     58  N          7.1480   26.3550   16.0910 N.3   213  HIS213     -0.1226
     59  CA         6.7120   25.3960   15.0550 C.3   213  HIS213      0.1752
     60  C          6.3140   24.0960   15.7410 C.2   213  HIS213      0.2596
     61  O          7.1690   23.3790   16.2770 O.2   213  HIS213     -0.2718
     62  CB         7.9120   25.1970   14.0920 C.3   213  HIS213      0.0759
     63  CG         7.7130   24.2050   12.9880 C.ar  213  HIS213      0.0818
     64  ND1        6.4850   23.9470   12.4550 N.ar  213  HIS213     -0.2268
     65  CD2        8.5970   23.4170   12.3200 C.ar  213  HIS213      0.1154
     66  CE1        6.6060   23.0600   11.4810 C.ar  213  HIS213      0.1986
     67  NE2        7.8850   22.7290   11.3750 N.ar  213  HIS213     -0.2212
     68  N          5.0280   23.7770   15.7690 N.am  214  ARG214     -0.1966
     69  CA         4.5370   22.5800   16.4470 C.3   214  ARG214      0.1729
     70  C          5.3230   21.3200   16.1100 C.2   214  ARG214      0.2616
     71  O          5.6340   20.5130   16.9830 O.2   214  ARG214     -0.2715
     72  CB         3.0340   22.3520   16.1560 C.3   214  ARG214      0.0348
     73  CG         2.5230   21.0360   16.7160 C.3   214  ARG214      0.0492
     74  CD         1.0680   20.7780   16.4280 C.3   214  ARG214      0.2205
     75  NE         0.7570   20.7900   15.0040 N.pl3 214  ARG214     -0.0865
     76  CZ        -0.4490   20.4980   14.5270 C.cat 214  ARG214      0.5346
     77  NH1       -1.4340   20.1490   15.3500 N.pl3 214  ARG214      0.1354
     78  NH2       -0.6720   20.5620   13.2250 N.pl3 214  ARG214      0.1354
     79  N          5.6220   21.1240   14.8280 N.am  215  ARG215     -0.1977
     80  CA         6.3180   19.8960   14.4760 C.3   215  ARG215      0.1597
     81  C          7.7530   19.8440   15.0080 C.2   215  ARG215      0.2287
     82  O          8.2330   18.7660   15.3580 O.2   215  ARG215     -0.2864
     83  CB         6.3230   19.6770   12.9470 C.3   215  ARG215      0.0334
     84  CG         4.9210   19.5510   12.3430 C.3   215  ARG215      0.0492
     85  CD         4.0860   18.4580   13.0150 C.3   215  ARG215      0.2205
     86  NE         2.7600   18.3030   12.4090 N.pl3 215  ARG215     -0.0865
     87  CZ         1.8000   17.5200   12.8940 C.cat 215  ARG215      0.5346
     88  NH1        1.9710   16.8090   14.0190 N.pl3 215  ARG215      0.1354
     89  NH2        0.6260   17.4600   12.2320 N.pl3 215  ARG215      0.1354
     90  N          9.8100   19.4280    8.4480 N.3   280  THR280     -0.1203
     91  CA         8.8710   20.2230    7.6630 C.3   280  THR280      0.1994
     92  C          9.4410   21.5670    7.2420 C.2   280  THR280      0.2617
     93  O         10.5180   21.6030    6.6620 O.2   280  THR280     -0.2717
     94  CB         7.4220   20.2220    8.1810 C.3   280  THR280      0.1784
     95  OG1        7.2680   21.1080    9.2750 O.3   280  THR280     -0.2211
     96  CG2        6.9810   18.8430    8.6040 C.3   280  THR280      0.0376
     97  N          8.7400   22.6660    7.5150 N.am  281  LYS281     -0.1979
     98  CA         9.0500   23.9830    6.9830 C.3   281  LYS281      0.1596
     99  C          8.4980   24.9950    7.9710 C.2   281  LYS281      0.2287
    100  O          7.4130   24.7740    8.4970 O.2   281  LYS281     -0.2864
    101  CB         8.3900   24.2210    5.5930 C.3   281  LYS281      0.0298
    102  CG         6.8660   24.3300    5.5090 C.3   281  LYS281      0.0038
    103  CD         6.0850   23.0960    5.9170 C.3   281  LYS281      0.0206
    104  CE         4.5900   23.2990    5.6760 C.3   281  LYS281      0.1093
    105  NZ         3.7700   22.1210    6.1100 N.3   281  LYS281     -0.1314
    106  N          3.1860   31.8680   10.4420 N.3   363  GLU363     -0.1231
    107  CA         2.4880   30.6540   10.0370 C.3   363  GLU363      0.1699
    108  C          0.9880   30.8220   10.2900 C.2   363  GLU363      0.2592
    109  O          0.1780   30.7390    9.3550 O.2   363  GLU363     -0.2718
    110  CB         3.0840   29.4180   10.7230 C.3   363  GLU363      0.0402
    111  CG         2.4330   28.1170   10.2960 C.3   363  GLU363      0.1161
    112  CD         2.7130   26.9420   11.2160 C.2   363  GLU363      0.3649
    113  OE1        3.4220   27.1010   12.2410 O.co2 363  GLU363     -0.2457
    114  OE2        2.1860   25.8490   10.9160 O.co2 363  GLU363     -0.2457
    115  N          0.6070   31.0430   11.5470 N.am  364  TYR364     -0.1976
    116  CA        -0.8050   31.2690   11.9020 C.3   364  TYR364      0.1639
    117  C         -0.9770   32.4500   12.8540 C.2   364  TYR364      0.2290
    118  O         -1.9510   32.4860   13.6130 O.2   364  TYR364     -0.2864
    119  CB        -1.4420   30.0090   12.5250 C.3   364  TYR364      0.0560
    120  CG        -1.6810   28.8960   11.5550 C.ar  364  TYR364     -0.0198
    121  CD1       -2.7270   28.9730   10.6450 C.ar  364  TYR364     -0.0009
    122  CD2       -0.8610   27.7680   11.5320 C.ar  364  TYR364     -0.0009
    123  CE1       -2.9530   27.9490    9.7320 C.ar  364  TYR364      0.0417
    124  CE2       -1.0660   26.7410   10.6070 C.ar  364  TYR364      0.0417
    125  CZ        -2.1090   26.8320    9.7090 C.ar  364  TYR364      0.1957
    126  OH        -2.3080   25.8040    8.7950 O.3   364  TYR364     -0.2866
    127  N          1.5960   27.5330   20.1700 N.3   460  ARG460     -0.1245
    128  CA         0.1460   27.3000   20.0130 C.3   460  ARG460      0.1563
    129  C         -0.5730   26.9000   21.3170 C.2   460  ARG460      0.2260
    130  O         -1.7870   27.1230   21.4350 O.2   460  ARG460     -0.2867
    131  CB        -0.1100   26.2640   18.8950 C.3   460  ARG460      0.0307
    132  CG         0.4020   26.6320   17.5580 C.3   460  ARG460      0.0489
    133  CD         0.1370   25.5000   16.6180 C.3   460  ARG460      0.2205
    134  NE        -1.2940   25.2480   16.4520 N.pl3 460  ARG460     -0.0865
    135  CZ        -1.8060   24.6350   15.3910 C.cat 460  ARG460      0.5346
    136  NH1       -1.0000   24.2250   14.4170 N.pl3 460  ARG460      0.1354
    137  NH2       -3.1060   24.4160   15.3040 N.pl3 460  ARG460      0.1354
@<TRIPOS>BOND
     1    26    25    2
     2    23    24    1
     3    25    24    1
     4    24    27    1
     5    27    28    1
     6    32    33    1
     7    28    29    1
     8    34    35    2
     9    34    33    1
    10    33    36    1
    11    29    30    1
    12    12    11    2
    13    36    37    1
    14    30    31    1
    15    14    13    1
    16    11    10    1
    17     4     3    2
    18    10    13    1
    19    10     9    1
    20    37    38   ar
    21    37    39   ar
    22    42    43    1
    23    38    40   ar
    24     3     9   am
    25     3     2    1
    26    39    41   ar
    27     1     2    1
    28    46    43    1
    29    46    47    1
    30    43    44    1
    31    40    41   ar
    32     2     5    1
    33    47    49   ar
    34    47    48   ar
    35    49    51   ar
    36    44    45    2
    37     5     6    1
    38    21    20    2
    39    48    50   ar
    40    51    50   ar
    41     6     8    1
    42     6     7    1
    43   102   101    1
    44   102   103    1
    45   101    98    1
    46   104   103    1
    47   104   105    1
    48    20    22   am
    49    20    19    1
    50    16    15    1
    51    16    19    1
    52    16    17    1
    53    93    92    2
    54    18    17    2
    55    98    97    1
    56    98    99    1
    57    92    97   am
    58    92    91    1
    59    57    56    1
    60    91    94    1
    61    91    90    1
    62    52    53    1
    63    99   100    2
    64    94    96    1
    65    94    95    1
    66    56    53    1
    67   126   125    1
    68    53    54    1
    69   109   108    2
    70   125   123   ar
    71   125   124   ar
    72   123   121   ar
    73   107   108    1
    74   107   106    1
    75   107   110    1
    76    54    55    2
    77   108   115   am
    78   111   110    1
    79   111   112    1
    80   124   122   ar
    81   121   120   ar
    82   114   112   ar
    83   112   113   ar
    84    67    66   ar
    85    67    65   ar
    86    66    64   ar
    87   122   120   ar
    88   115   116    1
    89   120   119    1
    90   116   119    1
    91   116   117    1
    92    89    87    1
    93    65    63   ar
    94    84    83    1
    95    84    85    1
    96    86    87    2
    97    86    85    1
    98    64    63   ar
    99   117   118    2
   100    87    88    1
   101    83    80    1
   102    63    62    1
   103    78    76    1
   104    62    59    1
   105   136   135    1
   106    80    79    1
   107    80    81    1
   108    76    75    2
   109    76    77    1
   110    79    70   am
   111    75    74    1
   112    81    82    2
   113    59    60    1
   114    59    58    1
   115   137   135    1
   116   135   134    2
   117    60    68   am
   118    60    61    2
   119    68    69    1
   120    70    69    1
   121    70    71    2
   122    72    69    1
   123    72    73    1
   124    74    73    1
   125   134   133    1
   126   133   132    1
   127   132   131    1
   128   131   128    1
   129   128   127    1
   130   128   129    1
   131   129   130    2
