@<TRIPOS>MOLECULE
tmp/5g2vA00.pdb
 188 181 0 0 0
SMALL
GASTEIGER

@<TRIPOS>ATOM
      1  N         -9.1400   -7.1330   23.5870 N.3    11  ASP11      -0.1225
      2  CA        -8.6340   -8.4850   23.8260 C.3    11  ASP11       0.1805
      3  C         -7.1230   -8.3500   23.9370 C.2    11  ASP11       0.2597
      4  O         -6.4440   -8.1050   22.9280 O.2    11  ASP11      -0.2718
      5  CB        -9.0520   -9.3360   22.6270 C.3    11  ASP11       0.1424
      6  CG        -8.6110  -10.7880   22.6790 C.2    11  ASP11       0.3668
      7  OD1       -7.8330  -11.1830   23.5620 O.co2  11  ASP11      -0.2456
      8  OD2       -9.0250  -11.5140   21.7390 O.co2  11  ASP11      -0.2456
      9  N         -6.6010   -8.4780   25.1610 N.am   12  ASP12      -0.1974
     10  CA        -5.1580   -8.4760   25.4110 C.3    12  ASP12       0.1709
     11  C         -4.5060   -7.0970   25.3300 C.2    12  ASP12       0.2293
     12  O         -3.2980   -7.0220   25.1630 O.2    12  ASP12      -0.2864
     13  CB        -4.4340   -9.5080   24.5240 C.3    12  ASP12       0.1436
     14  CG        -4.7990  -10.9520   24.8470 C.2    12  ASP12       0.3671
     15  OD1       -5.3960  -11.2260   25.8740 O.co2  12  ASP12      -0.2456
     16  OD2       -4.4330  -11.8340   24.0330 O.co2  12  ASP12      -0.2456
     17  N         -8.1370  -14.9310   31.4810 N.3    50  LEU50      -0.1231
     18  CA        -8.2620  -15.5830   30.2130 C.3    50  LEU50       0.1693
     19  C         -9.5560  -15.0230   29.5640 C.2    50  LEU50       0.2592
     20  O        -10.5070  -14.6850   30.2770 O.2    50  LEU50      -0.2718
     21  CB        -8.2740  -17.0880   30.5160 C.3    50  LEU50       0.0284
     22  CG        -8.0610  -18.0380   29.3620 C.3    50  LEU50       0.0019
     23  CD1       -6.6540  -17.9200   28.8110 C.3    50  LEU50       0.0001
     24  CD2       -8.3610  -19.4800   29.7570 C.3    50  LEU50       0.0001
     25  N         -9.6150  -14.9600   28.2370 N.am   51  SER51      -0.1952
     26  CA       -10.7080  -14.2840   27.5080 C.3    51  SER51       0.1924
     27  C        -12.0970  -14.8100   27.8150 C.2    51  SER51       0.2314
     28  O        -12.9840  -14.0670   28.2200 O.2    51  SER51      -0.2863
     29  CB       -10.4550  -14.4380   26.0020 C.3    51  SER51       0.2116
     30  OG       -11.5540  -14.0710   25.2020 O.3    51  SER51      -0.2180
     31  N        -10.8480  -21.7880   28.3010 N.3    72  ASN72      -0.1240
     32  CA       -11.2440  -21.5530   26.9180 C.3    72  ASN72       0.1653
     33  C        -11.6360  -22.8530   26.1960 C.2    72  ASN72       0.2266
     34  O        -11.6140  -22.9060   24.9660 O.2    72  ASN72      -0.2867
     35  CB       -10.1270  -20.8340   26.1280 C.3    72  ASN72       0.1155
     36  CG        -9.9770  -19.3500   26.4230 C.2    72  ASN72       0.2627
     37  OD1       -8.8340  -18.8070   26.3190 O.2    72  ASN72      -0.2716
     38  ND2      -11.0450  -18.6750   26.6790 N.am   72  ASN72      -0.0877
     39  N        -16.0530   -9.6900   19.4980 N.3    99  LYS99      -0.1245
     40  CA       -15.5680  -10.9550   20.0460 C.3    99  LYS99       0.1561
     41  C        -16.4780  -11.4230   21.1830 C.2    99  LYS99       0.2260
     42  O        -16.5720  -10.7670   22.2230 O.2    99  LYS99      -0.2867
     43  CB       -14.1210  -10.8450   20.5210 C.3    99  LYS99       0.0271
     44  CG       -13.5620  -12.2230   20.8400 C.3    99  LYS99       0.0035
     45  CD       -12.1760  -12.1810   21.4700 C.3    99  LYS99       0.0206
     46  CE       -11.6240  -13.5720   21.6540 C.3    99  LYS99       0.1093
     47  NZ       -10.3720  -13.6770   22.4580 N.3    99  LYS99      -0.1314
     48  N        -16.6800  -15.2860   22.0800 N.3   101  HIS101     -0.1241
     49  CA       -15.7760  -16.3000   22.6450 C.3   101  HIS101      0.1621
     50  C        -16.4120  -17.1420   23.7440 C.2   101  HIS101      0.2264
     51  O        -15.7080  -17.7370   24.5600 O.2   101  HIS101     -0.2867
     52  CB       -14.5040  -15.6340   23.1060 C.3   101  HIS101      0.0745
     53  CG       -13.2940  -16.4950   23.0820 C.ar  101  HIS101      0.0817
     54  ND1      -13.0260  -17.5440   22.2280 N.ar  101  HIS101     -0.2268
     55  CD2      -12.1990  -16.3450   23.8400 C.ar  101  HIS101      0.1154
     56  CE1      -11.8060  -17.9950   22.5000 C.ar  101  HIS101      0.1986
     57  NE2      -11.3080  -17.2950   23.4900 N.ar  101  HIS101     -0.2212
     58  N        -11.6490  -18.6020   13.3770 N.3   118  GLN118     -0.1245
     59  CA       -10.6400  -19.0530   14.3530 C.3   118  GLN118      0.1566
     60  C        -11.3020  -19.4690   15.6690 C.2   118  GLN118      0.2260
     61  O        -10.8720  -19.0530   16.7420 O.2   118  GLN118     -0.2867
     62  CB        -9.5480  -17.9850   14.6060 C.3   118  GLN118      0.0367
     63  CG        -8.6380  -17.6930   13.4180 C.3   118  GLN118      0.0905
     64  CD        -7.4220  -16.8510   13.7890 C.2   118  GLN118      0.2608
     65  OE1       -6.8760  -16.9200   14.9110 O.2   118  GLN118     -0.2717
     66  NE2       -6.9810  -16.0560   12.8490 N.am  118  GLN118     -0.0878
     67  N        -12.1450  -16.7130   17.9730 N.3   121  GLN121     -0.1245
     68  CA       -11.1250  -15.6570   18.1210 C.3   121  GLN121      0.1566
     69  C        -11.2650  -14.5300   17.0930 C.2   121  GLN121      0.2260
     70  O        -10.8630  -13.3940   17.3330 O.2   121  GLN121     -0.2867
     71  CB        -9.7100  -16.2170   18.0410 C.3   121  GLN121      0.0367
     72  CG        -9.3560  -17.2700   19.0940 C.3   121  GLN121      0.0905
     73  CD        -9.1070  -16.6760   20.4620 C.2   121  GLN121      0.2608
     74  OE1       -9.4570  -15.5420   20.7290 O.2   121  GLN121     -0.2717
     75  NE2       -8.4660  -17.4320   21.3220 N.am  121  GLN121     -0.0878
     76  N         -5.0640   -8.8700   20.1080 N.3   173  HIS173     -0.1226
     77  CA        -4.7260  -10.2890   20.2940 C.3   173  HIS173      0.1752
     78  C         -3.7020  -10.7860   19.2770 C.2   173  HIS173      0.2595
     79  O         -3.5940  -10.2800   18.1450 O.2   173  HIS173     -0.2718
     80  CB        -6.0410  -11.0750   20.1940 C.3   173  HIS173      0.0759
     81  CG        -5.9720  -12.5310   20.5340 C.ar  173  HIS173      0.0818
     82  ND1       -6.3290  -13.0570   21.7550 N.ar  173  HIS173     -0.2268
     83  CD2       -5.6270  -13.5840   19.7650 C.ar  173  HIS173      0.1154
     84  CE1       -6.1820  -14.3760   21.7170 C.ar  173  HIS173      0.1986
     85  NE2       -5.7960  -14.7200   20.5110 N.ar  173  HIS173     -0.2212
     86  N         -2.9660  -11.8180   19.6680 N.am  174  ARG174     -0.1980
     87  CA        -2.0370  -12.5280   18.7820 C.3   174  ARG174      0.1597
     88  C         -2.7550  -12.9260   17.4860 C.2   174  ARG174      0.2287
     89  O         -3.9190  -13.3460   17.5170 O.2   174  ARG174     -0.2864
     90  CB        -1.5370  -13.7580   19.5440 C.3   174  ARG174      0.0334
     91  CG        -0.3930  -14.5520   18.9300 C.3   174  ARG174      0.0492
     92  CD         0.0770  -15.5750   19.9450 C.3   174  ARG174      0.2205
     93  NE         1.2280  -16.3420   19.4700 N.pl3 174  ARG174     -0.0865
     94  CZ         1.6440  -17.4660   20.0300 C.cat 174  ARG174      0.5346
     95  NH1        0.9750  -18.0360   21.0180 N.pl3 174  ARG174      0.1354
     96  NH2        2.7550  -18.0320   19.5830 N.pl3 174  ARG174      0.1354
     97  N          4.0910  -17.1790   12.2180 N.3   223  TRP223     -0.1241
     98  CA         2.8480  -16.6230   12.7640 C.3   223  TRP223      0.1605
     99  C          3.0810  -15.3350   13.5360 C.2   223  TRP223      0.2264
    100  O          2.3670  -14.3440   13.3120 O.2   223  TRP223     -0.2867
    101  CB         2.1900  -17.7030   13.6200 C.3   223  TRP223      0.0550
    102  CG         0.9470  -17.3490   14.3550 C.ar  223  TRP223      0.0003
    103  CD1        0.8020  -17.2190   15.7190 C.ar  223  TRP223      0.0946
    104  CD2       -0.3550  -17.1930   13.8030 C.ar  223  TRP223      0.0152
    105  NE1       -0.5040  -16.9770   16.0160 N.ar  223  TRP223     -0.2442
    106  CE2       -1.2450  -16.9690   14.8740 C.ar  223  TRP223      0.0810
    107  CE3       -0.8700  -17.2480   12.5030 C.ar  223  TRP223      0.0012
    108  CZ2       -2.5960  -16.7660   14.6840 C.ar  223  TRP223      0.0191
    109  CZ3       -2.2230  -17.0430   12.3180 C.ar  223  TRP223      0.0001
    110  CH2       -3.0690  -16.8180   13.4050 C.ar  223  TRP223      0.0015
    111  N          0.4370  -21.4290    8.4260 N.3   240  ARG240     -0.1245
    112  CA        -0.5550  -20.7010    9.2270 C.3   240  ARG240      0.1563
    113  C         -0.4790  -19.1870    9.0220 C.2   240  ARG240      0.2260
    114  O         -1.5080  -18.5250    9.0230 O.2   240  ARG240     -0.2867
    115  CB        -0.4000  -21.0420   10.6920 C.3   240  ARG240      0.0307
    116  CG        -1.6250  -20.6830   11.4870 C.3   240  ARG240      0.0489
    117  CD        -1.3470  -20.8060   12.9600 C.3   240  ARG240      0.2205
    118  NE        -2.5210  -20.4340   13.7180 N.pl3 240  ARG240     -0.0865
    119  CZ        -2.5060  -20.2040   15.0370 C.cat 240  ARG240      0.5346
    120  NH1       -1.3700  -20.3010   15.7250 N.pl3 240  ARG240      0.1354
    121  NH2       -3.6420  -19.8620   15.6180 N.pl3 240  ARG240      0.1354
    122  N         -8.3050   -9.0870   29.9240 N.3   324  GLN324     -0.1245
    123  CA        -7.2880   -9.1000   30.9660 C.3   324  GLN324      0.1566
    124  C         -6.1810   -8.1540   30.5310 C.2   324  GLN324      0.2260
    125  O         -6.2450   -7.6130   29.4310 O.2   324  GLN324     -0.2867
    126  CB        -6.7380  -10.5040   31.3000 C.3   324  GLN324      0.0367
    127  CG        -7.2190  -11.6550   30.4350 C.3   324  GLN324      0.0905
    128  CD        -6.8360  -11.6310   28.9880 C.2   324  GLN324      0.2608
    129  OE1       -7.4330  -12.3490   28.1620 O.2   324  GLN324     -0.2717
    130  NE2       -5.8050  -10.8430   28.6390 N.am  324  GLN324     -0.0878
    131  N          5.1550  -12.8560   26.9810 N.3   334  PHE334     -0.1227
    132  CA         3.8950  -12.2970   26.4590 C.3   334  PHE334      0.1736
    133  C          2.7470  -13.1060   27.0850 C.2   334  PHE334      0.2595
    134  O          2.9780  -14.0500   27.8220 O.2   334  PHE334     -0.2718
    135  CB         3.8480  -12.2770   24.9230 C.3   334  PHE334      0.0547
    136  CG         3.8270  -13.6370   24.2780 C.ar  334  PHE334     -0.0202
    137  CD1        4.9970  -14.3710   24.1240 C.ar  334  PHE334     -0.0042
    138  CD2        2.6570  -14.1770   23.7780 C.ar  334  PHE334     -0.0042
    139  CE1        4.9940  -15.5840   23.5160 C.ar  334  PHE334     -0.0003
    140  CE2        2.6390  -15.4150   23.1700 C.ar  334  PHE334     -0.0003
    141  CZ         3.8180  -16.1210   23.0400 C.ar  334  PHE334     -0.0000
    142  N          1.5010  -12.7400   26.7980 N.am  335  ASP335     -0.1960
    143  CA         0.3140  -13.4950   27.2720 C.3   335  ASP335      0.1840
    144  C         -0.1330  -13.0790   28.6650 C.2   335  ASP335      0.2622
    145  O          0.0770  -11.9260   29.0530 O.2   335  ASP335     -0.2715
    146  CB         0.4050  -15.0150   27.0350 C.3   335  ASP335      0.1450
    147  CG        -0.9760  -15.6160   26.7760 C.2   335  ASP335      0.3671
    148  OD1       -1.5500  -15.3160   25.6910 O.co2 335  ASP335     -0.2456
    149  OD2       -1.5050  -16.3260   27.6630 O.co2 335  ASP335     -0.2456
    150  N         -0.8610  -13.9540   29.3710 N.am  336  LYS336     -0.1963
    151  CA        -1.6240  -13.5340   30.5480 C.3   336  LYS336      0.1728
    152  C         -1.6080  -14.7070   31.5370 C.2   336  LYS336      0.2616
    153  O         -0.5120  -15.2090   31.8560 O.2   336  LYS336     -0.2715
    154  CB        -3.0180  -12.9720   30.1860 C.3   336  LYS336      0.0311
    155  CG        -3.8640  -13.8220   29.2690 C.3   336  LYS336      0.0038
    156  CD        -3.6790  -13.5080   27.8060 C.3   336  LYS336      0.0206
    157  CE        -4.5500  -14.3530   26.9350 C.3   336  LYS336      0.1093
    158  NZ        -4.2190  -14.1680   25.5050 N.3   336  LYS336     -0.1314
    159  N         -2.7700  -15.1350   32.0500 N.am  337  ARG337     -0.1977
    160  CA        -2.9210  -16.3830   32.8430 C.3   337  ARG337      0.1597
    161  C         -2.4370  -16.2930   34.2800 C.2   337  ARG337      0.2287
    162  O         -3.1520  -16.6470   35.2160 O.2   337  ARG337     -0.2864
    163  CB        -2.2840  -17.5870   32.1170 C.3   337  ARG337      0.0334
    164  CG        -2.8650  -17.8110   30.7270 C.3   337  ARG337      0.0492
    165  CD        -2.0010  -18.7420   29.8980 C.3   337  ARG337      0.2205
    166  NE        -2.4760  -18.8240   28.5210 N.pl3 337  ARG337     -0.0865
    167  CZ        -3.4570  -19.6080   28.1050 C.cat 337  ARG337      0.5346
    168  NH1       -3.9930  -20.5100   28.8990 N.pl3 337  ARG337      0.1354
    169  NH2       -3.8730  -19.5350   26.8580 N.pl3 337  ARG337      0.1354
    170  N         -2.2600  -24.7640   26.5250 N.3   420  GLU420     -0.1231
    171  CA        -1.3760  -23.8350   25.8790 C.3   420  GLU420      0.1699
    172  C         -0.7350  -22.8940   26.9120 C.2   420  GLU420      0.2592
    173  O         -1.3920  -22.4500   27.8440 O.2   420  GLU420     -0.2718
    174  CB        -2.1120  -23.0470   24.8140 C.3   420  GLU420      0.0402
    175  CG        -1.1950  -22.2750   23.8830 C.3   420  GLU420      0.1161
    176  CD        -1.9340  -21.4810   22.8320 C.2   420  GLU420      0.3649
    177  OE1       -3.1710  -21.2830   22.9830 O.co2 420  GLU420     -0.2457
    178  OE2       -1.2370  -21.0400   21.8890 O.co2 420  GLU420     -0.2457
    179  N          0.5420  -22.6130   26.7350 N.am  421  HIS421     -0.1976
    180  CA         1.3700  -21.7520   27.5660 C.3   421  HIS421      0.1656
    181  C          1.7880  -22.3250   28.9150 C.2   421  HIS421      0.2291
    182  O          2.6640  -21.7520   29.5800 O.2   421  HIS421     -0.2864
    183  CB         0.8090  -20.3350   27.7030 C.3   421  HIS421      0.0771
    184  CG         0.7120  -19.5990   26.4050 C.ar  421  HIS421      0.0820
    185  ND1        1.8060  -19.3810   25.5970 N.ar  421  HIS421     -0.2267
    186  CD2       -0.3470  -19.0620   25.7470 C.ar  421  HIS421      0.1154
    187  CE1        1.4320  -18.7030   24.5260 C.ar  421  HIS421      0.1986
    188  NE2        0.1330  -18.4910   24.5960 N.ar  421  HIS421     -0.2212
@<TRIPOS>BOND
     1   111   112    1
     2   113   114    2
     3   113   112    1
     4   112   115    1
     5   115   116    1
     6   116   117    1
     7    97    98    1
     8   109   107   ar
     9   109   110   ar
    10   107   104   ar
    11    98    99    1
    12    98   101    1
    13    66    64   am
    14   117   118    1
    15   100    99    2
    16    58    59    1
    17   110   108   ar
    18    63    64    1
    19    63    62    1
    20   101   102    1
    21   118   119    2
    22    64    65    2
    23   104   102   ar
    24   104   106   ar
    25    59    62    1
    26    59    60    1
    27   102   103   ar
    28   108   106   ar
    29   106   105   ar
    30   119   121    1
    31   119   120    1
    32    60    61    2
    33   103   105   ar
    34    69    70    2
    35    69    68    1
    36    88    89    2
    37    88    87    1
    38    67    68    1
    39    71    68    1
    40    71    72    1
    41    79    78    2
    42    87    90    1
    43    87    86    1
    44    91    90    1
    45    91    92    1
    46    72    73    1
    47    78    86   am
    48    78    77    1
    49    93    92    1
    50    93    94    2
    51    39    40    1
    52    96    94    1
    53    83    85   ar
    54    83    81   ar
    55    94    95    1
    56    40    43    1
    57    40    41    1
    58    76    77    1
    59    80    77    1
    60    80    81    1
    61    73    74    2
    62    73    75   am
    63    85    84   ar
    64    43    44    1
    65    81    82   ar
    66    44    45    1
    67    41    42    2
    68    45    46    1
    69    46    47    1
    70    84    82   ar
    71     8     6   ar
    72   178   176   ar
    73    48    49    1
    74    54    56   ar
    75    54    53   ar
    76    56    57   ar
    77     5     6    1
    78     5     2    1
    79    49    52    1
    80    49    50    1
    81     6     7   ar
    82   176   177   ar
    83   176   175    1
    84     4     3    2
    85   141   140   ar
    86   141   139   ar
    87    53    52    1
    88    53    55   ar
    89   140   138   ar
    90    57    55   ar
    91   139   137   ar
    92     1     2    1
    93    50    51    2
    94   138   136   ar
    95     2     3    1
    96   175   174    1
    97     3     9   am
    98    16    14   ar
    99   137   136   ar
   100   136   135    1
   101    13    14    1
   102    13    10    1
   103   187   188   ar
   104   187   185   ar
   105   188   186   ar
   106   174   171    1
   107    14    15   ar
   108   135   132    1
   109    34    33    2
   110     9    10    1
   111    12    11    2
   112    30    29    1
   113    11    10    1
   114   158   157    1
   115   185   184   ar
   116   148   147   ar
   117   186   184   ar
   118   171   170    1
   119   171   172    1
   120    29    26    1
   121    35    36    1
   122    35    32    1
   123    33    32    1
   124    37    36    2
   125   184   183    1
   126    36    38   am
   127   132   131    1
   128   132   133    1
   129   179   172   am
   130   179   180    1
   131   147   146    1
   132   147   149   ar
   133   142   133   am
   134   142   143    1
   135   169   167    1
   136   172   173    2
   137    32    31    1
   138   157   156    1
   139   146   143    1
   140   133   134    2
   141   143   144    1
   142    26    27    1
   143    26    25    1
   144   180   183    1
   145   180   181    1
   146   156   155    1
   147    27    28    2
   148   167   166    2
   149   167   168    1
   150   129   128    2
   151    25    19   am
   152   166   165    1
   153   130   128   am
   154   144   145    2
   155   144   150   am
   156    23    22    1
   157   181   182    2
   158   128   127    1
   159   155   154    1
   160    22    24    1
   161    22    21    1
   162   150   151    1
   163   125   124    2
   164    19    18    1
   165    19    20    2
   166   165   164    1
   167   122   123    1
   168   154   151    1
   169    18    21    1
   170    18    17    1
   171   127   126    1
   172   124   123    1
   173   151   152    1
   174   164   163    1
   175   123   126    1
   176   152   153    2
   177   152   159   am
   178   159   160    1
   179   163   160    1
   180   160   161    1
   181   161   162    2
