@<TRIPOS>MOLECULE
tmp/5g3jA01.pdb
 201 188 0 0 0
SMALL
GASTEIGER

@<TRIPOS>ATOM
      1  N          4.0580  -44.3760   -2.5990 N.3    32  MET32      -0.1245
      2  CA         3.7790  -42.9390   -2.6130 C.3    32  MET32       0.1570
      3  C          4.9030  -42.1580   -3.2820 C.2    32  MET32       0.2261
      4  O          4.6360  -41.3490   -4.1690 O.2    32  MET32      -0.2867
      5  CB         3.4920  -42.4130   -1.1930 C.3    32  MET32       0.0387
      6  CG         2.1090  -42.8060   -0.6750 C.3    32  MET32       0.0595
      7  SD         1.7360  -42.2510    1.0200 S.3    32  MET32      -0.1393
      8  CE         1.6920  -40.4900    0.7670 C.3    32  MET32       0.0692
      9  N          5.1000  -42.9230   -7.0290 N.3    35  LEU35      -0.1231
     10  CA         3.9690  -42.2400   -7.6720 C.3    35  LEU35       0.1693
     11  C          4.2100  -40.7430   -7.8400 C.2    35  LEU35       0.2592
     12  O          3.8760  -40.2050   -8.8930 O.2    35  LEU35      -0.2718
     13  CB         2.6320  -42.5290   -6.9680 C.3    35  LEU35       0.0284
     14  CG         2.1050  -43.9830   -7.0690 C.3    35  LEU35       0.0019
     15  CD1        0.7750  -44.1260   -6.3680 C.3    35  LEU35       0.0001
     16  CD2        1.9860  -44.4500   -8.5040 C.3    35  LEU35       0.0001
     17  N          4.8770  -40.0980   -6.8540 N.am   36  ASN36      -0.1974
     18  CA         5.2520  -38.6860   -6.9330 C.3    36  ASN36       0.1688
     19  C          6.2000  -38.4470   -8.1030 C.2    36  ASN36       0.2292
     20  O          5.9640  -37.5160   -8.8720 O.2    36  ASN36      -0.2864
     21  CB         5.8760  -38.1940   -5.6190 C.3    36  ASN36       0.1181
     22  CG         4.9030  -38.0670   -4.4820 C.2    36  ASN36       0.2629
     23  OD1        3.6930  -38.1270   -4.6590 O.2    36  ASN36      -0.2716
     24  ND2        5.4060  -37.8350   -3.2890 N.am   36  ASN36      -0.0877
     25  N          6.6410  -40.4140  -10.8090 N.3    38  LEU38      -0.1231
     26  CA         5.8720  -40.6910  -12.0200 C.3    38  LEU38       0.1693
     27  C          4.9780  -39.4930  -12.3770 C.2    38  LEU38       0.2592
     28  O          4.9370  -39.0950  -13.5480 O.2    38  LEU38      -0.2718
     29  CB         5.0230  -41.9710  -11.8430 C.3    38  LEU38       0.0284
     30  CG         4.2190  -42.4520  -13.0690 C.3    38  LEU38       0.0019
     31  CD1        5.1430  -42.7110  -14.2860 C.3    38  LEU38       0.0001
     32  CD2        3.4080  -43.6980  -12.7240 C.3    38  LEU38       0.0001
     33  N          4.3090  -38.9230  -11.3680 N.am   39  GLY39      -0.1957
     34  CA         3.4190  -37.7790  -11.5160 C.3    39  GLY39       0.1869
     35  C          4.1170  -36.5760  -12.1240 C.2    39  GLY39       0.2309
     36  O          3.5450  -35.9000  -12.9860 O.2    39  GLY39      -0.2863
     37  N          4.6410  -37.2910  -15.6840 N.3    42  GLN42      -0.1245
     38  CA         3.3480  -37.1780  -16.3650 C.3    42  GLN42       0.1566
     39  C          2.9750  -35.7240  -16.5890 C.2    42  GLN42       0.2260
     40  O          2.4090  -35.3860  -17.6380 O.2    42  GLN42      -0.2867
     41  CB         2.2390  -37.8930  -15.5860 C.3    42  GLN42       0.0367
     42  CG         2.3320  -39.4090  -15.6790 C.3    42  GLN42       0.0905
     43  CD         1.7520  -40.0150  -16.9400 C.2    42  GLN42       0.2608
     44  OE1        1.5600  -39.3620  -17.9860 O.2    42  GLN42      -0.2717
     45  NE2        1.4850  -41.3040  -16.8660 N.am   42  GLN42      -0.0878
     46  N         -3.9550  -29.8540  -12.9680 N.3    72  TRP72      -0.1227
     47  CA        -2.9650  -30.9400  -12.9470 C.3    72  TRP72       0.1737
     48  C         -3.4880  -32.2840  -12.3660 C.2    72  TRP72       0.2595
     49  O         -3.4140  -33.3040  -13.0620 O.2    72  TRP72      -0.2718
     50  CB        -1.6740  -30.4870  -12.2490 C.3    72  TRP72       0.0564
     51  CG        -1.7420  -30.3650  -10.7550 C.ar   72  TRP72       0.0003
     52  CD1       -2.4090  -29.4200  -10.0350 C.ar   72  TRP72       0.0946
     53  CD2       -1.1400  -31.2470   -9.8040 C.ar   72  TRP72       0.0152
     54  NE1       -2.2570  -29.6560   -8.6900 N.ar   72  TRP72      -0.2442
     55  CE2       -1.4610  -30.7600   -8.5190 C.ar   72  TRP72       0.0810
     56  CE3       -0.3440  -32.3960   -9.9120 C.ar   72  TRP72       0.0012
     57  CZ2       -0.9980  -31.3740   -7.3480 C.ar   72  TRP72       0.0191
     58  CZ3        0.0870  -33.0220   -8.7500 C.ar   72  TRP72       0.0001
     59  CH2       -0.2290  -32.5070   -7.4900 C.ar   72  TRP72       0.0015
     60  N         -4.0750  -32.2620  -11.1420 N.am   73  MET73      -0.1979
     61  CA        -4.5840  -33.4480  -10.4520 C.3    73  MET73       0.1605
     62  C         -5.8070  -34.0210  -11.1790 C.2    73  MET73       0.2287
     63  O         -5.9370  -35.2430  -11.3040 O.2    73  MET73      -0.2864
     64  CB        -4.8900  -33.1330   -8.9660 C.3    73  MET73       0.0413
     65  CG        -5.2530  -34.3720   -8.1250 C.3    73  MET73       0.0598
     66  SD        -3.9060  -35.5910   -8.0640 S.3    73  MET73      -0.1393
     67  CE        -2.9730  -34.9250   -6.6820 C.3    73  MET73       0.0692
     68  N         -4.5250  -35.8270  -14.3620 N.3    76  MET76      -0.1230
     69  CA        -3.8510  -37.0590  -13.9830 C.3    76  MET76       0.1702
     70  C         -4.7900  -38.1530  -13.5060 C.2    76  MET76       0.2592
     71  O         -4.6280  -39.3030  -13.9150 O.2    76  MET76      -0.2718
     72  CB        -2.7670  -36.7760  -12.9540 C.3    76  MET76       0.0401
     73  CG        -1.6280  -35.9850  -13.5280 C.3    76  MET76       0.0596
     74  SD        -0.0790  -36.3950  -12.7580 S.3    76  MET76      -0.1393
     75  CE        -0.4780  -36.1360  -10.9980 C.3    76  MET76       0.0692
     76  N         -5.7520  -37.7990  -12.6360 N.am   77  ALA77      -0.1980
     77  CA        -6.7220  -38.7390  -12.0890 C.3    77  ALA77       0.1597
     78  C         -7.6510  -39.2390  -13.1940 C.2    77  ALA77       0.2287
     79  O         -7.9510  -40.4340  -13.2390 O.2    77  ALA77      -0.2864
     80  CB        -7.5130  -38.0930  -10.9470 C.3    77  ALA77       0.0319
     81  N         -5.7040  -41.6400  -15.5040 N.3    80  LEU80      -0.1245
     82  CA        -5.5360  -42.8690  -14.7160 C.3    80  LEU80       0.1561
     83  C         -6.8270  -43.6860  -14.7010 C.2    80  LEU80       0.2260
     84  O         -6.7870  -44.9000  -14.9030 O.2    80  LEU80      -0.2867
     85  CB        -5.0780  -42.5420  -13.2820 C.3    80  LEU80       0.0270
     86  CG        -5.2010  -43.6650  -12.2400 C.3    80  LEU80       0.0019
     87  CD1       -4.1600  -44.7570  -12.4750 C.3    80  LEU80       0.0001
     88  CD2       -5.0980  -43.1130  -10.8660 C.3    80  LEU80       0.0001
     89  N         -7.0770  -45.3250  -18.1470 N.3    83  ARG83      -0.1245
     90  CA        -6.1410  -46.4620  -18.2960 C.3    83  ARG83       0.1563
     91  C         -6.6800  -47.6590  -17.5380 C.2    83  ARG83       0.2260
     92  O         -6.6310  -48.7700  -18.0460 O.2    83  ARG83      -0.2867
     93  CB        -4.7570  -46.1680  -17.6790 C.3    83  ARG83       0.0307
     94  CG        -3.9460  -45.1100  -18.3470 C.3    83  ARG83       0.0489
     95  CD        -2.4610  -45.2400  -18.0120 C.3    83  ARG83       0.2205
     96  NE        -2.0500  -44.7560  -16.6830 N.pl3  83  ARG83      -0.0865
     97  CZ        -1.9360  -43.4780  -16.3130 C.cat  83  ARG83       0.5346
     98  NH1       -2.3390  -42.5030  -17.1200 N.pl3  83  ARG83       0.1354
     99  NH2       -1.4790  -43.1710  -15.1090 N.pl3  83  ARG83       0.1354
    100  N         -1.5090  -47.2800  -12.8200 N.3    95  PHE95      -0.1241
    101  CA        -0.6460  -46.0990  -12.8870 C.3    95  PHE95       0.1605
    102  C          0.3250  -46.1940  -14.0590 C.2    95  PHE95       0.2264
    103  O          0.4240  -45.2670  -14.8640 O.2    95  PHE95      -0.2867
    104  CB         0.0910  -45.8850  -11.5560 C.3    95  PHE95       0.0534
    105  CG        -0.7930  -45.3100  -10.4750 C.ar   95  PHE95      -0.0203
    106  CD1       -1.0240  -43.9370  -10.3960 C.ar   95  PHE95      -0.0042
    107  CD2       -1.3740  -46.1320   -9.5190 C.ar   95  PHE95      -0.0042
    108  CE1       -1.8190  -43.4020   -9.3770 C.ar   95  PHE95      -0.0003
    109  CE2       -2.1830  -45.5980   -8.5170 C.ar   95  PHE95      -0.0003
    110  CZ        -2.4090  -44.2390   -8.4580 C.ar   95  PHE95      -0.0000
    111  N         -1.8850  -51.1060   -8.8520 N.3   101  ILE101     -0.1245
    112  CA        -2.2260  -51.2510   -7.4550 C.3   101  ILE101      0.1561
    113  C         -3.3760  -52.2610   -7.3680 C.2   101  ILE101      0.2260
    114  O         -4.5370  -51.9660   -7.6780 O.2   101  ILE101     -0.2867
    115  CB        -2.4120  -49.8850   -6.7340 C.3   101  ILE101      0.0252
    116  CG1       -1.0120  -49.1930   -6.6590 C.3   101  ILE101      0.0019
    117  CG2       -3.0340  -50.0650   -5.3160 C.3   101  ILE101      0.0019
    118  CD1       -0.9740  -47.7960   -6.2620 C.3   101  ILE101      0.0001
    119  N         -3.5180  -47.2330    2.1180 N.3   111  MET111     -0.1245
    120  CA        -3.4690  -47.2440    0.6580 C.3   111  MET111      0.1570
    121  C         -4.8700  -47.0570    0.0590 C.2   111  MET111      0.2261
    122  O         -5.0280  -46.2590   -0.8660 O.2   111  MET111     -0.2867
    123  CB        -2.7820  -48.5110    0.1130 C.3   111  MET111      0.0387
    124  CG        -2.3330  -48.3850   -1.3470 C.3   111  MET111      0.0595
    125  SD        -1.2100  -46.9950   -1.6810 S.3   111  MET111     -0.1393
    126  CE         0.2490  -47.5730   -0.9230 C.3   111  MET111      0.0692
    127  N         -6.6400  -43.3710    0.0450 N.3   114  GLN114     -0.1231
    128  CA        -6.1760  -42.4610   -1.0050 C.3   114  GLN114      0.1698
    129  C         -6.5270  -42.9590   -2.4170 C.2   114  GLN114      0.2592
    130  O         -6.7360  -42.1380   -3.3060 O.2   114  GLN114     -0.2718
    131  CB        -4.6840  -42.0980   -0.8810 C.3   114  GLN114      0.0381
    132  CG        -3.7450  -43.1910   -0.3760 C.3   114  GLN114      0.0905
    133  CD        -2.5070  -42.6190    0.2780 C.2   114  GLN114      0.2608
    134  OE1       -2.0320  -41.5540   -0.0780 O.2   114  GLN114     -0.2717
    135  NE2       -1.9460  -43.2990    1.2550 N.am  114  GLN114     -0.0878
    136  N         -6.6670  -44.2840   -2.5980 N.am  115  CYS115     -0.1970
    137  CA        -6.9870  -44.9220   -3.8750 C.3   115  CYS115      0.1712
    138  C         -8.4810  -44.9190   -4.2460 C.2   115  CYS115      0.2296
    139  O         -8.7980  -44.8870   -5.4380 O.2   115  CYS115     -0.2864
    140  CB        -6.4230  -46.3370   -3.9100 C.3   115  CYS115      0.0983
    141  SG        -4.6290  -46.4100   -4.1260 S.3   115  CYS115     -0.0798
    142  N         -9.8920  -42.3550   -6.7600 N.3   118  MET118     -0.1245
    143  CA        -9.4090  -42.6180   -8.1100 C.3   118  MET118      0.1570
    144  C        -10.1370  -43.8310   -8.6830 C.2   118  MET118      0.2261
    145  O        -10.5270  -43.8030   -9.8470 O.2   118  MET118     -0.2867
    146  CB        -7.8820  -42.7800   -8.1160 C.3   118  MET118      0.0387
    147  CG        -7.1550  -41.4670   -7.8740 C.3   118  MET118      0.0595
    148  SD        -5.3590  -41.6360   -7.7040 S.3   118  MET118     -0.1393
    149  CE        -5.2360  -42.3920   -6.1260 C.3   118  MET118      0.0692
    150  N         -7.6240  -35.8060   -3.0680 N.3   204  LEU204     -0.1245
    151  CA        -6.2420  -36.1100   -3.4690 C.3   204  LEU204      0.1561
    152  C         -5.2840  -34.9710   -3.0940 C.2   204  LEU204      0.2260
    153  O         -4.1570  -35.2370   -2.6830 O.2   204  LEU204     -0.2867
    154  CB        -6.1560  -36.4160   -4.9800 C.3   204  LEU204      0.0270
    155  CG        -6.9860  -37.6230   -5.4860 C.3   204  LEU204      0.0019
    156  CD1       -7.1440  -37.5910   -6.9980 C.3   204  LEU204      0.0001
    157  CD2       -6.3730  -38.9540   -5.0370 C.3   204  LEU204      0.0001
    158  N         -4.1400  -34.9780    0.7900 N.3   207  TYR207     -0.1227
    159  CA        -2.9980  -35.8800    1.0190 C.3   207  TYR207      0.1736
    160  C         -1.7320  -35.2190    0.4800 C.2   207  TYR207      0.2595
    161  O         -0.7060  -35.1550    1.1510 O.2   207  TYR207     -0.2718
    162  CB        -3.1950  -37.2370    0.3080 C.3   207  TYR207      0.0548
    163  CG        -4.1320  -38.1780    1.0300 C.ar  207  TYR207     -0.0200
    164  CD1       -3.7030  -38.9110    2.1340 C.ar  207  TYR207     -0.0009
    165  CD2       -5.4330  -38.3850    0.5740 C.ar  207  TYR207     -0.0009
    166  CE1       -4.5600  -39.7930    2.7930 C.ar  207  TYR207      0.0417
    167  CE2       -6.2990  -39.2620    1.2280 C.ar  207  TYR207      0.0417
    168  CZ        -5.8590  -39.9580    2.3430 C.ar  207  TYR207      0.1957
    169  OH        -6.7040  -40.8140    3.0080 O.3   207  TYR207     -0.2866
    170  N         -1.8490  -34.6780   -0.7180 N.am  208  CYS208     -0.1970
    171  CA        -0.8030  -33.9940   -1.4510 C.3   208  CYS208      0.1712
    172  C         -0.1480  -32.8540   -0.6830 C.2   208  CYS208      0.2296
    173  O          1.0660  -32.8680   -0.4830 O.2   208  CYS208     -0.2864
    174  CB        -1.3680  -33.5080   -2.7730 C.3   208  CYS208      0.0983
    175  SG        -0.2550  -33.7410   -4.1430 S.3   208  CYS208     -0.0798
    176  N          1.5390  -34.1440    2.8480 N.3   211  THR211     -0.1218
    177  CA         2.7960  -34.8710    2.6100 C.3   211  THR211      0.1862
    178  C          3.9020  -33.9580    2.1180 C.2   211  THR211      0.2287
    179  O          5.0620  -34.1440    2.5050 O.2   211  THR211     -0.2866
    180  CB         2.5910  -36.0730    1.6890 C.3   211  THR211      0.1770
    181  OG1        2.1040  -35.6060    0.4370 O.3   211  THR211     -0.2211
    182  CG2        1.6250  -37.0960    2.2640 C.3   211  THR211      0.0375
    183  N          8.8280  -34.8640   -3.4750 N.3   221  PHE221     -0.1241
    184  CA         8.1030  -34.5180   -4.6850 C.3   221  PHE221      0.1605
    185  C          9.1370  -34.0070   -5.6910 C.2   221  PHE221      0.2264
    186  O         10.0490  -33.2700   -5.2990 O.2   221  PHE221     -0.2867
    187  CB         7.0340  -33.4520   -4.4110 C.3   221  PHE221      0.0534
    188  CG         5.7960  -33.9960   -3.7360 C.ar  221  PHE221     -0.0203
    189  CD1        5.7680  -34.2050   -2.3580 C.ar  221  PHE221     -0.0042
    190  CD2        4.6530  -34.2870   -4.4750 C.ar  221  PHE221     -0.0042
    191  CE1        4.6230  -34.7110   -1.7350 C.ar  221  PHE221     -0.0003
    192  CE2        3.5030  -34.7740   -3.8480 C.ar  221  PHE221     -0.0003
    193  CZ         3.4970  -34.9860   -2.4810 C.ar  221  PHE221     -0.0000
    194  N          6.1630  -31.0810   -9.5960 N.3   225  LEU225     -0.1245
    195  CA         5.0660  -31.1670   -8.6470 C.3   225  LEU225      0.1561
    196  C          5.2510  -30.2150   -7.5040 C.2   225  LEU225      0.2260
    197  O          4.2830  -29.5420   -7.1330 O.2   225  LEU225     -0.2867
    198  CB         4.8610  -32.6090   -8.1560 C.3   225  LEU225      0.0270
    199  CG         4.4840  -33.6150   -9.2380 C.3   225  LEU225      0.0019
    200  CD1        3.9240  -34.8750   -8.6240 C.3   225  LEU225      0.0001
    201  CD2        3.4970  -33.0140  -10.2640 C.3   225  LEU225      0.0001
@<TRIPOS>BOND
     1    94    95    1
     2    94    93    1
     3    90    89    1
     4    90    93    1
     5    90    91    1
     6    92    91    2
     7    95    96    1
     8    44    43    2
     9    40    39    2
    10    98    97    1
    11    43    45   am
    12    43    42    1
    13    96    97    2
    14    39    38    1
    15    38    37    1
    16    38    41    1
    17    97    99    1
    18    42    41    1
    19    81    82    1
    20    84    83    2
    21   103   102    2
    22    82    83    1
    23    82    85    1
    24    68    69    1
    25    31    30    1
    26   102   101    1
    27    69    70    1
    28    69    72    1
    29    71    70    2
    30    28    27    2
    31    73    72    1
    32    73    74    1
    33    70    76   am
    34    85    86    1
    35    79    78    2
    36    78    77    1
    37    30    32    1
    38    30    29    1
    39    49    48    2
    40    36    35    2
    41    46    47    1
    42    47    48    1
    43    47    50    1
    44   101   100    1
    45   101   104    1
    46    74    75    1
    47    76    77    1
    48    87    86    1
    49    27    26    1
    50    27    33   am
    51    48    60   am
    52    50    51    1
    53    86    88    1
    54    35    34    1
    55    77    80    1
    56    26    29    1
    57    26    25    1
    58   104   105    1
    59    34    33    1
    60    63    62    2
    61    62    61    1
    62    60    61    1
    63    51    52   ar
    64    51    53   ar
    65   105   106   ar
    66   105   107   ar
    67    61    64    1
    68   106   108   ar
    69   201   199    1
    70    52    54   ar
    71    56    53   ar
    72    56    58   ar
    73   145   144    2
    74    53    55   ar
    75   194   195    1
    76   107   109   ar
    77   108   110   ar
    78   199   200    1
    79   199   198    1
    80    64    65    1
    81    12    11    2
    82    20    19    2
    83   111   112    1
    84    58    59   ar
    85    54    55   ar
    86   144   143    1
    87   195   198    1
    88   195   196    1
    89    55    57   ar
    90   109   110   ar
    91    16    14    1
    92    65    66    1
    93   146   143    1
    94   146   147    1
    95   143   142    1
    96    19    18    1
    97    66    67    1
    98   147   148    1
    99    11    10    1
   100    11    17   am
   101   148   149    1
   102   114   113    2
   103    10     9    1
   104    10    13    1
   105   196   197    2
   106    59    57   ar
   107   112   113    1
   108   112   115    1
   109    14    13    1
   110    14    15    1
   111   156   155    1
   112    18    17    1
   113    18    21    1
   114   115   116    1
   115   115   117    1
   116   116   118    1
   117   185   186    2
   118   185   184    1
   119    21    22    1
   120   155   157    1
   121   155   154    1
   122   139   138    2
   123   154   151    1
   124   184   187    1
   125   184   183    1
   126    23    22    2
   127    22    24   am
   128   190   192   ar
   129   190   188   ar
   130   187   188    1
   131   138   137    1
   132     4     3    2
   133   175   174    1
   134   141   140    1
   135   140   137    1
   136   137   136    1
   137   192   193   ar
   138   188   189   ar
   139   151   152    1
   140   151   150    1
   141   130   129    2
   142     3     2    1
   143   152   153    2
   144   174   171    1
   145     2     1    1
   146     2     5    1
   147   136   129   am
   148   193   191   ar
   149   129   128    1
   150   189   191   ar
   151   125   124    1
   152   125   126    1
   153   171   170    1
   154   171   172    1
   155   124   123    1
   156     5     6    1
   157   128   131    1
   158   128   127    1
   159   131   132    1
   160   122   121    2
   161   170   160   am
   162   172   173    2
   163     6     7    1
   164   132   133    1
   165   134   133    2
   166   121   120    1
   167   123   120    1
   168   133   135   am
   169   162   159    1
   170   162   163    1
   171   181   180    1
   172   160   159    1
   173   160   161    2
   174   165   163   ar
   175   165   167   ar
   176   120   119    1
   177     8     7    1
   178   158   159    1
   179   163   164   ar
   180   167   168   ar
   181   180   182    1
   182   180   177    1
   183   178   179    2
   184   178   177    1
   185   164   166   ar
   186   168   166   ar
   187   168   169    1
   188   177   176    1
