@<TRIPOS>MOLECULE
tmp/5g3jA00.pdb
 121 116 0 0 0
SMALL
GASTEIGER

@<TRIPOS>ATOM
      1  N          3.8070  -48.4880    1.7480 N.3    28  THR28      -0.1203
      2  CA         3.0180  -47.3050    1.4180 C.3    28  THR28       0.1994
      3  C          3.9710  -46.1790    1.0020 C.2    28  THR28       0.2617
      4  O          3.7920  -45.6040   -0.0670 O.2    28  THR28      -0.2717
      5  CB         2.1150  -46.9410    2.6150 C.3    28  THR28       0.1784
      6  OG1        1.2400  -48.0380    2.8470 O.3    28  THR28      -0.2211
      7  CG2        1.2880  -45.6790    2.3790 C.3    28  THR28       0.0376
      8  N          5.0060  -45.9170    1.8270 N.am   29  TRP29      -0.1975
      9  CA         6.0220  -44.8860    1.6200 C.3    29  TRP29       0.1640
     10  C          6.7180  -45.0590    0.2730 C.2    29  TRP29       0.2290
     11  O          6.8580  -44.0690   -0.4480 O.2    29  TRP29      -0.2864
     12  CB         7.0350  -44.8660    2.7860 C.3    29  TRP29       0.0576
     13  CG         8.0760  -43.7890    2.6800 C.ar   29  TRP29       0.0006
     14  CD1        7.9960  -42.5140    3.1660 C.ar   29  TRP29       0.0946
     15  CD2        9.3640  -43.9050    2.0630 C.ar   29  TRP29       0.0152
     16  NE1        9.1670  -41.8410    2.9200 N.ar   29  TRP29      -0.2442
     17  CE2       10.0240  -42.6670    2.2390 C.ar   29  TRP29       0.0810
     18  CE3       10.0330  -44.9430    1.3860 C.ar   29  TRP29       0.0012
     19  CZ2       11.3110  -42.4280    1.7360 C.ar   29  TRP29       0.0191
     20  CZ3       11.2990  -44.6990    0.8710 C.ar   29  TRP29       0.0001
     21  CH2       11.9280  -43.4560    1.0540 C.ar   29  TRP29       0.0015
     22  N          4.0580  -44.3760   -2.5990 N.3    32  MET32      -0.1245
     23  CA         3.7790  -42.9390   -2.6130 C.3    32  MET32       0.1570
     24  C          4.9030  -42.1580   -3.2820 C.2    32  MET32       0.2261
     25  O          4.6360  -41.3490   -4.1690 O.2    32  MET32      -0.2867
     26  CB         3.4920  -42.4130   -1.1930 C.3    32  MET32       0.0387
     27  CG         2.1090  -42.8060   -0.6750 C.3    32  MET32       0.0595
     28  SD         1.7360  -42.2510    1.0200 S.3    32  MET32      -0.1393
     29  CE         1.6920  -40.4900    0.7670 C.3    32  MET32       0.0692
     30  N         -1.0330  -50.1130    4.7070 N.3   109  PRO109     -0.2102
     31  CA        -1.5480  -49.0290    5.5660 C.3   109  PRO109      0.1504
     32  C         -1.9090  -47.7350    4.8420 C.2   109  PRO109      0.2575
     33  O         -1.0700  -47.1320    4.1840 O.2   109  PRO109     -0.2718
     34  CB        -0.4330  -48.8330    6.5980 C.3   109  PRO109      0.0282
     35  CG         0.2000  -50.1690    6.7020 C.3   109  PRO109      0.0208
     36  CD         0.1680  -50.7350    5.3040 C.3   109  PRO109      0.0893
     37  N         -3.2000  -47.3570    4.9290 N.am  110  ASP110     -0.1974
     38  CA        -3.8300  -46.1660    4.3390 C.3   110  ASP110      0.1708
     39  C         -3.7240  -46.0890    2.7930 C.2   110  ASP110      0.2293
     40  O         -3.9000  -45.0100    2.2200 O.2   110  ASP110     -0.2864
     41  CB        -3.3290  -44.8630    5.0000 C.3   110  ASP110      0.1436
     42  CG        -4.3530  -43.7310    5.0130 C.2   110  ASP110      0.3671
     43  OD1       -5.3460  -43.8280    5.7860 O.co2 110  ASP110     -0.2456
     44  OD2       -4.1460  -42.7310    4.2800 O.co2 110  ASP110     -0.2456
     45  N         -7.7090  -45.5980    1.3740 N.3   113  ASP113     -0.1225
     46  CA        -8.2960  -44.2780    1.6100 C.3   113  ASP113      0.1805
     47  C         -7.8510  -43.2310    0.5950 C.2   113  ASP113      0.2597
     48  O         -8.6350  -42.3350    0.2690 O.2   113  ASP113     -0.2718
     49  CB        -8.0640  -43.8150    3.0590 C.3   113  ASP113      0.1424
     50  CG        -8.8200  -44.6410    4.0980 C.2   113  ASP113      0.3668
     51  OD1       -9.8640  -45.2470    3.7390 O.co2 113  ASP113     -0.2456
     52  OD2       -8.3770  -44.6710    5.2720 O.co2 113  ASP113     -0.2456
     53  N         -6.6400  -43.3710    0.0450 N.am  114  GLN114     -0.1979
     54  CA        -6.1760  -42.4610   -1.0050 C.3   114  GLN114      0.1601
     55  C         -6.5270  -42.9590   -2.4170 C.2   114  GLN114      0.2287
     56  O         -6.7360  -42.1380   -3.3060 O.2   114  GLN114     -0.2864
     57  CB        -4.6840  -42.0980   -0.8810 C.3   114  GLN114      0.0394
     58  CG        -3.7450  -43.1910   -0.3760 C.3   114  GLN114      0.0908
     59  CD        -2.5070  -42.6190    0.2780 C.2   114  GLN114      0.2608
     60  OE1       -2.0320  -41.5540   -0.0780 O.2   114  GLN114     -0.2717
     61  NE2       -1.9460  -43.2990    1.2550 N.am  114  GLN114     -0.0878
     62  N         -9.3860  -44.9820   -3.2410 N.3   116  LYS116     -0.1245
     63  CA       -10.8460  -45.0700   -3.4300 C.3   116  LYS116      0.1561
     64  C        -11.4400  -43.9670   -4.3360 C.2   116  LYS116      0.2260
     65  O        -12.3400  -44.2660   -5.1240 O.2   116  LYS116     -0.2867
     66  CB       -11.6130  -45.1620   -2.0860 C.3   116  LYS116      0.0271
     67  CG       -11.3850  -44.0150   -1.1070 C.3   116  LYS116      0.0035
     68  CD       -12.3110  -44.1290    0.0890 C.3   116  LYS116      0.0206
     69  CE       -12.1060  -43.0030    1.0740 C.3   116  LYS116      0.1093
     70  NZ       -12.7990  -43.2690    2.3670 N.3   116  LYS116     -0.1314
     71  N         -4.1400  -34.9780    0.7900 N.3   207  TYR207     -0.1241
     72  CA        -2.9980  -35.8800    1.0190 C.3   207  TYR207      0.1605
     73  C         -1.7320  -35.2190    0.4800 C.2   207  TYR207      0.2264
     74  O         -0.7060  -35.1550    1.1510 O.2   207  TYR207     -0.2867
     75  CB        -3.1950  -37.2370    0.3080 C.3   207  TYR207      0.0534
     76  CG        -4.1320  -38.1780    1.0300 C.ar  207  TYR207     -0.0201
     77  CD1       -3.7030  -38.9110    2.1340 C.ar  207  TYR207     -0.0009
     78  CD2       -5.4330  -38.3850    0.5740 C.ar  207  TYR207     -0.0009
     79  CE1       -4.5600  -39.7930    2.7930 C.ar  207  TYR207      0.0417
     80  CE2       -6.2990  -39.2620    1.2280 C.ar  207  TYR207      0.0417
     81  CZ        -5.8590  -39.9580    2.3430 C.ar  207  TYR207      0.1957
     82  OH        -6.7040  -40.8140    3.0080 O.3   207  TYR207     -0.2866
     83  N         -0.4750  -32.0260    2.5280 N.3   210  GLN210     -0.1231
     84  CA         0.0140  -32.4870    3.8360 C.3   210  GLN210      0.1698
     85  C          1.4020  -33.1110    3.7080 C.2   210  GLN210      0.2592
     86  O          2.3350  -32.6520    4.3650 O.2   210  GLN210     -0.2718
     87  CB        -0.9440  -33.5330    4.4250 C.3   210  GLN210      0.0381
     88  CG        -1.6540  -33.0970    5.6850 C.3   210  GLN210      0.0905
     89  CD        -2.2180  -34.2860    6.4110 C.2   210  GLN210      0.2608
     90  OE1       -1.6660  -34.7450    7.4120 O.2   210  GLN210     -0.2717
     91  NE2       -3.3100  -34.8340    5.8980 N.am  210  GLN210     -0.0878
     92  N          1.5390  -34.1440    2.8480 N.am  211  THR211     -0.1953
     93  CA         2.7960  -34.8710    2.6100 C.3   211  THR211      0.1897
     94  C          3.9020  -33.9580    2.1180 C.2   211  THR211      0.2313
     95  O          5.0620  -34.1440    2.5050 O.2   211  THR211     -0.2863
     96  CB         2.5910  -36.0730    1.6890 C.3   211  THR211      0.1794
     97  OG1        2.1040  -35.6060    0.4370 O.3   211  THR211     -0.2208
     98  CG2        1.6250  -37.0960    2.2640 C.3   211  THR211      0.0378
     99  N          8.9210  -34.0260    8.0500 N.3   216  THR216     -0.1203
    100  CA         9.2120  -35.1530    8.9460 C.3   216  THR216      0.1994
    101  C          8.7420  -36.4890    8.3230 C.2   216  THR216      0.2617
    102  O          9.1450  -37.5590    8.7720 O.2   216  THR216     -0.2717
    103  CB         8.6250  -34.9470   10.3650 C.3   216  THR216      0.1784
    104  OG1        7.2280  -35.2320   10.3560 O.3   216  THR216     -0.2211
    105  CG2        8.8740  -33.5600   10.9280 C.3   216  THR216      0.0376
    106  N          7.8810  -36.4190    7.3050 N.am  217  MET217     -0.1979
    107  CA         7.3730  -37.6040    6.6130 C.3   217  MET217      0.1605
    108  C          8.3420  -38.1520    5.5640 C.2   217  MET217      0.2287
    109  O          8.1620  -39.2780    5.1080 O.2   217  MET217     -0.2864
    110  CB         6.0120  -37.3180    5.9960 C.3   217  MET217      0.0413
    111  CG         4.9270  -37.2250    7.0270 C.3   217  MET217      0.0598
    112  SD         3.3680  -36.5840    6.4000 S.3   217  MET217     -0.1393
    113  CE         3.2290  -37.4240    5.1330 C.3   217  MET217      0.0692
    114  N          8.6530  -37.4920    2.4730 N.3   219  ILE219     -0.1245
    115  CA         7.9680  -37.7670    1.2140 C.3   219  ILE219      0.1561
    116  C          8.3930  -36.7110    0.2040 C.2   219  ILE219      0.2260
    117  O          8.0290  -35.5410    0.3230 O.2   219  ILE219     -0.2867
    118  CB         6.4340  -37.9780    1.3620 C.3   219  ILE219      0.0252
    119  CG1        6.1580  -39.4020    1.9310 C.3   219  ILE219      0.0019
    120  CG2        5.7160  -37.8040    0.0090 C.3   219  ILE219      0.0019
    121  CD1        4.8470  -39.5630    2.6310 C.3   219  ILE219      0.0001
@<TRIPOS>BOND
     1    65    64    2
     2    64    63    1
     3    25    24    2
     4    63    62    1
     5    63    66    1
     6    56    55    2
     7    24    23    1
     8    23    22    1
     9    23    26    1
    10    55    54    1
    11    66    67    1
    12    26    27    1
    13    67    68    1
    14    54    57    1
    15    54    53    1
    16    57    58    1
    17    27    28    1
    18    11    10    2
    19    58    59    1
    20    60    59    2
    21     4     3    2
    22   120   118    1
    23    53    47   am
    24    68    69    1
    25   116   117    2
    26   116   115    1
    27    48    47    2
    28    10     9    1
    29    59    61   am
    30    75    72    1
    31    75    76    1
    32    97    96    1
    33    73    72    1
    34    73    74    2
    35    78    76   ar
    36    78    80   ar
    37    47    46    1
    38    29    28    1
    39    71    72    1
    40    20    21   ar
    41    20    18   ar
    42     3     2    1
    43     3     8   am
    44    76    77   ar
    45    21    19   ar
    46    69    70    1
    47   115   118    1
    48   115   114    1
    49    80    81   ar
    50   118   119    1
    51    45    46    1
    52    18    15   ar
    53     2     1    1
    54     2     5    1
    55    46    49    1
    56     9     8    1
    57     9    12    1
    58    96    98    1
    59    96    93    1
    60    19    17   ar
    61   119   121    1
    62    15    17   ar
    63    15    13   ar
    64    94    95    2
    65    94    93    1
    66    77    79   ar
    67    40    39    2
    68    17    16   ar
    69    81    79   ar
    70    81    82    1
    71     7     5    1
    72    83    84    1
    73    93    92    1
    74     5     6    1
    75    13    12    1
    76    13    14   ar
    77    39    38    1
    78    92    85   am
    79    16    14   ar
    80    49    50    1
    81    85    84    1
    82    85    86    2
    83    51    50   ar
    84    84    87    1
    85    50    52   ar
    86    33    32    2
    87    44    42   ar
    88    38    37    1
    89    38    41    1
    90    87    88    1
    91    30    36    1
    92    30    31    1
    93    32    37   am
    94    32    31    1
    95    41    42    1
    96    42    43   ar
    97   109   108    2
    98   113   112    1
    99    36    35    1
   100   108   107    1
   101    31    34    1
   102    88    89    1
   103    91    89   am
   104   110   107    1
   105   110   111    1
   106   112   111    1
   107    89    90    2
   108    34    35    1
   109   107   106    1
   110   106   101   am
   111    99   100    1
   112   101   102    2
   113   101   100    1
   114   100   103    1
   115   104   103    1
   116   103   105    1
