@<TRIPOS>MOLECULE
tmp/5g3mB03.pdb
 136 131 0 0 0
SMALL
GASTEIGER

@<TRIPOS>ATOM
      1  N         -3.3510  -15.0130   25.7110 N.3     2  ILE2       -0.1245
      2  CA        -3.6780  -15.1620   27.1300 C.3     2  ILE2        0.1561
      3  C         -4.6760  -14.1160   27.6570 C.2     2  ILE2        0.2260
      4  O         -5.5040  -14.4250   28.5330 O.2     2  ILE2       -0.2867
      5  CB        -2.4020  -15.1800   28.0000 C.3     2  ILE2        0.0252
      6  CG1       -1.5380  -16.4110   27.6750 C.3     2  ILE2        0.0019
      7  CG2       -2.7460  -15.1980   29.4820 C.3     2  ILE2        0.0019
      8  CD1       -2.2520  -17.7530   27.7460 C.3     2  ILE2        0.0001
      9  N         -8.0850  -15.2820   26.4080 N.3     5  LEU5       -0.1231
     10  CA        -8.3900  -16.4820   27.1740 C.3     5  LEU5        0.1693
     11  C         -8.9310  -16.1200   28.5720 C.2     5  LEU5        0.2591
     12  O         -9.9610  -16.6460   29.0100 O.2     5  LEU5       -0.2718
     13  CB        -7.1350  -17.3520   27.3010 C.3     5  LEU5        0.0284
     14  CG        -7.2100  -18.5370   28.2630 C.3     5  LEU5        0.0019
     15  CD1       -8.3380  -19.4810   27.8600 C.3     5  LEU5        0.0001
     16  CD2       -5.8790  -19.2810   28.3290 C.3     5  LEU5        0.0001
     17  N         -8.2250  -15.2270   29.2530 N.am    6  ALA6       -0.1980
     18  CA        -8.6540  -14.7090   30.5520 C.3     6  ALA6        0.1597
     19  C        -10.0040  -14.0010   30.4240 C.2     6  ALA6        0.2287
     20  O        -10.8790  -14.1860   31.2660 O.2     6  ALA6       -0.2864
     21  CB        -7.6210  -13.7550   31.1190 C.3     6  ALA6        0.0319
     22  N        -13.1260  -16.5170   29.6400 N.3     9  VAL9       -0.1245
     23  CA       -13.4740  -17.2120   30.8780 C.3     9  VAL9        0.1561
     24  C        -14.1860  -16.2840   31.8730 C.2     9  VAL9        0.2260
     25  O        -15.1940  -16.6620   32.4710 O.2     9  VAL9       -0.2867
     26  CB       -12.2160  -17.8670   31.5080 C.3     9  VAL9        0.0252
     27  CG1      -12.5250  -18.4810   32.8610 C.3     9  VAL9        0.0019
     28  CG2      -11.6640  -18.9240   30.5640 C.3     9  VAL9        0.0019
     29  N        -10.8390  -16.4230   35.8720 N.3    17  PRO17      -0.2102
     30  CA        -9.8500  -17.3280   35.2700 C.3    17  PRO17       0.1504
     31  C         -8.7110  -17.7380   36.2280 C.2    17  PRO17       0.2575
     32  O         -8.1670  -18.8420   36.1110 O.2    17  PRO17      -0.2718
     33  CB        -9.3130  -16.5320   34.0720 C.3    17  PRO17       0.0282
     34  CG        -9.6660  -15.1080   34.3470 C.3    17  PRO17       0.0208
     35  CD       -10.9390  -15.1490   35.1400 C.3    17  PRO17       0.0893
     36  N         -8.3890  -16.8670   37.1820 N.am   18  ILE18      -0.1980
     37  CA        -7.3800  -17.1500   38.2230 C.3    18  ILE18       0.1595
     38  C         -7.6570  -18.4160   39.0380 C.2    18  ILE18       0.2287
     39  O         -6.7220  -19.0490   39.5270 O.2    18  ILE18      -0.2864
     40  CB        -7.2190  -15.9380   39.1850 C.3    18  ILE18       0.0276
     41  CG1       -6.8660  -14.6730   38.4000 C.3    18  ILE18       0.0022
     42  CG2       -6.1540  -16.1970   40.2500 C.3    18  ILE18       0.0022
     43  CD1       -5.7270  -14.8600   37.4270 C.3    18  ILE18       0.0001
     44  N         -8.2800  -21.1710   37.9340 N.3    20  TYR20      -0.1227
     45  CA        -7.7140  -22.2980   37.1640 C.3    20  TYR20       0.1736
     46  C         -6.2280  -22.1230   36.8560 C.2    20  TYR20       0.2595
     47  O         -5.6810  -22.7950   35.9710 O.2    20  TYR20      -0.2718
     48  CB        -8.4830  -22.4740   35.8470 C.3    20  TYR20       0.0548
     49  CG        -9.9730  -22.3310   35.9940 C.ar   20  TYR20      -0.0200
     50  CD1      -10.7420  -23.3610   36.5160 C.ar   20  TYR20      -0.0009
     51  CD2      -10.6220  -21.1560   35.6120 C.ar   20  TYR20      -0.0009
     52  CE1      -12.1110  -23.2300   36.6560 C.ar   20  TYR20       0.0417
     53  CE2      -11.9910  -21.0200   35.7500 C.ar   20  TYR20       0.0417
     54  CZ       -12.7330  -22.0570   36.2690 C.ar   20  TYR20       0.1957
     55  OH       -14.0980  -21.9330   36.4070 O.3    20  TYR20      -0.2866
     56  N         -5.5610  -21.2380   37.5840 N.am   21  MET21      -0.1979
     57  CA        -4.1710  -20.9150   37.2860 C.3    21  MET21       0.1605
     58  C         -3.2380  -22.0900   37.5850 C.2    21  MET21       0.2287
     59  O         -2.2530  -22.3040   36.8780 O.2    21  MET21      -0.2864
     60  CB        -3.7410  -19.6910   38.0780 C.3    21  MET21       0.0413
     61  CG        -2.3890  -19.1370   37.6750 C.3    21  MET21       0.0598
     62  SD        -2.1150  -17.4820   38.3450 S.3    21  MET21      -0.1393
     63  CE        -2.5450  -17.7530   40.0650 C.3    21  MET21       0.0692
     64  N         -3.9950  -30.4660   34.9300 N.3    26  PHE26      -0.1227
     65  CA        -3.9630  -29.8020   33.6170 C.3    26  PHE26       0.1736
     66  C         -4.1820  -28.2980   33.6010 C.2    26  PHE26       0.2596
     67  O         -3.7210  -27.6570   32.6640 O.2    26  PHE26      -0.2718
     68  CB        -4.9630  -30.4720   32.6600 C.3    26  PHE26       0.0547
     69  CG        -4.5370  -31.8390   32.2370 C.ar   26  PHE26      -0.0202
     70  CD1       -3.6670  -32.0050   31.1550 C.ar   26  PHE26      -0.0042
     71  CD2       -4.9450  -32.9590   32.9480 C.ar   26  PHE26      -0.0042
     72  CE1       -3.2390  -33.2660   30.7760 C.ar   26  PHE26      -0.0003
     73  CE2       -4.5150  -34.2350   32.5700 C.ar   26  PHE26      -0.0003
     74  CZ        -3.6630  -34.3830   31.4880 C.ar   26  PHE26      -0.0000
     75  N         -4.8940  -27.7410   34.5850 N.am   27  CYS27      -0.1956
     76  CA        -5.1810  -26.2890   34.5850 C.3    27  CYS27       0.1843
     77  C         -3.9660  -25.5220   35.0800 C.2    27  CYS27       0.2626
     78  O         -3.6530  -25.5350   36.2700 O.2    27  CYS27      -0.2714
     79  CB        -6.4040  -25.9370   35.4370 C.3    27  CYS27       0.0997
     80  SG        -7.9550  -26.7540   35.0070 S.3    27  CYS27      -0.0797
     81  N         -3.2890  -24.8650   34.1510 N.am   28  GLY28      -0.1954
     82  CA        -2.0160  -24.1960   34.4190 C.3    28  GLY28       0.1869
     83  C         -1.0790  -24.4540   33.2690 C.2    28  GLY28       0.2309
     84  O         -1.4580  -25.1170   32.3050 O.2    28  GLY28      -0.2863
     85  N         -9.6040  -28.2980   31.0480 N.3    43  CYS43      -0.1235
     86  CA        -8.2190  -27.8630   30.8180 C.3    43  CYS43       0.1677
     87  C         -7.4360  -28.8200   29.9400 C.2    43  CYS43       0.2270
     88  O         -6.6460  -28.3860   29.0980 O.2    43  CYS43      -0.2867
     89  CB        -7.5030  -27.6630   32.1520 C.3    43  CYS43       0.0956
     90  SG        -8.2310  -26.2690   33.0390 S.3    43  CYS43      -0.0801
     91  N         -8.6010  -28.1110   26.4650 N.3    46  HIS46      -0.1226
     92  CA        -8.0640  -26.8330   26.0320 C.3    46  HIS46       0.1752
     93  C         -6.5630  -26.9370   25.7080 C.2    46  HIS46       0.2596
     94  O         -6.0840  -26.3550   24.7150 O.2    46  HIS46      -0.2718
     95  CB        -8.3180  -25.7860   27.0980 C.3    46  HIS46       0.0759
     96  CG        -8.0410  -24.3880   26.6480 C.ar   46  HIS46       0.0818
     97  ND1       -7.0380  -23.6150   27.1910 N.ar   46  HIS46      -0.2268
     98  CD2       -8.6460  -23.6210   25.7140 C.ar   46  HIS46       0.1154
     99  CE1       -7.0350  -22.4300   26.6040 C.ar   46  HIS46       0.1986
    100  NE2       -8.0010  -22.4070   25.7040 N.ar   46  HIS46      -0.2212
    101  N         -5.8250  -27.6810   26.5300 N.am   47  ASP47      -0.1974
    102  CA        -4.4160  -27.9500   26.2420 C.3    47  ASP47       0.1709
    103  C         -4.2810  -28.6180   24.8740 C.2    47  ASP47       0.2293
    104  O         -3.3840  -28.2810   24.0860 O.2    47  ASP47      -0.2864
    105  CB        -3.7940  -28.8440   27.3230 C.3    47  ASP47       0.1436
    106  CG        -3.5270  -28.1030   28.6220 C.2    47  ASP47       0.3671
    107  OD1       -3.8890  -26.9190   28.7390 O.co2  47  ASP47      -0.2456
    108  OD2       -2.9280  -28.6890   29.5490 O.co2  47  ASP47      -0.2456
    109  N         -5.0220  -25.9890   22.1240 N.3    50  TYR50      -0.1241
    110  CA        -3.8390  -25.1380   21.9110 C.3    50  TYR50       0.1605
    111  C         -2.6720  -25.8610   21.2210 C.2    50  TYR50       0.2264
    112  O         -1.9490  -25.2440   20.4400 O.2    50  TYR50      -0.2867
    113  CB        -3.3660  -24.5290   23.2280 C.3    50  TYR50       0.0534
    114  CG        -4.0270  -23.2130   23.6080 C.ar   50  TYR50      -0.0201
    115  CD1       -5.2900  -22.8550   23.1130 C.ar   50  TYR50      -0.0009
    116  CD2       -3.3840  -22.3290   24.4660 C.ar   50  TYR50      -0.0009
    117  CE1       -5.8740  -21.6550   23.4660 C.ar   50  TYR50       0.0417
    118  CE2       -3.9660  -21.1240   24.8340 C.ar   50  TYR50       0.0417
    119  CZ        -5.2110  -20.7990   24.3250 C.ar   50  TYR50       0.1957
    120  OH        -5.7890  -19.6140   24.6920 O.3    50  TYR50      -0.2866
    121  N        -13.3860  -23.7360   26.1960 N.3    94  ILE94      -0.1245
    122  CA       -13.0150  -23.9400   27.6070 C.3    94  ILE94       0.1561
    123  C        -13.9270  -23.1260   28.5190 C.2    94  ILE94       0.2260
    124  O        -14.3680  -23.6170   29.5390 O.2    94  ILE94      -0.2867
    125  CB       -11.5250  -23.7020   27.9400 C.3    94  ILE94       0.0252
    126  CG1      -11.2180  -24.3590   29.3050 C.3    94  ILE94       0.0019
    127  CG2      -11.1750  -22.2250   27.9510 C.3    94  ILE94       0.0019
    128  CD1       -9.8170  -24.2030   29.8280 C.3    94  ILE94       0.0001
    129  N        -16.0490  -24.8790   31.3880 N.3    98  LEU98      -0.1245
    130  CA       -15.8670  -24.4900   32.7860 C.3    98  LEU98       0.1561
    131  C        -17.1470  -23.9500   33.4340 C.2    98  LEU98       0.2260
    132  O        -17.3410  -24.0900   34.6400 O.2    98  LEU98      -0.2867
    133  CB       -14.7380  -23.4510   32.9110 C.3    98  LEU98       0.0270
    134  CG       -13.3230  -23.9750   32.6020 C.3    98  LEU98       0.0019
    135  CD1      -12.3030  -22.8610   32.5270 C.3    98  LEU98       0.0001
    136  CD2      -12.8650  -24.9820   33.6290 C.3    98  LEU98       0.0001
@<TRIPOS>BOND
     1   112   111    2
     2   111   110    1
     3   110   109    1
     4   110   113    1
     5   115   117   ar
     6   115   114   ar
     7   113   114    1
     8   117   119   ar
     9   114   116   ar
    10   104   103    2
    11   119   120    1
    12   119   118   ar
    13   116   118   ar
    14    94    93    2
    15   103   102    1
    16   100    98   ar
    17   100    99   ar
    18    93    92    1
    19    93   101   am
    20     1     2    1
    21    98    96   ar
    22    92    91    1
    23    92    95    1
    24   121   122    1
    25   102   101    1
    26   102   105    1
    27     9    10    1
    28    99    97   ar
    29    96    95    1
    30    96    97   ar
    31     2     3    1
    32     2     5    1
    33    10    13    1
    34    10    11    1
    35    13    14    1
    36   105   106    1
    37   122   125    1
    38   122   123    1
    39     3     4    2
    40     6     8    1
    41     6     5    1
    42    15    14    1
    43   125   127    1
    44   125   126    1
    45     5     7    1
    46    14    16    1
    47   123   124    2
    48    11    12    2
    49    11    17   am
    50   106   107   ar
    51   106   108   ar
    52    88    87    2
    53    17    18    1
    54   126   128    1
    55    22    23    1
    56    87    86    1
    57    19    18    1
    58    19    20    2
    59    18    21    1
    60    28    26    1
    61    72    70   ar
    62    72    74   ar
    63    86    85    1
    64    86    89    1
    65    23    26    1
    66    23    24    1
    67    70    69   ar
    68   129   130    1
    69    74    73   ar
    70    26    27    1
    71    24    25    2
    72    89    90    1
    73    69    68    1
    74    69    71   ar
    75    84    83    2
    76   135   134    1
    77    73    71   ar
    78   134   133    1
    79   134   136    1
    80    68    65    1
    81    67    66    2
    82   130   133    1
    83   130   131    1
    84    90    80    1
    85    83    82    1
    86   131   132    2
    87    66    65    1
    88    66    75   am
    89    65    64    1
    90    33    34    1
    91    33    30    1
    92    81    82    1
    93    81    77   am
    94    34    35    1
    95    75    76    1
    96    76    77    1
    97    76    79    1
    98    80    79    1
    99    77    78    2
   100    35    29    1
   101    30    29    1
   102    30    31    1
   103    51    53   ar
   104    51    49   ar
   105    53    54   ar
   106    48    49    1
   107    48    45    1
   108    47    46    2
   109    49    50   ar
   110    32    31    2
   111    31    36   am
   112    54    55    1
   113    54    52   ar
   114    50    52   ar
   115    46    45    1
   116    46    56   am
   117    59    58    2
   118    45    44    1
   119    36    37    1
   120    57    56    1
   121    57    58    1
   122    57    60    1
   123    43    41    1
   124    61    60    1
   125    61    62    1
   126    37    38    1
   127    37    40    1
   128    62    63    1
   129    41    40    1
   130    38    39    2
   131    40    42    1
