@<TRIPOS>MOLECULE
tmp/5g3mB02.pdb
 78 76 0 0 0
SMALL
GASTEIGER

@<TRIPOS>ATOM
      1  N         -3.2890  -24.8650   34.1510 N.3    28  GLY28      -0.1210
      2  CA        -2.0160  -24.1960   34.4190 C.3    28  GLY28       0.1956
      3  C         -1.0790  -24.4540   33.2690 C.2    28  GLY28       0.2612
      4  O         -1.4580  -25.1170   32.3050 O.2    28  GLY28      -0.2717
      5  N          0.1480  -23.9470   33.3550 N.am   29  LEU29      -0.1965
      6  CA         1.1320  -24.1630   32.2860 C.3    29  LEU29       0.1728
      7  C          1.4610  -25.6430   32.1400 C.2    29  LEU29       0.2616
      8  O          2.0010  -26.2550   33.0640 O.2    29  LEU29      -0.2715
      9  CB         2.4430  -23.3920   32.5470 C.3    29  LEU29       0.0311
     10  CG         2.7610  -22.2030   31.6450 C.3    29  LEU29       0.0022
     11  CD1        1.7030  -21.1090   31.6960 C.3    29  LEU29       0.0001
     12  CD2        4.1150  -21.6530   32.0510 C.3    29  LEU29       0.0001
     13  N          1.1540  -26.1930   30.9740 N.am   30  GLY30      -0.1955
     14  CA         1.3960  -27.5960   30.6900 C.3    30  GLY30       0.1869
     15  C          0.3760  -28.4950   31.3590 C.2    30  GLY30       0.2309
     16  O         -0.7760  -28.1060   31.5680 O.2    30  GLY30      -0.2863
     17  N         -8.6010  -28.1110   26.4650 N.3    46  HIS46      -0.1226
     18  CA        -8.0640  -26.8330   26.0320 C.3    46  HIS46       0.1752
     19  C         -6.5630  -26.9370   25.7080 C.2    46  HIS46       0.2596
     20  O         -6.0840  -26.3550   24.7150 O.2    46  HIS46      -0.2718
     21  CB        -8.3180  -25.7860   27.0980 C.3    46  HIS46       0.0759
     22  CG        -8.0410  -24.3880   26.6480 C.ar   46  HIS46       0.0818
     23  ND1       -7.0380  -23.6150   27.1910 N.ar   46  HIS46      -0.2268
     24  CD2       -8.6460  -23.6210   25.7140 C.ar   46  HIS46       0.1154
     25  CE1       -7.0350  -22.4300   26.6040 C.ar   46  HIS46       0.1986
     26  NE2       -8.0010  -22.4070   25.7040 N.ar   46  HIS46      -0.2212
     27  N         -5.8250  -27.6810   26.5300 N.am   47  ASP47      -0.1974
     28  CA        -4.4160  -27.9500   26.2420 C.3    47  ASP47       0.1709
     29  C         -4.2810  -28.6180   24.8740 C.2    47  ASP47       0.2293
     30  O         -3.3840  -28.2810   24.0860 O.2    47  ASP47      -0.2864
     31  CB        -3.7940  -28.8440   27.3230 C.3    47  ASP47       0.1436
     32  CG        -3.5270  -28.1030   28.6220 C.2    47  ASP47       0.3671
     33  OD1       -3.8890  -26.9190   28.7390 O.co2  47  ASP47      -0.2456
     34  OD2       -2.9280  -28.6890   29.5490 O.co2  47  ASP47      -0.2456
     35  N         -5.0220  -25.9890   22.1240 N.3    50  TYR50      -0.1227
     36  CA        -3.8390  -25.1380   21.9110 C.3    50  TYR50       0.1736
     37  C         -2.6720  -25.8610   21.2210 C.2    50  TYR50       0.2596
     38  O         -1.9490  -25.2440   20.4400 O.2    50  TYR50      -0.2718
     39  CB        -3.3660  -24.5290   23.2280 C.3    50  TYR50       0.0548
     40  CG        -4.0270  -23.2130   23.6080 C.ar   50  TYR50      -0.0200
     41  CD1       -5.2900  -22.8550   23.1130 C.ar   50  TYR50      -0.0009
     42  CD2       -3.3840  -22.3290   24.4660 C.ar   50  TYR50      -0.0009
     43  CE1       -5.8740  -21.6550   23.4660 C.ar   50  TYR50       0.0417
     44  CE2       -3.9660  -21.1240   24.8340 C.ar   50  TYR50       0.0417
     45  CZ        -5.2110  -20.7990   24.3250 C.ar   50  TYR50       0.1957
     46  OH        -5.7890  -19.6140   24.6920 O.3    50  TYR50      -0.2866
     47  N         -2.4830  -27.1460   21.5320 N.am   51  THR51      -0.1953
     48  CA        -1.4620  -27.9640   20.8670 C.3    51  THR51       0.1897
     49  C         -1.7680  -28.0800   19.3710 C.2    51  THR51       0.2313
     50  O         -0.8740  -27.9040   18.5460 O.2    51  THR51      -0.2863
     51  CB        -1.3370  -29.3710   21.5140 C.3    51  THR51       0.1794
     52  OG1       -0.9860  -29.2290   22.9020 O.3    51  THR51      -0.2208
     53  CG2       -0.2530  -30.2050   20.8370 C.3    51  THR51       0.0378
     54  N         -0.9790  -24.7530   17.6880 N.3    54  GLU54      -0.1245
     55  CA         0.4630  -24.6510   17.4680 C.3    54  GLU54       0.1567
     56  C          0.9150  -25.4840   16.2770 C.2    54  GLU54       0.2260
     57  O          1.6920  -25.0220   15.4470 O.2    54  GLU54      -0.2867
     58  CB         1.2400  -25.1070   18.6990 C.3    54  GLU54       0.0388
     59  CG         1.2540  -24.1210   19.8480 C.3    54  GLU54       0.1160
     60  CD         2.1110  -24.6220   20.9940 C.2    54  GLU54       0.3649
     61  OE1        3.0990  -25.3360   20.7100 O.co2  54  GLU54      -0.2457
     62  OE2        1.7910  -24.3170   22.1690 O.co2  54  GLU54      -0.2457
     63  N         -1.1460  -19.5750   20.0640 N.3    60  PRO60      -0.2102
     64  CA        -2.3050  -19.3960   20.9560 C.3    60  PRO60       0.1504
     65  C         -2.0510  -18.5860   22.2390 C.2    60  PRO60       0.2575
     66  O         -2.9900  -18.0520   22.8250 O.2    60  PRO60      -0.2718
     67  CB        -2.7330  -20.8470   21.2970 C.3    60  PRO60       0.0282
     68  CG        -1.6370  -21.7280   20.8630 C.3    60  PRO60       0.0208
     69  CD        -0.8650  -21.0010   19.8020 C.3    60  PRO60       0.0893
     70  N         -0.8020  -18.4740   22.6660 N.am   61  LYS61      -0.1980
     71  CA        -0.4720  -17.6860   23.8560 C.3    61  LYS61       0.1596
     72  C         -0.4760  -16.1810   23.5960 C.2    61  LYS61       0.2287
     73  O         -0.6300  -15.4030   24.5350 O.2    61  LYS61      -0.2864
     74  CB         0.9080  -18.0560   24.3790 C.3    61  LYS61       0.0298
     75  CG         1.0730  -19.5230   24.7080 C.3    61  LYS61       0.0038
     76  CD         2.5420  -19.9140   24.7770 C.3    61  LYS61       0.0206
     77  CE         2.7130  -21.3730   25.1890 C.3    61  LYS61       0.1093
     78  NZ         2.0700  -21.6980   26.4980 N.3    61  LYS61      -0.1314
@<TRIPOS>BOND
     1    57    56    2
     2    56    55    1
     3    55    54    1
     4    55    58    1
     5    50    49    2
     6    58    59    1
     7    49    48    1
     8    69    63    1
     9    69    68    1
    10    59    60    1
    11    63    64    1
    12    38    37    2
    13    61    60   ar
    14    53    51    1
    15    68    67    1
    16    48    51    1
    17    48    47    1
    18    64    67    1
    19    64    65    1
    20    60    62   ar
    21    37    47   am
    22    37    36    1
    23    51    52    1
    24    36    35    1
    25    36    39    1
    26    65    70   am
    27    65    66    2
    28    70    71    1
    29    41    43   ar
    30    41    40   ar
    31    39    40    1
    32    43    45   ar
    33    72    71    1
    34    72    73    2
    35    40    42   ar
    36    71    74    1
    37    30    29    2
    38    45    46    1
    39    45    44   ar
    40    74    75    1
    41    42    44   ar
    42    75    76    1
    43    20    19    2
    44    76    77    1
    45    29    28    1
    46    77    78    1
    47    26    24   ar
    48    26    25   ar
    49    19    18    1
    50    19    27   am
    51    24    22   ar
    52    18    17    1
    53    18    21    1
    54    28    27    1
    55    28    31    1
    56    25    23   ar
    57    22    21    1
    58    22    23   ar
    59    31    32    1
    60    32    33   ar
    61    32    34   ar
    62    14    13    1
    63    14    15    1
    64    13     7   am
    65    15    16    2
    66    10    11    1
    67    10    12    1
    68    10     9    1
    69     7     6    1
    70     7     8    2
    71     6     9    1
    72     6     5    1
    73     4     3    2
    74     3     5   am
    75     3     2    1
    76     1     2    1
