@<TRIPOS>MOLECULE
tmp/5g3oF00.pdb
 95 92 0 0 0
SMALL
GASTEIGER

@<TRIPOS>ATOM
      1  N         29.9080  -10.0880   20.8720 N.3   201  TYR201     -0.1241
      2  CA        29.4600   -9.0070   20.0080 C.3   201  TYR201      0.1605
      3  C         27.9710   -8.7620   20.2150 C.2   201  TYR201      0.2264
      4  O         27.1970   -9.6860   20.4760 O.2   201  TYR201     -0.2867
      5  CB        29.7070   -9.3350   18.5340 C.3   201  TYR201      0.0534
      6  CG        31.1370   -9.2080   18.0600 C.ar  201  TYR201     -0.0201
      7  CD1       31.6120   -8.0110   17.5380 C.ar  201  TYR201     -0.0009
      8  CD2       32.0010  -10.2930   18.1010 C.ar  201  TYR201     -0.0009
      9  CE1       32.9120   -7.8970   17.0850 C.ar  201  TYR201      0.0417
     10  CE2       33.3020  -10.1870   17.6520 C.ar  201  TYR201      0.0417
     11  CZ        33.7530   -8.9870   17.1460 C.ar  201  TYR201      0.1957
     12  OH        35.0500   -8.8810   16.6970 O.3   201  TYR201     -0.2866
     13  N         32.0270   -4.4350   20.1400 N.3   224  ASN224     -0.1225
     14  CA        32.9040   -5.5920   20.2130 C.3   224  ASN224      0.1785
     15  C         32.7870   -6.2360   21.5910 C.2   224  ASN224      0.2597
     16  O         32.0790   -5.7530   22.4790 O.2   224  ASN224     -0.2718
     17  CB        34.3480   -5.2080   19.8860 C.3   224  ASN224      0.1169
     18  CG        35.0050   -4.3640   20.9650 C.2   224  ASN224      0.2627
     19  OD1       34.4830   -4.2030   22.0690 O.2   224  ASN224     -0.2716
     20  ND2       36.1720   -3.8220   20.6430 N.am  224  ASN224     -0.0877
     21  N         33.5050   -7.3430   21.7750 N.am  225  PHE225     -0.1962
     22  CA        33.3720   -8.1500   22.9870 C.3   225  PHE225      0.1771
     23  C         33.9930   -7.4960   24.2180 C.2   225  PHE225      0.2619
     24  O         33.8420   -8.0360   25.3190 O.2   225  PHE225     -0.2715
     25  CB        33.9860   -9.5460   22.7800 C.3   225  PHE225      0.0574
     26  CG        35.3480   -9.5390   22.1410 C.ar  225  PHE225     -0.0200
     27  CD1       36.4950   -9.4620   22.9140 C.ar  225  PHE225     -0.0042
     28  CD2       35.4780   -9.6340   20.7620 C.ar  225  PHE225     -0.0042
     29  CE1       37.7440   -9.4600   22.3230 C.ar  225  PHE225     -0.0003
     30  CE2       36.7190   -9.6290   20.1670 C.ar  225  PHE225     -0.0003
     31  CZ        37.8560   -9.5430   20.9480 C.ar  225  PHE225     -0.0000
     32  N         34.6680   -6.3570   24.0570 N.am  226  ASP226     -0.1971
     33  CA        35.1690   -5.5590   25.1680 C.3   226  ASP226      0.1709
     34  C         34.1910   -4.4790   25.6120 C.2   226  ASP226      0.2293
     35  O         34.4840   -3.7550   26.5680 O.2   226  ASP226     -0.2864
     36  CB        36.4960   -4.8920   24.7870 C.3   226  ASP226      0.1436
     37  CG        37.6310   -5.8820   24.6490 C.2   226  ASP226      0.3671
     38  OD1       37.5580   -6.9640   25.2630 O.co2 226  ASP226     -0.2456
     39  OD2       38.6060   -5.5710   23.9320 O.co2 226  ASP226     -0.2456
     40  N         31.8290   -0.0470   17.9210 N.3   230  LEU230     -0.1231
     41  CA        32.6380    0.0310   16.7110 C.3   230  LEU230      0.1693
     42  C         32.0340    0.9700   15.6760 C.2   230  LEU230      0.2591
     43  O         32.7630    1.7100   15.0080 O.2   230  LEU230     -0.2718
     44  CB        32.8110   -1.3630   16.1050 C.3   230  LEU230      0.0284
     45  CG        33.3860   -2.4210   17.0500 C.3   230  LEU230      0.0019
     46  CD1       33.4350   -3.7730   16.3570 C.3   230  LEU230      0.0001
     47  CD2       34.7710   -2.0080   17.5410 C.3   230  LEU230      0.0001
     48  N         30.7150    0.9480   15.5240 N.am  231  VAL231     -0.1980
     49  CA        30.0290    1.8420   14.6010 C.3   231  VAL231      0.1595
     50  C         28.6820    2.1990   15.2070 C.2   231  VAL231      0.2287
     51  O         28.0440    1.3760   15.8730 O.2   231  VAL231     -0.2864
     52  CB        29.8780    1.2110   13.2000 C.3   231  VAL231      0.0276
     53  CG1       29.1390   -0.1120   13.2780 C.3   231  VAL231      0.0022
     54  CG2       29.1810    2.1760   12.2460 C.3   231  VAL231      0.0022
     55  N         26.8650   -0.8150    8.9530 N.3   242  THR242     -0.1203
     56  CA        27.5910   -2.0200    8.5890 C.3   242  THR242      0.1994
     57  C         28.8510   -2.1530    9.4310 C.2   242  THR242      0.2618
     58  O         29.4200   -1.1600    9.8980 O.2   242  THR242     -0.2717
     59  CB        27.9810   -2.0160    7.1080 C.3   242  THR242      0.1784
     60  OG1       28.7530   -0.8430    6.8270 O.3   242  THR242     -0.2211
     61  CG2       26.7470   -2.0350    6.2250 C.3   242  THR242      0.0376
     62  N         29.2870   -3.3960    9.6090 N.am  243  ALA243     -0.1965
     63  CA        30.5150   -3.6760   10.3320 C.3   243  ALA243      0.1728
     64  C         30.9620   -5.0970   10.0280 C.2   243  ALA243      0.2616
     65  O         30.1470   -5.9680    9.7170 O.2   243  ALA243     -0.2715
     66  CB        30.3350   -3.4990   11.8430 C.3   243  ALA243      0.0334
     67  N         32.2690   -5.3140   10.1230 N.am  244  GLU244     -0.1977
     68  CA        32.8420   -6.6510   10.0790 C.3   244  GLU244      0.1602
     69  C         32.9510   -7.1900   11.4990 C.2   244  GLU244      0.2287
     70  O         33.4060   -6.4840   12.4050 O.2   244  GLU244     -0.2864
     71  CB        34.2180   -6.6320    9.4150 C.3   244  GLU244      0.0415
     72  CG        34.7510   -8.0100    9.0490 C.3   244  GLU244      0.1163
     73  CD        34.0250   -8.6150    7.8600 C.2   244  GLU244      0.3649
     74  OE1       33.2740   -7.8770    7.1860 O.co2 244  GLU244     -0.2457
     75  OE2       34.2040   -9.8230    7.5970 O.co2 244  GLU244     -0.2457
     76  N         34.2300  -10.5370   13.9600 N.3   246  TYR246     -0.1241
     77  CA        35.1830  -11.6440   14.0290 C.3   246  TYR246      0.1605
     78  C         34.7960  -12.5270   15.2130 C.2   246  TYR246      0.2264
     79  O         35.3560  -12.3900   16.3100 O.2   246  TYR246     -0.2867
     80  CB        36.6180  -11.1360   14.1620 C.3   246  TYR246      0.0534
     81  CG        37.0400  -10.1950   13.0540 C.ar  246  TYR246     -0.0201
     82  CD1       37.5990  -10.6800   11.8790 C.ar  246  TYR246     -0.0009
     83  CD2       36.8800   -8.8210   13.1850 C.ar  246  TYR246     -0.0009
     84  CE1       37.9870   -9.8220   10.8640 C.ar  246  TYR246      0.0417
     85  CE2       37.2640   -7.9560   12.1770 C.ar  246  TYR246      0.0417
     86  CZ        37.8170   -8.4620   11.0200 C.ar  246  TYR246      0.1957
     87  OH        38.2000   -7.6020   10.0180 O.3   246  TYR246     -0.2866
     88  N         37.4050  -14.1810   17.5660 N.3   249  LEU249     -0.1245
     89  CA        38.0910  -13.3530   18.5520 C.3   249  LEU249      0.1561
     90  C         37.3560  -13.3750   19.8830 C.2   249  LEU249      0.2260
     91  O         37.9840  -13.4070   20.9470 O.2   249  LEU249     -0.2867
     92  CB        38.2240  -11.9180   18.0500 C.3   249  LEU249      0.0270
     93  CG        39.1740  -11.6560   16.8840 C.3   249  LEU249      0.0019
     94  CD1       39.2220  -10.1570   16.6590 C.3   249  LEU249      0.0001
     95  CD2       40.5680  -12.2070   17.1410 C.3   249  LEU249      0.0001
@<TRIPOS>BOND
     1    61    59    1
     2    60    59    1
     3    59    56    1
     4    74    73   ar
     5    75    73   ar
     6    73    72    1
     7    56    55    1
     8    56    57    1
     9    72    71    1
    10    71    68    1
    11    57    62   am
    12    57    58    2
    13    62    63    1
    14    65    64    2
    15    87    86    1
    16    64    67   am
    17    64    63    1
    18    68    67    1
    19    68    69    1
    20    63    66    1
    21    84    86   ar
    22    84    82   ar
    23    86    85   ar
    24    69    70    2
    25    82    81   ar
    26    85    83   ar
    27    54    52    1
    28    81    83   ar
    29    81    80    1
    30    52    53    1
    31    52    49    1
    32    76    77    1
    33    77    80    1
    34    77    78    1
    35    49    50    1
    36    49    48    1
    37    43    42    2
    38    50    51    2
    39    78    79    2
    40    48    42   am
    41    42    41    1
    42    44    41    1
    43    44    45    1
    44    46    45    1
    45    94    93    1
    46    12    11    1
    47    41    40    1
    48    93    95    1
    49    93    92    1
    50    45    47    1
    51     9    11   ar
    52     9     7   ar
    53    11    10   ar
    54     7     6   ar
    55    88    89    1
    56    10     8   ar
    57    92    89    1
    58     6     8   ar
    59     6     5    1
    60     5     2    1
    61    89    90    1
    62    90    91    2
    63    17    14    1
    64    17    18    1
    65     2     3    1
    66     2     1    1
    67    13    14    1
    68    30    28   ar
    69    30    31   ar
    70    14    15    1
    71     3     4    2
    72    20    18   am
    73    28    26   ar
    74    31    29   ar
    75    18    19    2
    76    15    21   am
    77    15    16    2
    78    21    22    1
    79    26    25    1
    80    26    27   ar
    81    29    27   ar
    82    25    22    1
    83    22    23    1
    84    39    37   ar
    85    32    23   am
    86    32    33    1
    87    23    24    2
    88    37    36    1
    89    37    38   ar
    90    36    33    1
    91    33    34    1
    92    34    35    2
