@<TRIPOS>MOLECULE
tmp/5g3pF02.pdb
 75 73 0 0 0
SMALL
GASTEIGER

@<TRIPOS>ATOM
      1  N        177.0050   31.0270   13.9090 N.3     3  SER3       -0.1217
      2  CA       175.6620   30.6050   13.4980 C.3     3  SER3        0.1889
      3  C        174.9120   31.7570   12.7640 C.2     3  SER3        0.2288
      4  O        173.9540   31.5060   12.0460 O.2     3  SER3       -0.2866
      5  CB       174.8910   30.0620   14.7100 C.3     3  SER3        0.2089
      6  OG       174.9800   30.9390   15.8030 O.3     3  SER3       -0.2183
      7  N        180.1970   24.3750   13.7690 N.3   240  LEU240     -0.1231
      8  CA       179.5230   25.6160   14.1150 C.3   240  LEU240      0.1693
      9  C        178.0120   25.4960   14.0160 C.2   240  LEU240      0.2592
     10  O        177.3120   26.1510   14.7610 O.2   240  LEU240     -0.2718
     11  CB       180.0170   26.7610   13.2100 C.3   240  LEU240      0.0284
     12  CG       181.5200   27.0410   13.3090 C.3   240  LEU240      0.0019
     13  CD1      181.8840   28.0990   12.2780 C.3   240  LEU240      0.0001
     14  CD2      181.9710   27.4720   14.6880 C.3   240  LEU240      0.0001
     15  N        177.5110   24.7300   13.0610 N.am  241  VAL241     -0.1966
     16  CA       176.0510   24.5530   12.9070 C.3   241  VAL241      0.1727
     17  C        175.8900   23.1620   12.2570 C.2   241  VAL241      0.2616
     18  O        176.7410   22.7050   11.4530 O.2   241  VAL241     -0.2715
     19  CB       175.3610   25.8220   12.2860 C.3   241  VAL241      0.0290
     20  CG1      176.3610   26.3370   11.3290 C.3   241  VAL241      0.0023
     21  CG2      174.0360   25.6160   11.5480 C.3   241  VAL241      0.0023
     22  N        174.8460   22.4710   12.6690 N.am  242  GLN242     -0.1963
     23  CA       174.5780   21.0800   12.2820 C.3   242  GLN242      0.1733
     24  C        173.0760   20.8580   12.0800 C.2   242  GLN242      0.2617
     25  O        172.2830   21.0280   13.0090 O.2   242  GLN242     -0.2715
     26  CB       175.0490   20.1520   13.3980 C.3   242  GLN242      0.0408
     27  CG       174.8590   18.6610   13.1310 C.3   242  GLN242      0.0908
     28  CD       175.6300   18.1980   11.9070 C.2   242  GLN242      0.2608
     29  OE1      176.8620   18.1750   11.9240 O.2   242  GLN242     -0.2717
     30  NE2      174.9060   17.8700   10.8170 N.am  242  GLN242     -0.0878
     31  N        172.6860   20.4900   10.8780 N.am  243  GLY243     -0.1940
     32  CA       171.3090   20.1140   10.5860 C.3   243  GLY243      0.2014
     33  C        171.0320   18.6850   11.0250 C.2   243  GLY243      0.2638
     34  O        171.9610   17.8850   11.2420 O.2   243  GLY243     -0.2714
     35  N        169.7540   18.3740   11.1530 N.am  244  HIS244     -0.1973
     36  CA       169.2670   17.0080   11.4310 C.3   244  HIS244      0.1656
     37  C        168.9210   16.3030   10.1120 C.2   244  HIS244      0.2291
     38  O        169.5660   16.5770    9.1030 O.2   244  HIS244     -0.2864
     39  CB       168.1080   17.0690   12.4250 C.3   244  HIS244      0.0771
     40  CG       168.5180   17.4580   13.8090 C.ar  244  HIS244      0.0820
     41  ND1      167.8700   16.9970   14.9280 N.ar  244  HIS244     -0.2267
     42  CD2      169.5220   18.2600   14.2550 C.ar  244  HIS244      0.1154
     43  CE1      168.4390   17.5070   16.0040 C.ar  244  HIS244      0.1986
     44  NE2      169.4320   18.2920   15.6200 N.ar  244  HIS244     -0.2212
     45  N        165.3570   21.1480    5.6060 N.3   249  GLU249     -0.1231
     46  CA       166.1020   21.9160    6.6150 C.3   249  GLU249      0.1699
     47  C        167.1090   22.7930    5.9050 C.2   249  GLU249      0.2592
     48  O        167.7570   22.3400    4.9530 O.2   249  GLU249     -0.2718
     49  CB       166.9060   21.0720    7.5720 C.3   249  GLU249      0.0402
     50  CG       166.1270   20.3790    8.5990 C.3   249  GLU249      0.1161
     51  CD       167.0110   19.7000    9.6590 C.2   249  GLU249      0.3649
     52  OE1      167.8680   20.3360   10.3260 O.co2 249  GLU249     -0.2457
     53  OE2      166.8050   18.4860    9.7910 O.co2 249  GLU249     -0.2457
     54  N        167.2030   24.0500    6.3420 N.am  250  ILE250     -0.1966
     55  CA       168.1630   25.0010    5.8090 C.3   250  ILE250      0.1727
     56  C        169.1850   25.2470    6.9010 C.2   250  ILE250      0.2616
     57  O        168.8240   25.5270    8.0450 O.2   250  ILE250     -0.2715
     58  CB       167.4670   26.2800    5.3720 C.3   250  ILE250      0.0290
     59  CG1      166.5100   25.9550    4.2170 C.3   250  ILE250      0.0022
     60  CG2      168.4770   27.3170    4.8850 C.3   250  ILE250      0.0023
     61  CD1      165.5890   27.0670    3.8290 C.3   250  ILE250      0.0001
     62  N        170.4530   25.0830    6.5670 N.am  251  VAL251     -0.1963
     63  CA       171.5240   25.2970    7.5140 C.3   251  VAL251      0.1727
     64  C        172.2970   26.5250    7.0650 C.2   251  VAL251      0.2616
     65  O        172.8290   26.5390    5.9690 O.2   251  VAL251     -0.2715
     66  CB       172.4620   24.0710    7.5590 C.3   251  VAL251      0.0290
     67  CG1      173.6800   24.3440    8.4120 C.3   251  VAL251      0.0023
     68  CG2      171.7200   22.8720    8.1030 C.3   251  VAL251      0.0023
     69  N        172.3190   27.5640    7.8910 N.am  252  THR252     -0.1951
     70  CA       173.0110   28.8090    7.5650 C.3   252  THR252      0.1897
     71  C        174.1350   29.1020    8.5350 C.2   252  THR252      0.2313
     72  O        174.1340   28.6330    9.6740 O.2   252  THR252     -0.2863
     73  CB       172.0540   30.0030    7.5300 C.3   252  THR252      0.1794
     74  OG1      171.4420   30.1730    8.8060 O.3   252  THR252     -0.2208
     75  CG2      170.9620   29.8250    6.4550 C.3   252  THR252      0.0378
@<TRIPOS>BOND
     1    61    59    1
     2    59    58    1
     3    60    58    1
     4    48    47    2
     5    58    55    1
     6    45    46    1
     7    55    54    1
     8    55    56    1
     9    47    54   am
    10    47    46    1
    11    65    64    2
    12    75    73    1
    13    62    56   am
    14    62    63    1
    15    46    49    1
    16    56    57    2
    17    64    63    1
    18    64    69   am
    19    63    66    1
    20    73    70    1
    21    73    74    1
    22    66    68    1
    23    66    67    1
    24    70    69    1
    25    70    71    1
    26    49    50    1
    27    71    72    2
    28    50    51    1
    29    38    37    2
    30    51    53   ar
    31    51    52   ar
    32    37    36    1
    33    32    31    1
    34    32    33    1
    35    30    28   am
    36    31    24   am
    37    33    35   am
    38    33    34    2
    39    35    36    1
    40    20    19    1
    41    36    39    1
    42    18    17    2
    43    21    19    1
    44    28    29    2
    45    28    27    1
    46     4     3    2
    47    24    23    1
    48    24    25    2
    49    17    22   am
    50    17    16    1
    51    13    12    1
    52    23    22    1
    53    23    26    1
    54    19    16    1
    55    39    40    1
    56     3     2    1
    57    16    15    1
    58    15     9   am
    59    27    26    1
    60    11    12    1
    61    11     8    1
    62    12    14    1
    63     2     1    1
    64     2     5    1
    65     7     8    1
    66    40    42   ar
    67    40    41   ar
    68     9     8    1
    69     9    10    2
    70    42    44   ar
    71     5     6    1
    72    41    43   ar
    73    44    43   ar
