@<TRIPOS>MOLECULE
tmp/5g3rA01.pdb
 135 125 0 0 0
SMALL
GASTEIGER

@<TRIPOS>ATOM
      1  N         17.2550   -6.1350  164.9470 N.3    36  PHE36      -0.1227
      2  CA        17.3840   -7.5380  164.5410 C.3    36  PHE36       0.1736
      3  C         18.4810   -8.2040  165.3620 C.2    36  PHE36       0.2595
      4  O         19.1540   -7.5630  166.1800 O.2    36  PHE36      -0.2718
      5  CB        17.7170   -7.6570  163.0400 C.3    36  PHE36       0.0547
      6  CG        16.6010   -7.2060  162.1480 C.ar   36  PHE36      -0.0202
      7  CD1       15.5170   -8.0460  161.9070 C.ar   36  PHE36      -0.0042
      8  CD2       16.6170   -5.9340  161.5720 C.ar   36  PHE36      -0.0042
      9  CE1       14.4560   -7.6250  161.0980 C.ar   36  PHE36      -0.0003
     10  CE2       15.5690   -5.5030  160.7530 C.ar   36  PHE36      -0.0003
     11  CZ        14.4900   -6.3450  160.5100 C.ar   36  PHE36      -0.0000
     12  N         18.7170   -9.4870  165.0670 N.am   37  ALA37      -0.1966
     13  CA        19.6840  -10.2800  165.8280 C.3    37  ALA37       0.1728
     14  C         21.0900   -9.6880  165.7730 C.2    37  ALA37       0.2616
     15  O         21.8190   -9.7210  166.7740 O.2    37  ALA37      -0.2715
     16  CB        19.6960  -11.7270  165.3190 C.3    37  ALA37       0.0334
     17  N         21.4980   -9.1410  164.6200 N.am   38  ARG38      -0.1977
     18  CA        22.8340   -8.5500  164.5050 C.3    38  ARG38       0.1597
     19  C         23.0320   -7.3070  165.3800 C.2    38  ARG38       0.2287
     20  O         24.1740   -6.8540  165.5330 O.2    38  ARG38      -0.2864
     21  CB        23.1270   -8.1670  163.0470 C.3    38  ARG38       0.0334
     22  CG        22.2440   -7.0140  162.5460 C.3    38  ARG38       0.0492
     23  CD        22.6110   -6.5900  161.1160 C.3    38  ARG38       0.2205
     24  NE        21.8010   -5.4420  160.7110 N.pl3  38  ARG38      -0.0865
     25  CZ        20.5850   -5.5420  160.1700 C.cat  38  ARG38       0.5346
     26  NH1       20.0570   -6.7490  159.9470 N.pl3  38  ARG38       0.1354
     27  NH2       19.8990   -4.4410  159.8400 N.pl3  38  ARG38       0.1354
     28  N         10.8020   -7.7850  166.2620 N.3    65  ASP65      -0.1239
     29  CA         9.8980   -8.9220  166.0070 C.3    65  ASP65       0.1674
     30  C         10.0750   -9.9240  167.1530 C.2    65  ASP65       0.2266
     31  O         11.0150  -10.7240  167.1640 O.2    65  ASP65      -0.2867
     32  CB        10.1850   -9.5630  164.6520 C.3    65  ASP65       0.1410
     33  CG        10.1290   -8.5560  163.4940 C.2    65  ASP65       0.3668
     34  OD1        9.0930   -7.8890  163.3340 O.co2  65  ASP65      -0.2456
     35  OD2       11.1080   -8.4450  162.7320 O.co2  65  ASP65      -0.2456
     36  N          7.7780  -12.4830  168.7120 N.3    67  GLU67      -0.1245
     37  CA         6.5200  -13.2170  168.7200 C.3    67  GLU67       0.1567
     38  C          6.5610  -14.3910  169.6890 C.2    67  GLU67       0.2260
     39  O          5.6120  -14.6100  170.4450 O.2    67  GLU67      -0.2867
     40  CB         6.1880  -13.7230  167.3040 C.3    67  GLU67       0.0388
     41  CG         6.0170  -12.6080  166.2390 C.3    67  GLU67       0.1160
     42  CD         6.0730  -13.1370  164.7950 C.2    67  GLU67       0.3649
     43  OE1        5.7410  -14.3280  164.6010 O.co2  67  GLU67      -0.2457
     44  OE2        6.4640  -12.3760  163.8620 O.co2  67  GLU67      -0.2457
     45  N          9.5470  -19.5690  166.5720 N.3    70  ARG70      -0.1231
     46  CA        10.6780  -19.4760  165.6540 C.3    70  ARG70       0.1694
     47  C         11.0170  -18.0430  165.2590 C.2    70  ARG70       0.2591
     48  O         11.9820  -17.8370  164.5160 O.2    70  ARG70      -0.2718
     49  CB        10.4310  -20.3340  164.4060 C.3    70  ARG70       0.0321
     50  CG         9.2000  -19.9930  163.6060 C.3    70  ARG70       0.0489
     51  CD         8.8090  -21.1620  162.6690 C.3    70  ARG70       0.2205
     52  NE         7.8400  -20.7240  161.6690 N.pl3  70  ARG70      -0.0865
     53  CZ         8.1760  -20.1080  160.5400 C.cat  70  ARG70       0.5346
     54  NH1        9.4540  -19.8870  160.2720 N.pl3  70  ARG70       0.1354
     55  NH2        7.2420  -19.7130  159.6810 N.pl3  70  ARG70       0.1354
     56  N         10.2740  -17.0590  165.7570 N.am   71  VAL71      -0.1980
     57  CA        10.5450  -15.6390  165.5220 C.3    71  VAL71       0.1595
     58  C         10.6700  -14.9950  166.8990 C.2    71  VAL71       0.2287
     59  O          9.6720  -14.5700  167.5010 O.2    71  VAL71      -0.2864
     60  CB         9.4460  -14.9690  164.6870 C.3    71  VAL71       0.0276
     61  CG1        9.7350  -13.4840  164.4690 C.3    71  VAL71       0.0022
     62  CG2        9.2910  -15.6920  163.3570 C.3    71  VAL71       0.0022
     63  N         13.6740  -12.3400  168.4360 N.3    73  ARG73      -0.1245
     64  CA        14.9980  -11.7170  168.3040 C.3    73  ARG73       0.1563
     65  C         15.7010  -11.5940  169.6460 C.2    73  ARG73       0.2260
     66  O         16.9200  -11.7750  169.7250 O.2    73  ARG73      -0.2867
     67  CB        14.9230  -10.3150  167.6790 C.3    73  ARG73       0.0307
     68  CG        14.1290  -10.1540  166.4070 C.3    73  ARG73       0.0489
     69  CD        14.6870  -10.9100  165.2080 C.3    73  ARG73       0.2205
     70  NE        13.8680  -10.5630  164.0500 N.pl3  73  ARG73      -0.0865
     71  CZ        13.5870  -11.3880  163.0450 C.cat  73  ARG73       0.5346
     72  NH1       14.0520  -12.6310  163.0360 N.pl3  73  ARG73       0.1354
     73  NH2       12.8130  -10.9690  162.0580 N.pl3  73  ARG73       0.1354
     74  N          4.6280  -21.6450  154.2250 N.3   129  ALA129     -0.1231
     75  CA         5.8020  -21.8940  155.0510 C.3   129  ALA129      0.1694
     76  C          6.1760  -20.6940  155.9170 C.2   129  ALA129      0.2591
     77  O          6.8500  -20.8810  156.9350 O.2   129  ALA129     -0.2718
     78  CB         6.9840  -22.3100  154.1710 C.3   129  ALA129      0.0304
     79  N          5.7340  -19.4750  155.5740 N.am  130  VAL130     -0.1980
     80  CA         6.0090  -18.3270  156.4440 C.3   130  VAL130      0.1595
     81  C          5.0230  -18.1940  157.5950 C.2   130  VAL130      0.2287
     82  O          5.2210  -17.3440  158.4710 O.2   130  VAL130     -0.2864
     83  CB         6.0390  -16.9700  155.7000 C.3   130  VAL130      0.0276
     84  CG1        7.2170  -16.9030  154.7690 C.3   130  VAL130      0.0022
     85  CG2        4.7560  -16.7080  154.9230 C.3   130  VAL130      0.0022
     86  N          3.5810  -20.0280  163.5400 N.3   134  ARG134     -0.1245
     87  CA         3.4290  -18.6340  163.9450 C.3   134  ARG134      0.1563
     88  C          1.9760  -18.2170  164.1080 C.2   134  ARG134      0.2260
     89  O          1.7180  -17.1860  164.7240 O.2   134  ARG134     -0.2867
     90  CB         4.1000  -17.6870  162.9470 C.3   134  ARG134      0.0307
     91  CG         5.5910  -17.8460  162.8480 C.3   134  ARG134      0.0489
     92  CD         6.0820  -17.0860  161.6430 C.3   134  ARG134      0.2205
     93  NE         6.0190  -15.6350  161.8390 N.pl3 134  ARG134     -0.0865
     94  CZ         6.1960  -14.7470  160.8580 C.cat 134  ARG134      0.5346
     95  NH1        6.4330  -15.1460  159.5950 N.pl3 134  ARG134      0.1354
     96  NH2        6.1570  -13.4640  161.1360 N.pl3 134  ARG134      0.1354
     97  N         -0.8920   -8.7610  162.0450 N.3   164  LYS164     -0.1245
     98  CA        -0.2870   -8.9730  160.7220 C.3   164  LYS164      0.1561
     99  C         -0.5340  -10.4220  160.3310 C.2   164  LYS164      0.2260
    100  O         -0.6730  -11.2540  161.2280 O.2   164  LYS164     -0.2867
    101  CB         1.2180   -8.6440  160.7610 C.3   164  LYS164      0.0271
    102  CG         1.9880   -9.5080  161.7430 C.3   164  LYS164      0.0035
    103  CD         3.4730   -9.1990  161.7750 C.3   164  LYS164      0.0206
    104  CE         4.2100  -10.2990  162.5300 C.3   164  LYS164      0.1093
    105  NZ         5.6300   -9.9260  162.7800 N.3   164  LYS164     -0.1314
    106  N          7.9750   -4.8120  154.2370 N.3   248  ASP248     -0.1239
    107  CA         9.3910   -4.4670  154.0410 C.3   248  ASP248      0.1674
    108  C          9.5950   -3.9800  152.6010 C.2   248  ASP248      0.2266
    109  O          9.6260   -4.7700  151.6550 O.2   248  ASP248     -0.2867
    110  CB        10.2840   -5.6660  154.3730 C.3   248  ASP248      0.1410
    111  CG        11.8090   -5.3560  154.2460 C.2   248  ASP248      0.3668
    112  OD1       12.2040   -4.1760  154.0750 O.co2 248  ASP248     -0.2456
    113  OD2       12.6230   -6.3150  154.3190 O.co2 248  ASP248     -0.2456
    114  N         12.6250   -5.6730  150.8120 N.3   251  MET251     -0.1245
    115  CA        12.8210   -7.0850  151.0880 C.3   251  MET251      0.1570
    116  C         13.4410   -7.7810  149.8840 C.2   251  MET251      0.2261
    117  O         13.2640   -7.3590  148.7380 O.2   251  MET251     -0.2867
    118  CB        11.4960   -7.7470  151.4480 C.3   251  MET251      0.0387
    119  CG        10.4740   -7.7410  150.3260 C.3   251  MET251      0.0595
    120  SD         9.2680   -9.0260  150.6700 S.3   251  MET251     -0.1393
    121  CE        10.3790  -10.2770  151.3250 C.3   251  MET251      0.0692
    122  N         14.1620   -2.2480  155.4580 N.3   278  CYS278     -0.1221
    123  CA        15.0080   -3.1380  156.2420 C.3   278  CYS278      0.1808
    124  C         16.2580   -3.5890  155.4860 C.2   278  CYS278      0.2601
    125  O         16.2490   -3.7680  154.2630 O.2   278  CYS278     -0.2717
    126  CB        14.2130   -4.3750  156.6720 C.3   278  CYS278      0.0970
    127  SG        12.8360   -3.9380  157.7410 S.3   278  CYS278     -0.0800
    128  N         17.3420   -3.7620  156.2440 N.am  279  ASN279     -0.1974
    129  CA        18.5520   -4.4770  155.8210 C.3   279  ASN279      0.1688
    130  C         19.2130   -3.8840  154.5700 C.2   279  ASN279      0.2292
    131  O         19.9570   -4.5840  153.8800 O.2   279  ASN279     -0.2864
    132  CB        18.2560   -5.9710  155.5970 C.3   279  ASN279      0.1181
    133  CG        17.4730   -6.6030  156.7540 C.2   279  ASN279      0.2629
    134  OD1       17.8210   -6.4370  157.9310 O.2   279  ASN279     -0.2716
    135  ND2       16.3970   -7.3180  156.4200 N.am  279  ASN279     -0.0877
@<TRIPOS>BOND
     1   117   116    2
     2   116   115    1
     3   119   120    1
     4   119   118    1
     5   120   121    1
     6   114   115    1
     7   115   118    1
     8   109   108    2
     9   108   107    1
    10   131   130    2
    11   107   106    1
    12   107   110    1
    13   112   111   ar
    14    78    75    1
    15    74    75    1
    16   111   113   ar
    17   111   110    1
    18   125   124    2
    19   130   129    1
    20    84    83    1
    21    85    83    1
    22    75    76    1
    23   122   123    1
    24   124   123    1
    25   124   128   am
    26    79    76   am
    27    79    80    1
    28   132   129    1
    29   132   133    1
    30    83    80    1
    31   129   128    1
    32    76    77    2
    33   123   126    1
    34   135   133   am
    35    80    81    1
    36   126   127    1
    37   133   134    2
    38    81    82    2
    39    95    94    1
    40    55    53    1
    41    27    25    1
    42    26    25    1
    43    25    24    2
    44    54    53    1
    45    99    98    1
    46    99   100    2
    47    11    10   ar
    48    11     9   ar
    49    53    52    2
    50    24    23    1
    51    98   101    1
    52    98    97    1
    53    10     8   ar
    54   101   102    1
    55    94    96    1
    56    94    93    2
    57     9     7   ar
    58    23    22    1
    59     8     6   ar
    60    92    93    1
    61    92    91    1
    62    52    51    1
    63   102   103    1
    64   103   104    1
    65     7     6   ar
    66    73    71    1
    67     6     5    1
    68   104   105    1
    69    22    21    1
    70    51    50    1
    71    35    33   ar
    72    91    90    1
    73    90    87    1
    74    72    71    1
    75     5     2    1
    76    71    70    2
    77    21    18    1
    78    34    33   ar
    79    62    60    1
    80    33    32    1
    81    86    87    1
    82    50    49    1
    83    44    42   ar
    84    87    88    1
    85    70    69    1
    86    88    89    2
    87    49    46    1
    88    61    60    1
    89    18    17    1
    90    18    19    1
    91    48    47    2
    92     2     1    1
    93     2     3    1
    94    43    42   ar
    95    17    14   am
    96    32    29    1
    97    60    57    1
    98    42    41    1
    99    12     3   am
   100    12    13    1
   101    69    68    1
   102    47    46    1
   103    47    56   am
   104    16    13    1
   105     3     4    2
   106    19    20    2
   107    57    56    1
   108    57    58    1
   109    46    45    1
   110    14    13    1
   111    14    15    2
   112    29    28    1
   113    29    30    1
   114    41    40    1
   115    68    67    1
   116    58    59    2
   117    30    31    2
   118    40    37    1
   119    67    64    1
   120    64    63    1
   121    64    65    1
   122    36    37    1
   123    37    38    1
   124    65    66    2
   125    38    39    2
