@<TRIPOS>MOLECULE
tmp/5g3rA00.pdb
 147 136 0 0 0
SMALL
GASTEIGER

@<TRIPOS>ATOM
      1  N         13.7730   -0.4250  163.7170 N.3    34  ILE34      -0.1245
      2  CA        13.5370   -1.8060  164.1390 C.3    34  ILE34       0.1561
      3  C         14.8960   -2.4950  164.3310 C.2    34  ILE34       0.2260
      4  O         15.8300   -2.2620  163.5540 O.2    34  ILE34      -0.2867
      5  CB        12.6360   -2.5410  163.1150 C.3    34  ILE34       0.0252
      6  CG1       12.4400   -3.9990  163.4890 C.3    34  ILE34       0.0019
      7  CG2       13.1890   -2.4410  161.6860 C.3    34  ILE34       0.0019
      8  CD1       11.7260   -4.7880  162.4080 C.3    34  ILE34       0.0001
      9  N         17.2550   -6.1350  164.9470 N.3    36  PHE36      -0.1241
     10  CA        17.3840   -7.5380  164.5410 C.3    36  PHE36       0.1605
     11  C         18.4810   -8.2040  165.3620 C.2    36  PHE36       0.2264
     12  O         19.1540   -7.5630  166.1800 O.2    36  PHE36      -0.2867
     13  CB        17.7170   -7.6570  163.0400 C.3    36  PHE36       0.0534
     14  CG        16.6010   -7.2060  162.1480 C.ar   36  PHE36      -0.0203
     15  CD1       15.5170   -8.0460  161.9070 C.ar   36  PHE36      -0.0042
     16  CD2       16.6170   -5.9340  161.5720 C.ar   36  PHE36      -0.0042
     17  CE1       14.4560   -7.6250  161.0980 C.ar   36  PHE36      -0.0003
     18  CE2       15.5690   -5.5030  160.7530 C.ar   36  PHE36      -0.0003
     19  CZ        14.4900   -6.3450  160.5100 C.ar   36  PHE36      -0.0000
     20  N         10.8020   -7.7850  166.2620 N.3    65  ASP65      -0.1239
     21  CA         9.8980   -8.9220  166.0070 C.3    65  ASP65       0.1674
     22  C         10.0750   -9.9240  167.1530 C.2    65  ASP65       0.2266
     23  O         11.0150  -10.7240  167.1640 O.2    65  ASP65      -0.2867
     24  CB        10.1850   -9.5630  164.6520 C.3    65  ASP65       0.1410
     25  CG        10.1290   -8.5560  163.4940 C.2    65  ASP65       0.3668
     26  OD1        9.0930   -7.8890  163.3340 O.co2  65  ASP65      -0.2456
     27  OD2       11.1080   -8.4450  162.7320 O.co2  65  ASP65      -0.2456
     28  N         13.6740  -12.3400  168.4360 N.3    73  ARG73      -0.1245
     29  CA        14.9980  -11.7170  168.3040 C.3    73  ARG73       0.1563
     30  C         15.7010  -11.5940  169.6460 C.2    73  ARG73       0.2260
     31  O         16.9200  -11.7750  169.7250 O.2    73  ARG73      -0.2867
     32  CB        14.9230  -10.3150  167.6790 C.3    73  ARG73       0.0307
     33  CG        14.1290  -10.1540  166.4070 C.3    73  ARG73       0.0489
     34  CD        14.6870  -10.9100  165.2080 C.3    73  ARG73       0.2205
     35  NE        13.8680  -10.5630  164.0500 N.pl3  73  ARG73      -0.0865
     36  CZ        13.5870  -11.3880  163.0450 C.cat  73  ARG73       0.5346
     37  NH1       14.0520  -12.6310  163.0360 N.pl3  73  ARG73       0.1354
     38  NH2       12.8130  -10.9690  162.0580 N.pl3  73  ARG73       0.1354
     39  N          6.2760   -6.2650  166.9240 N.3   117  PHE117     -0.1241
     40  CA         5.3560   -6.4380  165.8060 C.3   117  PHE117      0.1605
     41  C          4.6520   -7.7790  166.0140 C.2   117  PHE117      0.2264
     42  O          5.0460   -8.8200  165.4780 O.2   117  PHE117     -0.2867
     43  CB         6.1010   -6.3790  164.4760 C.3   117  PHE117      0.0534
     44  CG         6.4370   -4.9800  164.0140 C.ar  117  PHE117     -0.0203
     45  CD1        5.4550   -3.9950  163.9360 C.ar  117  PHE117     -0.0042
     46  CD2        7.7310   -4.6500  163.6530 C.ar  117  PHE117     -0.0042
     47  CE1        5.7560   -2.6910  163.4940 C.ar  117  PHE117     -0.0003
     48  CE2        8.0490   -3.3490  163.2000 C.ar  117  PHE117     -0.0003
     49  CZ         7.0530   -2.3710  163.1240 C.ar  117  PHE117     -0.0000
     50  N          5.7340  -19.4750  155.5740 N.3   130  VAL130     -0.1245
     51  CA         6.0090  -18.3270  156.4440 C.3   130  VAL130      0.1561
     52  C          5.0230  -18.1940  157.5950 C.2   130  VAL130      0.2260
     53  O          5.2210  -17.3440  158.4710 O.2   130  VAL130     -0.2867
     54  CB         6.0390  -16.9700  155.7000 C.3   130  VAL130      0.0252
     55  CG1        7.2170  -16.9030  154.7690 C.3   130  VAL130      0.0019
     56  CG2        4.7560  -16.7080  154.9230 C.3   130  VAL130      0.0019
     57  N          3.5810  -20.0280  163.5400 N.3   134  ARG134     -0.1245
     58  CA         3.4290  -18.6340  163.9450 C.3   134  ARG134      0.1563
     59  C          1.9760  -18.2170  164.1080 C.2   134  ARG134      0.2260
     60  O          1.7180  -17.1860  164.7240 O.2   134  ARG134     -0.2867
     61  CB         4.1000  -17.6870  162.9470 C.3   134  ARG134      0.0307
     62  CG         5.5910  -17.8460  162.8480 C.3   134  ARG134      0.0489
     63  CD         6.0820  -17.0860  161.6430 C.3   134  ARG134      0.2205
     64  NE         6.0190  -15.6350  161.8390 N.pl3 134  ARG134     -0.0865
     65  CZ         6.1960  -14.7470  160.8580 C.cat 134  ARG134      0.5346
     66  NH1        6.4330  -15.1460  159.5950 N.pl3 134  ARG134      0.1354
     67  NH2        6.1570  -13.4640  161.1360 N.pl3 134  ARG134      0.1354
     68  N         -0.8920   -8.7610  162.0450 N.3   164  LYS164     -0.1231
     69  CA        -0.2870   -8.9730  160.7220 C.3   164  LYS164      0.1693
     70  C         -0.5340  -10.4220  160.3310 C.2   164  LYS164      0.2592
     71  O         -0.6730  -11.2540  161.2280 O.2   164  LYS164     -0.2718
     72  CB         1.2180   -8.6440  160.7610 C.3   164  LYS164      0.0285
     73  CG         1.9880   -9.5080  161.7430 C.3   164  LYS164      0.0035
     74  CD         3.4730   -9.1990  161.7750 C.3   164  LYS164      0.0206
     75  CE         4.2100  -10.2990  162.5300 C.3   164  LYS164      0.1093
     76  NZ         5.6300   -9.9260  162.7800 N.3   164  LYS164     -0.1314
     77  N         -0.5810  -10.7570  159.0360 N.am  165  HIS165     -0.1976
     78  CA        -0.3160   -9.8560  157.9180 C.3   165  HIS165      0.1656
     79  C         -1.5670   -9.5950  157.0790 C.2   165  HIS165      0.2291
     80  O         -1.9580  -10.4370  156.2690 O.2   165  HIS165     -0.2864
     81  CB         0.8000  -10.4480  157.0520 C.3   165  HIS165      0.0771
     82  CG         1.9550  -10.9560  157.8600 C.ar  165  HIS165      0.0820
     83  ND1        1.9360  -12.1760  158.4990 N.ar  165  HIS165     -0.2267
     84  CD2        3.1450  -10.3860  158.1720 C.ar  165  HIS165      0.1154
     85  CE1        3.0740  -12.3470  159.1480 C.ar  165  HIS165      0.1986
     86  NE2        3.8250  -11.2740  158.9670 N.ar  165  HIS165     -0.2212
     87  N         -1.9470  -14.0150  155.4350 N.3   169  HIS169     -0.1241
     88  CA        -0.9260  -14.7180  154.6720 C.3   169  HIS169      0.1621
     89  C         -1.1620  -16.2250  154.5670 C.2   169  HIS169      0.2264
     90  O         -0.3690  -16.9140  153.9120 O.2   169  HIS169     -0.2867
     91  CB         0.4420  -14.4610  155.3020 C.3   169  HIS169      0.0745
     92  CG         1.5490  -14.3810  154.3060 C.ar  169  HIS169      0.0817
     93  ND1        1.7940  -15.3840  153.3980 N.ar  169  HIS169     -0.2268
     94  CD2        2.4730  -13.4180  154.0680 C.ar  169  HIS169      0.1154
     95  CE1        2.8190  -15.0430  152.6350 C.ar  169  HIS169      0.1986
     96  NE2        3.2570  -13.8610  153.0320 N.ar  169  HIS169     -0.2212
     97  N         -0.1080   -4.4240  159.7690 N.3   209  MET209     -0.1245
     98  CA         0.9140   -4.5320  158.7540 C.3   209  MET209      0.1570
     99  C          0.3890   -5.4440  157.6500 C.2   209  MET209      0.2261
    100  O         -0.1870   -6.5070  157.9460 O.2   209  MET209     -0.2867
    101  CB         2.2120   -5.0860  159.3590 C.3   209  MET209      0.0387
    102  CG         3.3920   -5.0960  158.3970 C.3   209  MET209      0.0595
    103  SD         4.8100   -6.0900  158.9170 S.3   209  MET209     -0.1393
    104  CE         5.0120   -5.5500  160.6270 C.3   209  MET209      0.0692
    105  N          0.3380   -8.0610  154.2800 N.3   211  ALA211     -0.1245
    106  CA         1.0540   -9.1580  153.6350 C.3   211  ALA211      0.1562
    107  C          1.5740   -8.7310  152.2640 C.2   211  ALA211      0.2260
    108  O          0.9470   -7.9390  151.5570 O.2   211  ALA211     -0.2867
    109  CB         0.1310  -10.3730  153.4720 C.3   211  ALA211      0.0290
    110  N          4.6880   -3.2210  154.5170 N.3   247  ASP247     -0.1225
    111  CA         5.5910   -4.3610  154.5540 C.3   247  ASP247      0.1805
    112  C          7.0220   -3.8790  154.2760 C.2   247  ASP247      0.2597
    113  O          7.2770   -2.6800  154.1000 O.2   247  ASP247     -0.2718
    114  CB         5.1290   -5.4360  153.5680 C.3   247  ASP247      0.1424
    115  CG         5.0460   -4.9340  152.1110 C.2   247  ASP247      0.3668
    116  OD1        5.5350   -3.8220  151.8060 O.co2 247  ASP247     -0.2456
    117  OD2        4.4890   -5.6700  151.2590 O.co2 247  ASP247     -0.2456
    118  N          7.9750   -4.8120  154.2370 N.am  248  ASP248     -0.1974
    119  CA         9.3910   -4.4670  154.0410 C.3   248  ASP248      0.1709
    120  C          9.5950   -3.9800  152.6010 C.2   248  ASP248      0.2293
    121  O          9.6260   -4.7700  151.6550 O.2   248  ASP248     -0.2864
    122  CB        10.2840   -5.6660  154.3730 C.3   248  ASP248      0.1436
    123  CG        11.8090   -5.3560  154.2460 C.2   248  ASP248      0.3671
    124  OD1       12.2040   -4.1760  154.0750 O.co2 248  ASP248     -0.2456
    125  OD2       12.6230   -6.3150  154.3190 O.co2 248  ASP248     -0.2456
    126  N         12.6250   -5.6730  150.8120 N.3   251  MET251     -0.1245
    127  CA        12.8210   -7.0850  151.0880 C.3   251  MET251      0.1570
    128  C         13.4410   -7.7810  149.8840 C.2   251  MET251      0.2261
    129  O         13.2640   -7.3590  148.7380 O.2   251  MET251     -0.2867
    130  CB        11.4960   -7.7470  151.4480 C.3   251  MET251      0.0387
    131  CG        10.4740   -7.7410  150.3260 C.3   251  MET251      0.0595
    132  SD         9.2680   -9.0260  150.6700 S.3   251  MET251     -0.1393
    133  CE        10.3790  -10.2770  151.3250 C.3   251  MET251      0.0692
    134  N          8.7010    0.7960  155.8850 N.3   276  LEU276     -0.1245
    135  CA         9.7890    0.0080  156.4600 C.3   276  LEU276      0.1561
    136  C         10.8200   -0.2850  155.3830 C.2   276  LEU276      0.2260
    137  O         10.5040   -0.9520  154.3940 O.2   276  LEU276     -0.2867
    138  CB         9.2810   -1.3150  157.0370 C.3   276  LEU276      0.0270
    139  CG         8.9690   -1.4470  158.5260 C.3   276  LEU276      0.0019
    140  CD1        7.7560   -0.6150  158.8780 C.3   276  LEU276      0.0001
    141  CD2        8.7510   -2.9150  158.8850 C.3   276  LEU276      0.0001
    142  N         14.1620   -2.2480  155.4580 N.3   278  CYS278     -0.1235
    143  CA        15.0080   -3.1380  156.2420 C.3   278  CYS278      0.1677
    144  C         16.2580   -3.5890  155.4860 C.2   278  CYS278      0.2270
    145  O         16.2490   -3.7680  154.2630 O.2   278  CYS278     -0.2867
    146  CB        14.2130   -4.3750  156.6720 C.3   278  CYS278      0.0956
    147  SG        12.8360   -3.9380  157.7410 S.3   278  CYS278     -0.0801
@<TRIPOS>BOND
     1   129   128    2
     2   128   127    1
     3   131   132    1
     4   131   130    1
     5   132   133    1
     6   126   127    1
     7   127   130    1
     8   117   115   ar
     9   108   107    2
    10   121   120    2
    11   116   115   ar
    12   115   114    1
    13   107   106    1
    14   120   119    1
    15    95    96   ar
    16    95    93   ar
    17    96    94   ar
    18    93    92   ar
    19   109   106    1
    20   114   111    1
    21   106   105    1
    22    90    89    2
    23   119   118    1
    24   119   122    1
    25    94    92   ar
    26   124   123   ar
    27   113   112    2
    28   118   112   am
    29   123   125   ar
    30   123   122    1
    31   145   144    2
    32   112   111    1
    33    92    91    1
    34   137   136    2
    35   110   111    1
    36    89    88    1
    37    88    91    1
    38    88    87    1
    39    55    54    1
    40    56    54    1
    41   136   135    1
    42   142   143    1
    43   144   143    1
    44    50    51    1
    45    54    51    1
    46   134   135    1
    47   143   146    1
    48    80    79    2
    49    51    52    1
    50   135   138    1
    51   146   147    1
    52   138   139    1
    53    81    82    1
    54    81    78    1
    55    79    78    1
    56    52    53    2
    57    99   100    2
    58    99    98    1
    59    82    84   ar
    60    82    83   ar
    61    78    77    1
    62    84    86   ar
    63   102   103    1
    64   102   101    1
    65    83    85   ar
    66   139   140    1
    67   139   141    1
    68    98   101    1
    69    98    97    1
    70   103   104    1
    71    86    85   ar
    72    77    70   am
    73    66    65    1
    74    70    69    1
    75    70    71    2
    76    19    18   ar
    77    19    17   ar
    78    69    72    1
    79    69    68    1
    80    18    16   ar
    81    72    73    1
    82    65    67    1
    83    65    64    2
    84    17    15   ar
    85    16    14   ar
    86    63    64    1
    87    63    62    1
    88     7     5    1
    89    73    74    1
    90    74    75    1
    91    15    14   ar
    92    38    36    1
    93    14    13    1
    94     8     6    1
    95    75    76    1
    96    27    25   ar
    97    62    61    1
    98    61    58    1
    99    37    36    1
   100    13    10    1
   101    36    35    2
   102     5     6    1
   103     5     2    1
   104    49    48   ar
   105    49    47   ar
   106    48    46   ar
   107    26    25   ar
   108    47    45   ar
   109    25    24    1
   110    57    58    1
   111     4     3    2
   112    46    44   ar
   113     1     2    1
   114    45    44   ar
   115    58    59    1
   116    44    43    1
   117    35    34    1
   118    59    60    2
   119     2     3    1
   120    43    40    1
   121    10     9    1
   122    10    11    1
   123    24    21    1
   124    34    33    1
   125    11    12    2
   126    42    41    2
   127    40    41    1
   128    40    39    1
   129    21    20    1
   130    21    22    1
   131    33    32    1
   132    22    23    2
   133    32    29    1
   134    29    28    1
   135    29    30    1
   136    30    31    2
