@<TRIPOS>MOLECULE
tmp/5g3sB01.pdb
 87 84 0 0 0
SMALL
GASTEIGER

@<TRIPOS>ATOM
      1  N        -48.2640    5.8740   60.4440 N.3    36  MET36      -0.1230
      2  CA       -47.1160    5.8650   59.5410 C.3    36  MET36       0.1702
      3  C        -46.4270    4.5070   59.4810 C.2    36  MET36       0.2592
      4  O        -45.6950    4.2440   58.5230 O.2    36  MET36      -0.2718
      5  CB       -46.1050    6.9370   59.9600 C.3    36  MET36       0.0401
      6  CG       -45.6480    6.8120   61.3980 C.3    36  MET36       0.0596
      7  SD       -44.5650    8.1340   61.9830 S.3    36  MET36      -0.1393
      8  CE       -43.0400    7.7340   61.1370 C.3    36  MET36       0.0692
      9  N        -46.6270    3.6470   60.4760 N.am   37  GLN37      -0.1979
     10  CA       -46.0520    2.3110   60.4540 C.3    37  GLN37       0.1601
     11  C        -47.0220    1.3300   59.8010 C.2    37  GLN37       0.2287
     12  O        -48.2310    1.5650   59.7300 O.2    37  GLN37      -0.2864
     13  CB       -45.7080    1.8430   61.8700 C.3    37  GLN37       0.0394
     14  CG       -44.7230    2.7430   62.6140 C.3    37  GLN37       0.0908
     15  CD       -43.3380    2.7480   61.9920 C.2    37  GLN37       0.2608
     16  OE1      -42.9340    1.7890   61.3330 O.2    37  GLN37      -0.2717
     17  NE2      -42.6030    3.8360   62.1990 N.am   37  GLN37      -0.0878
     18  N        -45.4760    2.1750   70.5140 N.3    43  ARG43      -0.1245
     19  CA       -44.4120    1.7810   71.4310 C.3    43  ARG43       0.1563
     20  C        -44.7410    0.5110   72.2100 C.2    43  ARG43       0.2260
     21  O        -44.0430    0.1920   73.1800 O.2    43  ARG43      -0.2867
     22  CB       -44.0960    2.9320   72.3900 C.3    43  ARG43       0.0307
     23  CG       -43.2400    4.0230   71.7530 C.3    43  ARG43       0.0489
     24  CD       -43.1010    5.2370   72.6540 C.3    43  ARG43       0.2205
     25  NE       -44.3350    6.0110   72.7210 N.pl3  43  ARG43      -0.0865
     26  CZ       -44.5610    6.9860   73.5940 C.cat  43  ARG43       0.5346
     27  NH1      -43.6370    7.3110   74.4900 N.pl3  43  ARG43       0.1354
     28  NH2      -45.7180    7.6320   73.5780 N.pl3  43  ARG43       0.1354
     29  N        -50.9800   10.9460   68.8620 N.3   238  ILE238     -0.1231
     30  CA       -49.5320   10.8400   68.6650 C.3   238  ILE238      0.1678
     31  C        -48.8500   11.5890   69.7970 C.2   238  ILE238      0.2434
     32  O        -49.4390   12.4970   70.4090 O.2   238  ILE238     -0.2733
     33  CB       -49.1040   11.3980   67.2860 C.3   238  ILE238      0.0265
     34  CG1      -49.4620   12.8830   67.1770 C.3   238  ILE238      0.0019
     35  CG2      -49.7660   10.5990   66.1720 C.3   238  ILE238      0.0020
     36  CD1      -49.1230   13.5270   65.8340 C.3   238  ILE238      0.0001
     37  N        -47.6090   11.2270   70.1160 N.am  239  PRO239     -0.2729
     38  CA       -46.9190   11.8650   71.2450 C.3   239  PRO239      0.1401
     39  C        -46.4940   13.2800   70.9030 C.2   239  PRO239      0.2269
     40  O        -46.5420   13.6890   69.7320 O.2   239  PRO239     -0.2865
     41  CB       -45.7060   10.9560   71.4830 C.3   239  PRO239      0.0296
     42  CG       -45.4620   10.3060   70.1790 C.3   239  PRO239      0.0237
     43  CD       -46.8120   10.1340   69.5310 C.3   239  PRO239      0.0939
     44  N        -43.5840   14.7370   70.5680 N.3   241  SER241     -0.1202
     45  CA       -42.5300   14.8430   69.5640 C.3   241  SER241      0.2020
     46  C        -43.1060   14.7620   68.1570 C.2   241  SER241      0.2618
     47  O        -42.6290   15.4410   67.2410 O.2   241  SER241     -0.2717
     48  CB       -41.4860   13.7490   69.7790 C.3   241  SER241      0.2103
     49  OG       -42.0570   12.4620   69.6210 O.3   241  SER241     -0.2182
     50  N        -44.1420   13.9420   67.9670 N.am  242  ALA242     -0.1979
     51  CA       -44.7850   13.8540   66.6620 C.3   242  ALA242      0.1597
     52  C        -45.5930   15.1080   66.3540 C.2   242  ALA242      0.2287
     53  O        -45.6620   15.5320   65.1950 O.2   242  ALA242     -0.2864
     54  CB       -45.6780   12.6160   66.6030 C.3   242  ALA242      0.0319
     55  N        -35.4550    3.3430   71.0060 N.3   356  TRP356     -0.1241
     56  CA       -36.5540    4.2920   70.8550 C.3   356  TRP356      0.1605
     57  C        -35.9930    5.6920   71.0690 C.2   356  TRP356      0.2264
     58  O        -35.6480    6.0600   72.1960 O.2   356  TRP356     -0.2867
     59  CB       -37.6780    4.0040   71.8490 C.3   356  TRP356      0.0550
     60  CG       -38.2110    2.6050   71.8010 C.ar  356  TRP356      0.0003
     61  CD1      -37.7750    1.5390   72.5300 C.ar  356  TRP356      0.0946
     62  CD2      -39.2910    2.1210   70.9910 C.ar  356  TRP356      0.0152
     63  NE1      -38.5130    0.4220   72.2260 N.ar  356  TRP356     -0.2442
     64  CE2      -39.4510    0.7520   71.2840 C.ar  356  TRP356      0.0810
     65  CE3      -40.1360    2.7110   70.0450 C.ar  356  TRP356      0.0012
     66  CZ2      -40.4190   -0.0350   70.6670 C.ar  356  TRP356      0.0191
     67  CZ3      -41.0960    1.9290   69.4340 C.ar  356  TRP356      0.0001
     68  CH2      -41.2300    0.5700   69.7460 C.ar  356  TRP356      0.0015
     69  N        -37.4410    8.4780   71.1060 N.3   358  HIS358     -0.1241
     70  CA       -38.3270    9.2140   72.0040 C.3   358  HIS358      0.1621
     71  C        -39.1620    8.2350   72.8240 C.2   358  HIS358      0.2264
     72  O        -40.3890    8.3270   72.8970 O.2   358  HIS358     -0.2867
     73  CB       -39.2180   10.1690   71.2130 C.3   358  HIS358      0.0745
     74  CG       -38.4680   11.0410   70.2520 C.ar  358  HIS358      0.0817
     75  ND1      -38.2040   10.6610   68.9540 N.ar  358  HIS358     -0.2268
     76  CD2      -37.9240   12.2720   70.4000 C.ar  358  HIS358      0.1154
     77  CE1      -37.5320   11.6200   68.3430 C.ar  358  HIS358      0.1986
     78  NE2      -37.3480   12.6090   69.1990 N.ar  358  HIS358     -0.2212
     79  N        -41.8680   10.3100   76.8470 N.3   361  GLU361     -0.1245
     80  CA       -42.1400   11.7110   76.5720 C.3   361  GLU361      0.1567
     81  C        -42.9150   12.3170   77.7310 C.2   361  GLU361      0.2260
     82  O        -43.7280   11.6480   78.3750 O.2   361  GLU361     -0.2867
     83  CB       -42.9290   11.8840   75.2680 C.3   361  GLU361      0.0388
     84  CG       -42.3040   11.1620   74.0830 C.3   361  GLU361      0.1160
     85  CD       -42.5470   11.8640   72.7610 C.2   361  GLU361      0.3649
     86  OE1      -42.8200   13.0820   72.7680 O.co2 361  GLU361     -0.2457
     87  OE2      -42.4670   11.1910   71.7130 O.co2 361  GLU361     -0.2457
@<TRIPOS>BOND
     1     4     3    2
     2     3     2    1
     3     3     9   am
     4     2     5    1
     5     2     1    1
     6    12    11    2
     7    11    10    1
     8     5     6    1
     9    10     9    1
    10    10    13    1
    11     8     7    1
    12    16    15    2
    13     6     7    1
    14    13    14    1
    15    15    17   am
    16    15    14    1
    17    53    52    2
    18    36    34    1
    19    35    33    1
    20    52    51    1
    21    54    51    1
    22    51    50    1
    23    34    33    1
    24    47    46    2
    25    33    30    1
    26    50    46   am
    27    46    45    1
    28    77    75   ar
    29    77    78   ar
    30    30    29    1
    31    30    31    1
    32    75    74   ar
    33    78    76   ar
    34    67    68   ar
    35    67    65   ar
    36    43    37    1
    37    43    42    1
    38    45    48    1
    39    45    44    1
    40    49    48    1
    41    40    39    2
    42    68    66   ar
    43    31    37   am
    44    31    32    2
    45    65    62   ar
    46    37    38    1
    47    42    41    1
    48    74    76   ar
    49    74    73    1
    50    18    19    1
    51    66    64   ar
    52    56    55    1
    53    56    57    1
    54    56    59    1
    55    39    38    1
    56    62    64   ar
    57    62    60   ar
    58    57    58    2
    59    69    70    1
    60    73    70    1
    61    38    41    1
    62    64    63   ar
    63    19    20    1
    64    19    22    1
    65    87    85   ar
    66    23    22    1
    67    23    24    1
    68    60    59    1
    69    60    61   ar
    70    70    71    1
    71    20    21    2
    72    63    61   ar
    73    24    25    1
    74    25    26    2
    75    85    86   ar
    76    85    84    1
    77    71    72    2
    78    28    26    1
    79    26    27    1
    80    84    83    1
    81    83    80    1
    82    80    79    1
    83    80    81    1
    84    81    82    2
