@<TRIPOS>MOLECULE
tmp/5g3uA01.pdb
 122 115 0 0 0
SMALL
GASTEIGER

@<TRIPOS>ATOM
      1  N         11.3140  -10.9700  -32.4950 N.3    60  ALA60      -0.1245
      2  CA        10.5240  -10.0890  -33.3460 C.3    60  ALA60       0.1562
      3  C          9.1290   -9.8960  -32.7690 C.2    60  ALA60       0.2260
      4  O          8.4950  -10.8460  -32.3000 O.2    60  ALA60      -0.2867
      5  CB        10.4330  -10.6600  -34.7610 C.3    60  ALA60       0.0290
      6  N          6.8220   -6.8550  -34.0490 N.3    62  ARG62      -0.1245
      7  CA         5.9230   -6.0000  -34.8150 C.3    62  ARG62       0.1563
      8  C          6.2290   -6.1180  -36.3010 C.2    62  ARG62       0.2260
      9  O          7.3180   -6.5270  -36.6990 O.2    62  ARG62      -0.2867
     10  CB         6.0220   -4.5300  -34.3710 C.3    62  ARG62       0.0307
     11  CG         7.4050   -3.8920  -34.5230 C.3    62  ARG62       0.0489
     12  CD         8.3280   -4.2110  -33.3520 C.3    62  ARG62       0.2205
     13  NE         9.6330   -3.5640  -33.4900 N.pl3  62  ARG62      -0.0865
     14  CZ         9.9800   -2.4180  -32.9080 C.cat  62  ARG62       0.5346
     15  NH1        9.1220   -1.7720  -32.1290 N.pl3  62  ARG62       0.1354
     16  NH2       11.1920   -1.9100  -33.1030 N.pl3  62  ARG62       0.1354
     17  N         18.1140    4.2060  -30.6160 N.3   141  TYR141     -0.1241
     18  CA        18.8410    3.0860  -31.2060 C.3   141  TYR141      0.1605
     19  C         20.3230    3.4400  -31.2310 C.2   141  TYR141      0.2264
     20  O         20.7470    4.3070  -32.0030 O.2   141  TYR141     -0.2867
     21  CB        18.3240    2.7770  -32.6090 C.3   141  TYR141      0.0534
     22  CG        16.9460    2.1580  -32.6300 C.ar  141  TYR141     -0.0201
     23  CD1       15.8070    2.9450  -32.5240 C.ar  141  TYR141     -0.0009
     24  CD2       16.7830    0.7840  -32.7580 C.ar  141  TYR141     -0.0009
     25  CE1       14.5450    2.3820  -32.5430 C.ar  141  TYR141      0.0417
     26  CE2       15.5280    0.2130  -32.7800 C.ar  141  TYR141      0.0417
     27  CZ        14.4120    1.0150  -32.6710 C.ar  141  TYR141      0.1957
     28  OH        13.1610    0.4490  -32.6910 O.3   141  TYR141     -0.2866
     29  N         22.7750    1.7660  -32.3270 N.3   143  ALA143     -0.1245
     30  CA        23.4700    1.3770  -33.5480 C.3   143  ALA143      0.1562
     31  C         23.7590    2.5810  -34.4350 C.2   143  ALA143      0.2260
     32  O         24.7150    2.5610  -35.2180 O.2   143  ALA143     -0.2867
     33  CB        22.6410    0.3450  -34.3120 C.3   143  ALA143      0.0290
     34  N         17.1720    2.7370  -41.1880 N.3   157  ILE157     -0.1245
     35  CA        16.8130    2.3540  -39.8240 C.3   157  ILE157      0.1561
     36  C         15.7410    3.2890  -39.2720 C.2   157  ILE157      0.2260
     37  O         14.7150    2.8450  -38.7440 O.2   157  ILE157     -0.2867
     38  CB        18.0690    2.3380  -38.9320 C.3   157  ILE157      0.0252
     39  CG1       18.9830    1.1770  -39.3370 C.3   157  ILE157      0.0019
     40  CG2       17.6960    2.2370  -37.4510 C.3   157  ILE157      0.0019
     41  CD1       20.3580    1.2140  -38.6980 C.3   157  ILE157      0.0001
     42  N         11.5620    2.0470  -38.4480 N.3   161  HIS161     -0.1241
     43  CA        11.2280    1.6270  -37.0930 C.3   161  HIS161      0.1621
     44  C         10.0550    2.4380  -36.5630 C.2   161  HIS161      0.2264
     45  O         10.0840    3.6750  -36.6310 O.2   161  HIS161     -0.2867
     46  CB        12.4360    1.7750  -36.1740 C.3   161  HIS161      0.0745
     47  CG        13.4140    0.6480  -36.2940 C.ar  161  HIS161      0.0817
     48  ND1       14.3630    0.5880  -37.2920 N.ar  161  HIS161     -0.2268
     49  CD2       13.5670   -0.4820  -35.5620 C.ar  161  HIS161      0.1154
     50  CE1       15.0680   -0.5230  -37.1610 C.ar  161  HIS161      0.1986
     51  NE2       14.6040   -1.1900  -36.1200 N.ar  161  HIS161     -0.2212
     52  N         24.6220   -6.9540  -34.6360 N.3   263  LEU263     -0.1245
     53  CA        24.4420   -6.1330  -33.4530 C.3   263  LEU263      0.1561
     54  C         23.6980   -6.9300  -32.3920 C.2   263  LEU263      0.2260
     55  O         22.7770   -7.6900  -32.7240 O.2   263  LEU263     -0.2867
     56  CB        23.6540   -4.8570  -33.7720 C.3   263  LEU263      0.0270
     57  CG        24.3630   -3.9130  -34.7310 C.3   263  LEU263      0.0019
     58  CD1       23.4080   -2.8480  -35.2230 C.3   263  LEU263      0.0001
     59  CD2       25.5630   -3.2880  -34.0520 C.3   263  LEU263      0.0001
     60  N         21.0570   -7.4270  -29.2070 N.3   265  LEU265     -0.1245
     61  CA        19.7790   -6.8640  -28.7980 C.3   265  LEU265      0.1561
     62  C         19.4110   -7.3900  -27.4190 C.2   265  LEU265      0.2260
     63  O         19.8200   -8.4850  -27.0230 O.2   265  LEU265     -0.2867
     64  CB        18.6670   -7.2050  -29.7980 C.3   265  LEU265      0.0270
     65  CG        18.8500   -6.7050  -31.2350 C.3   265  LEU265      0.0019
     66  CD1       17.6870   -7.1660  -32.0950 C.3   265  LEU265      0.0001
     67  CD2       18.9800   -5.1890  -31.2880 C.3   265  LEU265      0.0001
     68  N         13.7470   -1.9630  -24.6290 N.3   307  TYR307     -0.1241
     69  CA        14.3700   -2.5420  -25.8130 C.3   307  TYR307      0.1605
     70  C         15.6300   -1.7470  -26.1190 C.2   307  TYR307      0.2264
     71  O         15.5680   -0.5240  -26.2750 O.2   307  TYR307     -0.2867
     72  CB        13.3920   -2.5130  -26.9950 C.3   307  TYR307      0.0534
     73  CG        13.9310   -3.0370  -28.3100 C.ar  307  TYR307     -0.0201
     74  CD1       14.8620   -4.0690  -28.3520 C.ar  307  TYR307     -0.0009
     75  CD2       13.5000   -2.4970  -29.5150 C.ar  307  TYR307     -0.0009
     76  CE1       15.3500   -4.5430  -29.5590 C.ar  307  TYR307      0.0417
     77  CE2       13.9790   -2.9620  -30.7230 C.ar  307  TYR307      0.0417
     78  CZ        14.9030   -3.9810  -30.7410 C.ar  307  TYR307      0.1957
     79  OH        15.3730   -4.4400  -31.9490 O.3   307  TYR307     -0.2866
     80  N         19.9450   -1.9290  -27.8680 N.3   309  ASP309     -0.1239
     81  CA        20.8200   -2.5540  -28.8470 C.3   309  ASP309      0.1674
     82  C         22.2420   -2.0520  -28.6420 C.2   309  ASP309      0.2266
     83  O         22.4830   -1.0640  -27.9440 O.2   309  ASP309     -0.2867
     84  CB        20.3480   -2.2730  -30.2790 C.3   309  ASP309      0.1410
     85  CG        20.4520   -0.8050  -30.6510 C.2   309  ASP309      0.3668
     86  OD1       21.5490   -0.3710  -31.0640 O.co2 309  ASP309     -0.2456
     87  OD2       19.4370   -0.0870  -30.5380 O.co2 309  ASP309     -0.2456
     88  N         21.4070  -10.2450  -32.5420 N.3   359  GLY359     -0.1210
     89  CA        19.9970   -9.9850  -32.7920 C.3   359  GLY359      0.1956
     90  C         19.7350   -9.4160  -34.1730 C.2   359  GLY359      0.2611
     91  O         18.7530   -9.7780  -34.8260 O.2   359  GLY359     -0.2717
     92  N         20.5990   -8.5140  -34.6310 N.am  360  VAL360     -0.1979
     93  CA        20.5060   -7.9210  -35.9600 C.3   360  VAL360      0.1595
     94  C         21.7410   -8.3290  -36.7440 C.2   360  VAL360      0.2287
     95  O         22.8600   -8.2580  -36.2230 O.2   360  VAL360     -0.2864
     96  CB        20.4030   -6.3850  -35.9080 C.3   360  VAL360      0.0276
     97  CG1       19.9650   -5.8420  -37.2600 C.3   360  VAL360      0.0022
     98  CG2       19.4580   -5.9370  -34.8170 C.3   360  VAL360      0.0022
     99  N         17.3300   -6.1270  -44.6030 N.3   388  CYS388     -0.1221
    100  CA        18.2450   -6.5910  -43.5680 C.3   388  CYS388      0.1808
    101  C         17.6480   -6.3770  -42.1850 C.2   388  CYS388      0.2602
    102  O         17.2500   -5.2640  -41.8290 O.2   388  CYS388     -0.2717
    103  CB        19.5800   -5.8480  -43.6740 C.3   388  CYS388      0.0970
    104  SG        20.6310   -6.3480  -45.0530 S.3   388  CYS388     -0.0800
    105  N         17.5910   -7.4510  -41.4060 N.am  389  GLY389     -0.1942
    106  CA        17.1450   -7.3740  -40.0330 C.3   389  GLY389      0.2014
    107  C         15.6540   -7.4790  -39.8200 C.2   389  GLY389      0.2638
    108  O         15.1890   -7.1930  -38.7110 O.2   389  GLY389     -0.2714
    109  N         14.8880   -7.8840  -40.8310 N.am  390  TRP390     -0.1973
    110  CA        13.4400   -7.9810  -40.7140 C.3   390  TRP390      0.1640
    111  C         12.9650   -9.3360  -41.2190 C.2   390  TRP390      0.2290
    112  O         13.5880   -9.9480  -42.0910 O.2   390  TRP390     -0.2864
    113  CB        12.7400   -6.8560  -41.4920 C.3   390  TRP390      0.0576
    114  CG        13.0990   -5.4840  -41.0000 C.ar  390  TRP390      0.0006
    115  CD1       14.2010   -4.7520  -41.3390 C.ar  390  TRP390      0.0946
    116  CD2       12.3540   -4.6800  -40.0750 C.ar  390  TRP390      0.0152
    117  NE1       14.1870   -3.5440  -40.6860 N.ar  390  TRP390     -0.2442
    118  CE2       13.0640   -3.4750  -39.9030 C.ar  390  TRP390      0.0810
    119  CE3       11.1560   -4.8620  -39.3780 C.ar  390  TRP390      0.0012
    120  CZ2       12.6180   -2.4580  -39.0620 C.ar  390  TRP390      0.0191
    121  CZ3       10.7120   -3.8490  -38.5430 C.ar  390  TRP390      0.0001
    122  CH2       11.4430   -2.6640  -38.3910 C.ar  390  TRP390      0.0015
@<TRIPOS>BOND
     1   104   103    1
     2    99   100    1
     3   103   100    1
     4   100   101    1
     5   101   102    2
     6   101   105   am
     7   112   111    2
     8   113   114    1
     9   113   110    1
    10   105   106    1
    11   115   114   ar
    12   115   117   ar
    13   111   110    1
    14    34    35    1
    15   114   116   ar
    16   109   110    1
    17   109   107   am
    18   117   118   ar
    19   116   118   ar
    20   116   119   ar
    21   106   107    1
    22   118   120   ar
    23    35    36    1
    24    35    38    1
    25   107   108    2
    26   119   121   ar
    27    39    38    1
    28    39    41    1
    29    36    37    2
    30   120   122   ar
    31    38    40    1
    32   121   122   ar
    33    42    43    1
    34    48    50   ar
    35    48    47   ar
    36    97    96    1
    37    50    51   ar
    38    43    44    1
    39    43    46    1
    40    94    95    2
    41    94    93    1
    42     9     8    2
    43    45    44    2
    44     8     7    1
    45    47    46    1
    46    47    49   ar
    47    51    49   ar
    48    93    96    1
    49    93    92    1
    50    96    98    1
    51    58    57    1
    52    32    31    2
    53    91    90    2
    54     7    10    1
    55     7     6    1
    56     5     2    1
    57    57    59    1
    58    57    56    1
    59    52    53    1
    60    92    90   am
    61    11    10    1
    62    11    12    1
    63    31    30    1
    64    33    30    1
    65    90    89    1
    66    56    53    1
    67    30    29    1
    68    13    12    1
    69    13    14    2
    70    53    54    1
    71     2     3    1
    72     2     1    1
    73    16    14    1
    74    14    15    1
    75    89    88    1
    76    26    24   ar
    77    26    27   ar
    78     3     4    2
    79    24    22   ar
    80    55    54    2
    81    28    27    1
    82    27    25   ar
    83    22    21    1
    84    22    23   ar
    85    21    18    1
    86    25    23   ar
    87    66    65    1
    88    20    19    2
    89    79    78    1
    90    67    65    1
    91    65    64    1
    92    19    18    1
    93    18    17    1
    94    86    85   ar
    95    78    77   ar
    96    78    76   ar
    97    77    75   ar
    98    85    87   ar
    99    85    84    1
   100    84    81    1
   101    64    61    1
   102    76    74   ar
   103    75    73   ar
   104    60    61    1
   105    81    82    1
   106    81    80    1
   107    61    62    1
   108    82    83    2
   109    74    73   ar
   110    73    72    1
   111    62    63    2
   112    72    69    1
   113    71    70    2
   114    70    69    1
   115    69    68    1
