@<TRIPOS>MOLECULE
tmp/5g3wA03.pdb
 156 150 0 0 0
SMALL
GASTEIGER

@<TRIPOS>ATOM
      1  N         29.2430   34.9070   47.7910 N.3    21  LEU21      -0.1231
      2  CA        29.1370   34.6740   49.2120 C.3    21  LEU21       0.1693
      3  C         28.8690   36.0130   49.8780 C.2    21  LEU21       0.2591
      4  O         27.7340   36.2760   50.3200 O.2    21  LEU21      -0.2718
      5  CB        30.4160   33.9930   49.6650 C.3    21  LEU21       0.0284
      6  CG        30.4620   33.3870   51.0260 C.3    21  LEU21       0.0019
      7  CD1       29.1640   32.7990   51.5090 C.3    21  LEU21       0.0001
      8  CD2       31.5050   32.2430   50.9220 C.3    21  LEU21       0.0001
      9  N         29.8620   36.8980   49.8850 N.am   22  ALA22      -0.1980
     10  CA        29.5810   38.3060   50.0550 C.3    22  ALA22       0.1597
     11  C         29.0220   38.8360   48.7440 C.2    22  ALA22       0.2287
     12  O         28.9810   38.1180   47.7410 O.2    22  ALA22      -0.2864
     13  CB        30.8480   39.0470   50.4440 C.3    22  ALA22       0.0319
     14  N         35.7210   40.8640   42.7990 N.3    30  MET30      -0.1245
     15  CA        34.7780   39.7470   42.9290 C.3    30  MET30       0.1570
     16  C         33.6730   39.9390   41.8830 C.2    30  MET30       0.2261
     17  O         32.7300   40.7410   42.0500 O.2    30  MET30      -0.2867
     18  CB        34.2140   39.6390   44.3480 C.3    30  MET30       0.0387
     19  CG        35.2030   39.0570   45.3510 C.3    30  MET30       0.0595
     20  SD        34.4930   38.6620   46.9740 S.3    30  MET30      -0.1393
     21  CE        34.3090   40.3530   47.4930 C.3    30  MET30       0.0692
     22  N         26.1330   40.7470   58.6030 N.3    98  ASP98      -0.1225
     23  CA        27.4310   40.0170   58.6340 C.3    98  ASP98       0.1805
     24  C         28.2040   39.9920   57.3050 C.2    98  ASP98       0.2598
     25  O         29.2840   39.4050   57.2180 O.2    98  ASP98      -0.2718
     26  CB        27.3090   38.6030   59.2530 C.3    98  ASP98       0.1424
     27  CG        26.6590   37.5660   58.3350 C.2    98  ASP98       0.3668
     28  OD1       26.0980   37.9230   57.2820 O.co2  98  ASP98      -0.2456
     29  OD2       26.7340   36.3510   58.6970 O.co2  98  ASP98      -0.2456
     30  N         27.6700   40.6430   56.2870 N.am   99  GLY99      -0.1942
     31  CA        28.3400   40.7330   54.9890 C.3    99  GLY99       0.2014
     32  C         28.1110   39.5830   54.0340 C.2    99  GLY99       0.2638
     33  O         28.4920   39.6930   52.8810 O.2    99  GLY99      -0.2714
     34  N         27.4870   38.4890   54.4830 N.am  100  ILE100     -0.1977
     35  CA        27.1820   37.3410   53.6070 C.3   100  ILE100      0.1596
     36  C         25.7200   36.9240   53.5930 C.2   100  ILE100      0.2287
     37  O         25.3850   35.8700   53.0220 O.2   100  ILE100     -0.2864
     38  CB        28.0220   36.1250   53.9740 C.3   100  ILE100      0.0276
     39  CG1       27.6820   35.6510   55.3840 C.3   100  ILE100      0.0022
     40  CG2       29.4790   36.4870   53.8620 C.3   100  ILE100      0.0022
     41  CD1       28.4630   34.4620   55.7890 C.3   100  ILE100      0.0001
     42  N         17.1170   29.5820   55.6500 N.3   140  PRO140     -0.2116
     43  CA        17.4220   28.7040   56.7820 C.3   140  PRO140      0.1372
     44  C         17.4880   29.4970   58.1010 C.2   140  PRO140      0.2244
     45  O         17.3700   30.7400   58.1050 O.2   140  PRO140     -0.2868
     46  CB        18.7780   28.1180   56.3890 C.3   140  PRO140      0.0268
     47  CG        19.4500   29.2190   55.6420 C.3   140  PRO140      0.0207
     48  CD        18.3290   29.8520   54.8390 C.3   140  PRO140      0.0892
     49  N         19.4540   28.2140   61.5190 N.3   142  HIS142     -0.1226
     50  CA        20.1290   27.8300   62.7810 C.3   142  HIS142      0.1752
     51  C         21.2900   28.7260   63.2250 C.2   142  HIS142      0.2596
     52  O         21.7040   28.6170   64.3670 O.2   142  HIS142     -0.2718
     53  CB        20.5780   26.3780   62.7420 C.3   142  HIS142      0.0759
     54  CG        21.6890   26.1130   61.7930 C.ar  142  HIS142      0.0818
     55  ND1       22.5810   25.0860   61.9870 N.ar  142  HIS142     -0.2268
     56  CD2       22.0650   26.7300   60.6420 C.ar  142  HIS142      0.1154
     57  CE1       23.4780   25.1000   61.0180 C.ar  142  HIS142      0.1986
     58  NE2       23.1670   26.0630   60.1710 N.ar  142  HIS142     -0.2212
     59  N         21.8220   29.5740   62.3420 N.am  143  HIS143     -0.1975
     60  CA        22.8650   30.5190   62.7520 C.3   143  HIS143      0.1656
     61  C         22.3310   31.7750   63.4180 C.2   143  HIS143      0.2291
     62  O         23.1030   32.5300   63.9770 O.2   143  HIS143     -0.2864
     63  CB        23.7400   30.9190   61.5680 C.3   143  HIS143      0.0771
     64  CG        24.5760   29.8100   61.0220 C.ar  143  HIS143      0.0820
     65  ND1       25.3460   28.9990   61.8240 N.ar  143  HIS143     -0.2267
     66  CD2       24.7910   29.3950   59.7450 C.ar  143  HIS143      0.1154
     67  CE1       25.9890   28.1190   61.0690 C.ar  143  HIS143      0.1986
     68  NE2       25.6970   28.3630   59.8020 N.ar  143  HIS143     -0.2212
     69  N         24.9200   34.1220   58.6230 N.3   151  GLY151     -0.1210
     70  CA        25.1410   32.8880   57.8550 C.3   151  GLY151      0.1956
     71  C         23.9640   32.4230   57.0160 C.2   151  GLY151      0.2612
     72  O         23.6190   31.2510   57.0410 O.2   151  GLY151     -0.2717
     73  N         23.3570   33.3650   56.2860 N.am  152  PHE152     -0.1962
     74  CA        22.1870   33.1520   55.4140 C.3   152  PHE152      0.1771
     75  C         20.8630   33.0530   56.1700 C.2   152  PHE152      0.2619
     76  O         19.8190   32.8800   55.5250 O.2   152  PHE152     -0.2715
     77  CB        22.3180   31.9130   54.4940 C.3   152  PHE152      0.0574
     78  CG        23.6600   31.7650   53.8010 C.ar  152  PHE152     -0.0200
     79  CD1       24.4180   32.8560   53.4360 C.ar  152  PHE152     -0.0042
     80  CD2       24.1420   30.4940   53.5020 C.ar  152  PHE152     -0.0042
     81  CE1       25.6330   32.6890   52.8010 C.ar  152  PHE152     -0.0003
     82  CE2       25.3560   30.3180   52.8590 C.ar  152  PHE152     -0.0003
     83  CZ        26.0990   31.4140   52.5110 C.ar  152  PHE152     -0.0000
     84  N         20.9000   33.1240   57.5110 N.am  153  CYS153     -0.1968
     85  CA        19.7240   32.9190   58.3390 C.3   153  CYS153      0.1712
     86  C         19.2030   34.2650   58.8500 C.2   153  CYS153      0.2296
     87  O         19.9620   35.0590   59.4510 O.2   153  CYS153     -0.2864
     88  CB        20.0450   32.0140   59.5350 C.3   153  CYS153      0.0983
     89  SG        20.8070   30.4390   59.0930 S.3   153  CYS153     -0.0798
     90  N         22.9070   19.8440   60.0310 N.3   180  ASP180     -0.1239
     91  CA        23.5870   20.7500   59.1110 C.3   180  ASP180      0.1674
     92  C         25.0700   20.7020   59.5040 C.2   180  ASP180      0.2266
     93  O         25.4000   20.6080   60.6910 O.2   180  ASP180     -0.2867
     94  CB        23.0120   22.1600   59.2360 C.3   180  ASP180      0.1410
     95  CG        23.6480   23.1570   58.2850 C.2   180  ASP180      0.3668
     96  OD1       24.8230   23.5310   58.4870 O.co2 180  ASP180     -0.2456
     97  OD2       22.9410   23.6270   57.3570 O.co2 180  ASP180     -0.2456
     98  N         27.3400   22.8790   59.5610 N.3   182  HIS182     -0.1241
     99  CA        27.8060   24.0490   60.2790 C.3   182  HIS182      0.1621
    100  C         27.2190   24.0730   61.6800 C.2   182  HIS182      0.2264
    101  O         26.0890   23.6300   61.9070 O.2   182  HIS182     -0.2867
    102  CB        27.4660   25.3070   59.4670 C.3   182  HIS182      0.0745
    103  CG        27.9930   25.2500   58.0730 C.ar  182  HIS182      0.0817
    104  ND1       27.1910   25.0110   56.9810 N.ar  182  HIS182     -0.2268
    105  CD2       29.2550   25.3300   57.5970 C.ar  182  HIS182      0.1154
    106  CE1       27.9330   24.9510   55.8910 C.ar  182  HIS182      0.1986
    107  NE2       29.1900   25.1650   56.2360 N.ar  182  HIS182     -0.2212
    108  N         33.9600   24.9220   61.0090 N.3   207  CYS207     -0.1221
    109  CA        33.6170   25.2460   59.6260 C.3   207  CYS207      0.1808
    110  C         32.9030   26.6130   59.5140 C.2   207  CYS207      0.2601
    111  O         33.3520   27.5080   58.7950 O.2   207  CYS207     -0.2717
    112  CB        32.7990   24.1260   59.0140 C.3   207  CYS207      0.0970
    113  SG        32.4600   24.3180   57.2560 S.3   207  CYS207     -0.0800
    114  N         31.8080   26.7790   60.2420 N.am  208  PHE208     -0.1976
    115  CA        31.1770   28.0910   60.4170 C.3   208  PHE208      0.1639
    116  C         30.2100   28.0070   61.5890 C.2   208  PHE208      0.2290
    117  O         29.4010   27.0680   61.6310 O.2   208  PHE208     -0.2864
    118  CB        30.4150   28.5250   59.1520 C.3   208  PHE208      0.0560
    119  CG        29.8920   29.9240   59.2340 C.ar  208  PHE208     -0.0200
    120  CD1       30.6610   30.9940   58.8490 C.ar  208  PHE208     -0.0042
    121  CD2       28.6420   30.1620   59.7800 C.ar  208  PHE208     -0.0042
    122  CE1       30.1780   32.2960   58.9740 C.ar  208  PHE208     -0.0003
    123  CE2       28.1590   31.4450   59.9210 C.ar  208  PHE208     -0.0003
    124  CZ        28.9290   32.5120   59.5230 C.ar  208  PHE208     -0.0000
    125  N         24.4220   19.8200   53.7490 N.3   268  ASP268     -0.1239
    126  CA        25.7430   20.3590   53.4410 C.3   268  ASP268      0.1674
    127  C         26.8970   19.4810   53.9500 C.2   268  ASP268      0.2266
    128  O         28.0660   19.7610   53.6370 O.2   268  ASP268     -0.2867
    129  CB        25.9160   21.8540   53.7750 C.3   268  ASP268      0.1410
    130  CG        25.2910   22.2880   55.0770 C.2   268  ASP268      0.3668
    131  OD1       24.8580   21.4360   55.9100 O.co2 268  ASP268     -0.2456
    132  OD2       25.2490   23.5290   55.2590 O.co2 268  ASP268     -0.2456
    133  N         30.5080   23.9180   50.5130 N.3   275  LEU275     -0.1245
    134  CA        30.6780   24.6970   51.7610 C.3   275  LEU275      0.1561
    135  C         31.0260   23.8990   53.0120 C.2   275  LEU275      0.2260
    136  O         30.9800   24.4320   54.1230 O.2   275  LEU275     -0.2867
    137  CB        29.4410   25.5830   51.9890 C.3   275  LEU275      0.0270
    138  CG        29.5000   26.9410   51.2740 C.3   275  LEU275      0.0019
    139  CD1       28.1670   27.6830   51.3680 C.3   275  LEU275      0.0001
    140  CD2       30.6070   27.8130   51.8770 C.3   275  LEU275      0.0001
    141  N         20.8090   24.0580   55.7120 N.3   310  GLY310     -0.1225
    142  CA        21.6250   24.3150   54.5250 C.3   310  GLY310      0.1811
    143  C         21.7950   23.1160   53.5950 C.2   310  GLY310      0.2280
    144  O         21.0870   22.1120   53.6660 O.2   310  GLY310     -0.2866
    145  N         24.1670   22.8980   49.5700 N.3   312  TYR312     -0.1241
    146  CA        24.5940   23.8100   48.4860 C.3   312  TYR312      0.1605
    147  C         24.9480   23.1300   47.1610 C.2   312  TYR312      0.2264
    148  O         25.4440   23.7910   46.2410 O.2   312  TYR312     -0.2867
    149  CB        25.7450   24.7160   48.9770 C.3   312  TYR312      0.0534
    150  CG        25.2930   25.4440   50.2080 C.ar  312  TYR312     -0.0201
    151  CD1       24.3690   26.4760   50.1140 C.ar  312  TYR312     -0.0009
    152  CD2       25.6680   25.0120   51.4800 C.ar  312  TYR312     -0.0009
    153  CE1       23.8820   27.1090   51.2290 C.ar  312  TYR312      0.0417
    154  CE2       25.1660   25.6160   52.6020 C.ar  312  TYR312      0.0417
    155  CZ        24.2630   26.6630   52.4700 C.ar  312  TYR312      0.1957
    156  OH        23.7430   27.2690   53.5710 O.3   312  TYR312     -0.2866
@<TRIPOS>BOND
     1    16    17    2
     2    16    15    1
     3    14    15    1
     4    15    18    1
     5    18    19    1
     6    19    20    1
     7   148   147    2
     8    20    21    1
     9   147   146    1
    10    12    11    2
    11     1     2    1
    12   146   149    1
    13   146   145    1
    14    11    10    1
    15   149   150    1
    16     2     5    1
    17     2     3    1
    18     5     6    1
    19     3     9   am
    20     3     4    2
    21     9    10    1
    22    10    13    1
    23   151   150   ar
    24   151   153   ar
    25   150   152   ar
    26   133   134    1
    27     8     6    1
    28     6     7    1
    29   153   155   ar
    30   138   139    1
    31   138   140    1
    32   138   137    1
    33   152   154   ar
    34   134   137    1
    35   134   135    1
    36   155   154   ar
    37   155   156    1
    38    83    81   ar
    39    83    82   ar
    40    81    79   ar
    41    82    80   ar
    42    33    32    2
    43   135   136    2
    44    37    36    2
    45    79    78   ar
    46   126   125    1
    47   126   129    1
    48   126   127    1
    49    80    78   ar
    50    36    35    1
    51   143   144    2
    52   143   142    1
    53    35    38    1
    54    35    34    1
    55   128   127    2
    56   129   130    1
    57    78    77    1
    58    40    38    1
    59    38    39    1
    60    32    34   am
    61    32    31    1
    62    77    74    1
    63   142   141    1
    64    48    47    1
    65    48    42    1
    66    31    30    1
    67   130   132   ar
    68   130   131   ar
    69    39    41    1
    70    74    75    1
    71    74    73    1
    72    76    75    2
    73    47    46    1
    74    42    43    1
    75   106   107   ar
    76   106   104   ar
    77    75    84   am
    78   107   105   ar
    79    73    71   am
    80    30    24   am
    81    46    43    1
    82    43    44    1
    83   104   103   ar
    84    71    72    2
    85    71    70    1
    86    25    24    2
    87   113   112    1
    88    28    27   ar
    89    24    23    1
    90    97    95   ar
    91    84    85    1
    92   105   103   ar
    93    70    69    1
    94   103   102    1
    95    44    45    2
    96    95    96   ar
    97    95    94    1
    98    27    29   ar
    99    27    26    1
   100    85    86    1
   101    85    88    1
   102    22    23    1
   103    23    26    1
   104   111   110    2
   105   120   122   ar
   106   120   119   ar
   107    86    87    2
   108   122   124   ar
   109   112   109    1
   110    89    88    1
   111    91    94    1
   112    91    92    1
   113    91    90    1
   114   118   119    1
   115   118   115    1
   116   119   121   ar
   117   102    99    1
   118    92    93    2
   119   110   109    1
   120   110   114   am
   121   124   123   ar
   122    98    99    1
   123   109   108    1
   124    66    68   ar
   125    66    64   ar
   126   121   123   ar
   127    68    67   ar
   128    58    56   ar
   129    58    57   ar
   130   114   115    1
   131    99   100    1
   132   115   116    1
   133    56    54   ar
   134    57    55   ar
   135    64    63    1
   136    64    65   ar
   137    67    65   ar
   138    49    50    1
   139    63    60    1
   140   116   117    2
   141   100   101    2
   142    54    55   ar
   143    54    53    1
   144    59    60    1
   145    59    51   am
   146    53    50    1
   147    60    61    1
   148    50    51    1
   149    51    52    2
   150    61    62    2
