@<TRIPOS>MOLECULE
tmp/5g3yA01.pdb
 194 182 0 0 0
SMALL
GASTEIGER

@<TRIPOS>ATOM
      1  N          5.6930    7.8280   -6.8530 N.3     9  PRO9       -0.2102
      2  CA         6.3820    6.5970   -6.5090 C.3     9  PRO9        0.1504
      3  C          6.2410    6.3090   -5.0110 C.2     9  PRO9        0.2576
      4  O          6.4580    7.2060   -4.1820 O.2     9  PRO9       -0.2718
      5  CB         7.8380    6.8870   -6.8850 C.3     9  PRO9        0.0282
      6  CG         7.7240    7.9070   -7.9950 C.3     9  PRO9        0.0208
      7  CD         6.5600    8.7640   -7.5800 C.3     9  PRO9        0.0893
      8  N          5.8580    5.0780   -4.6860 N.am   10  GLY10      -0.1957
      9  CA         5.6630    4.6970   -3.3030 C.3    10  GLY10       0.1869
     10  C          4.2720    4.9020   -2.7480 C.2    10  GLY10       0.2309
     11  O          4.0160    4.5360   -1.5930 O.2    10  GLY10      -0.2863
     12  N          0.4250    2.2210   -5.6010 N.3    13  LYS13      -0.1245
     13  CA        -0.2840    1.8800   -6.8270 C.3    13  LYS13       0.1561
     14  C         -0.1650    0.4010   -7.1860 C.2    13  LYS13       0.2260
     15  O         -1.1590   -0.2400   -7.4970 O.2    13  LYS13      -0.2867
     16  CB         0.2000    2.7680   -7.9770 C.3    13  LYS13       0.0271
     17  CG        -0.0230    4.2510   -7.7570 C.3    13  LYS13       0.0035
     18  CD         0.4140    5.1030   -8.9110 C.3    13  LYS13       0.0206
     19  CE         1.8750    5.0140   -9.2700 C.3    13  LYS13       0.1093
     20  NZ         2.7990    5.3800   -8.1670 N.3    13  LYS13      -0.1314
     21  N          1.8150   -2.4140  -16.2350 N.3    30  SER30      -0.1202
     22  CA         2.7940   -1.5760  -15.5470 C.3    30  SER30       0.2020
     23  C          4.0020   -1.4400  -16.4520 C.2    30  SER30       0.2619
     24  O          4.6610   -2.4190  -16.7630 O.2    30  SER30      -0.2717
     25  CB         3.2150   -2.1940  -14.2080 C.3    30  SER30       0.2103
     26  OG         4.4570   -1.6660  -13.7780 O.3    30  SER30      -0.2182
     27  N          4.2960   -0.2120  -16.8340 N.am   31  THR31      -0.1938
     28  CA         5.4630    0.0520  -17.6700 C.3    31  THR31       0.2028
     29  C          6.7720   -0.2920  -16.9330 C.2    31  THR31       0.2642
     30  O          7.6850   -0.8580  -17.5490 O.2    31  THR31      -0.2714
     31  CB         5.4340    1.4990  -18.1710 C.3    31  THR31       0.1808
     32  OG1        4.8810    2.3560  -17.1630 O.3    31  THR31      -0.2208
     33  CG2        4.5920    1.5930  -19.4220 C.3    31  THR31       0.0379
     34  N          6.8590    0.0050  -15.6290 N.am   32  GLY32      -0.1954
     35  CA         8.0120   -0.4320  -14.8540 C.3    32  GLY32       0.1869
     36  C          8.2060   -1.9350  -14.8970 C.2    32  GLY32       0.2309
     37  O          9.3240   -2.4250  -15.0100 O.2    32  GLY32      -0.2863
     38  N          9.6500   -2.8870  -18.2100 N.3    35  PHE35      -0.1227
     39  CA        11.0730   -2.6030  -18.2700 C.3    35  PHE35       0.1736
     40  C         11.8970   -3.5960  -17.4490 C.2    35  PHE35       0.2595
     41  O         12.9540   -4.0550  -17.8750 O.2    35  PHE35      -0.2718
     42  CB        11.3950   -1.1630  -17.8550 C.3    35  PHE35       0.0547
     43  CG        10.8400   -0.1060  -18.7770 C.ar   35  PHE35      -0.0202
     44  CD1       11.0500   -0.1500  -20.1480 C.ar   35  PHE35      -0.0042
     45  CD2       10.1370    0.9810  -18.2760 C.ar   35  PHE35      -0.0042
     46  CE1       10.5370    0.8520  -20.9660 C.ar   35  PHE35      -0.0003
     47  CE2        9.6370    1.9700  -19.0850 C.ar   35  PHE35      -0.0003
     48  CZ         9.8240    1.9100  -20.4400 C.ar   35  PHE35      -0.0000
     49  N         11.4160   -3.9040  -16.2400 N.am   36  ARG36      -0.1980
     50  CA        12.1290   -4.8670  -15.4070 C.3    36  ARG36       0.1597
     51  C         12.1600   -6.2640  -16.0280 C.2    36  ARG36       0.2287
     52  O         13.1690   -6.9570  -15.9060 O.2    36  ARG36      -0.2864
     53  CB        11.5990   -4.9040  -13.9750 C.3    36  ARG36       0.0334
     54  CG        12.0070   -3.6730  -13.1840 C.3    36  ARG36       0.0492
     55  CD        11.5300   -3.7180  -11.7340 C.3    36  ARG36       0.2205
     56  NE        10.0910   -3.5080  -11.6330 N.pl3  36  ARG36      -0.0865
     57  CZ         9.5160   -2.3150  -11.6930 C.cat  36  ARG36       0.5346
     58  NH1       10.2320   -1.2140  -11.7840 N.pl3  36  ARG36       0.1354
     59  NH2        8.1970   -2.2250  -11.6770 N.pl3  36  ARG36       0.1354
     60  N         16.4290    4.2690  -15.6610 N.3    53  MET53      -0.1245
     61  CA        15.7890    3.8630  -14.4140 C.3    53  MET53       0.1570
     62  C         16.7230    4.0010  -13.2200 C.2    53  MET53       0.2261
     63  O         16.3210    4.4640  -12.1470 O.2    53  MET53      -0.2867
     64  CB        15.2920    2.4220  -14.5340 C.3    53  MET53       0.0387
     65  CG        14.1860    2.2460  -15.5700 C.3    53  MET53       0.0595
     66  SD        14.0000    0.5550  -16.1430 S.3    53  MET53      -0.1393
     67  CE        13.0810   -0.1040  -14.7780 C.3    53  MET53       0.0692
     68  N         16.9590    7.3460  -11.9020 N.3    56  GLY56      -0.1210
     69  CA        15.6860    7.8890  -11.4970 C.3    56  GLY56       0.1956
     70  C         15.0260    8.7910  -12.5130 C.2    56  GLY56       0.2612
     71  O         14.0910    9.5110  -12.1690 O.2    56  GLY56      -0.2717
     72  N         15.4910    8.7290  -13.7610 N.am   57  GLU57      -0.1965
     73  CA        14.9360    9.4940  -14.8690 C.3    57  GLU57       0.1733
     74  C         13.8660    8.6770  -15.5550 C.2    57  GLU57       0.2616
     75  O         13.8950    7.4490  -15.5260 O.2    57  GLU57      -0.2715
     76  CB        16.0300    9.8340  -15.8740 C.3    57  GLU57       0.0429
     77  CG        17.0640   10.8020  -15.3000 C.3    57  GLU57       0.1163
     78  CD        16.5360   12.2100  -14.8520 C.2    57  GLU57       0.3649
     79  OE1       15.5920   12.7870  -15.4500 O.co2  57  GLU57      -0.2457
     80  OE2       17.1070   12.8080  -13.9010 O.co2  57  GLU57      -0.2457
     81  N         12.9310    9.3550  -16.2060 N.am   58  LEU58      -0.1963
     82  CA        11.9600    8.6610  -17.0400 C.3    58  LEU58       0.1728
     83  C         12.6250    8.0830  -18.2850 C.2    58  LEU58       0.2616
     84  O         13.5070    8.6830  -18.8900 O.2    58  LEU58      -0.2715
     85  CB        10.8350    9.6000  -17.4540 C.3    58  LEU58       0.0311
     86  CG         9.9440   10.0860  -16.3150 C.3    58  LEU58       0.0022
     87  CD1        8.9050   11.0520  -16.8510 C.3    58  LEU58       0.0001
     88  CD2        9.2720    8.9520  -15.5670 C.3    58  LEU58       0.0001
     89  N         12.2070    6.8890  -18.6550 N.am   59  VAL59      -0.1977
     90  CA        12.5550    6.3720  -19.9810 C.3    59  VAL59       0.1596
     91  C         11.8770    7.2770  -21.0220 C.2    59  VAL59       0.2287
     92  O         10.7970    7.7850  -20.7800 O.2    59  VAL59      -0.2864
     93  CB        12.1200    4.9110  -20.1130 C.3    59  VAL59       0.0276
     94  CG1       12.3950    4.3650  -21.4930 C.3    59  VAL59       0.0022
     95  CG2       12.8000    4.0210  -19.0840 C.3    59  VAL59       0.0022
     96  N          8.2350    4.2530  -24.7610 N.3    64  THR64      -0.1218
     97  CA         7.3150    3.8290  -23.7320 C.3    64  THR64       0.1862
     98  C          5.8650    3.7790  -24.2640 C.2    64  THR64       0.2287
     99  O          5.1360    2.8020  -24.0530 O.2    64  THR64      -0.2866
    100  CB         7.4130    4.7910  -22.5380 C.3    64  THR64       0.1770
    101  OG1        8.7520    4.8430  -22.0610 O.3    64  THR64      -0.2211
    102  CG2        6.5270    4.3420  -21.4170 C.3    64  THR64       0.0375
    103  N         -0.8170    1.2450  -14.5800 N.3    84  ASP84      -0.1225
    104  CA        -0.1450    1.4830  -13.3060 C.3    84  ASP84       0.1805
    105  C          1.2820    1.9330  -13.5800 C.2    84  ASP84       0.2598
    106  O          2.1530    1.0950  -13.8180 O.2    84  ASP84      -0.2718
    107  CB        -0.1290    0.1640  -12.5290 C.3    84  ASP84       0.1424
    108  CG         0.7590    0.2020  -11.3250 C.2    84  ASP84       0.3668
    109  OD1        1.0000    1.3170  -10.8350 O.co2  84  ASP84      -0.2456
    110  OD2        1.1870   -0.8890  -10.8660 O.co2  84  ASP84      -0.2456
    111  N          1.5210    3.2410  -13.5570 N.am   85  GLY85      -0.1942
    112  CA         2.8320    3.8020  -13.8600 C.3    85  GLY85       0.2014
    113  C          2.9620    4.4290  -15.2280 C.2    85  GLY85       0.2638
    114  O          4.0400    4.9140  -15.5620 O.2    85  GLY85      -0.2714
    115  N          1.8750    4.3800  -16.0020 N.am   86  PHE86      -0.1973
    116  CA         1.7640    5.0810  -17.2760 C.3    86  PHE86       0.1639
    117  C          0.3840    5.7270  -17.2530 C.2    86  PHE86       0.2290
    118  O         -0.5670    5.0860  -16.8170 O.2    86  PHE86      -0.2864
    119  CB         1.9080    4.0740  -18.4350 C.3    86  PHE86       0.0560
    120  CG         1.7780    4.6870  -19.8120 C.ar   86  PHE86      -0.0200
    121  CD1        0.5220    4.9130  -20.3570 C.ar   86  PHE86      -0.0042
    122  CD2        2.9030    5.0300  -20.5550 C.ar   86  PHE86      -0.0042
    123  CE1        0.3920    5.4750  -21.6200 C.ar   86  PHE86      -0.0003
    124  CE2        2.7820    5.6010  -21.8220 C.ar   86  PHE86      -0.0003
    125  CZ         1.5270    5.8210  -22.3530 C.ar   86  PHE86      -0.0000
    126  N          3.2220    9.0460  -17.5530 N.3    88  ARG88      -0.1245
    127  CA         4.1340    9.7750  -16.6520 C.3    88  ARG88       0.1563
    128  C          4.4420   11.1950  -17.0940 C.2    88  ARG88       0.2260
    129  O          5.0380   11.9470  -16.3520 O.2    88  ARG88      -0.2867
    130  CB         5.4380    9.0220  -16.4570 C.3    88  ARG88       0.0307
    131  CG         5.2480    7.6880  -15.7630 C.3    88  ARG88       0.0489
    132  CD         4.9240    7.7830  -14.2720 C.3    88  ARG88       0.2205
    133  NE         6.0840    7.6430  -13.4010 N.pl3  88  ARG88      -0.0865
    134  CZ         6.5760    6.4950  -12.9460 C.cat  88  ARG88       0.5346
    135  NH1        6.1370    5.3330  -13.3880 N.pl3  88  ARG88       0.1354
    136  NH2        7.5760    6.5340  -12.0730 N.pl3  88  ARG88       0.1354
    137  N          2.7290   11.5630  -22.8400 N.3    92  GLN92      -0.1245
    138  CA         2.2220   10.1990  -22.7470 C.3    92  GLN92       0.1566
    139  C          0.7200   10.1630  -22.5660 C.2    92  GLN92       0.2260
    140  O          0.0510    9.2860  -23.1240 O.2    92  GLN92      -0.2867
    141  CB         2.8990    9.4330  -21.6010 C.3    92  GLN92       0.0367
    142  CG         4.3590    9.0930  -21.8810 C.3    92  GLN92       0.0905
    143  CD         5.0880    8.4090  -20.7420 C.2    92  GLN92       0.2608
    144  OE1        6.3390    8.4250  -20.6900 O.2    92  GLN92      -0.2717
    145  NE2        4.3700    7.8070  -19.8640 N.am   92  GLN92      -0.0878
    146  N          9.7670    3.0710   -0.0560 N.3   124  LEU124     -0.1245
    147  CA        10.5130    2.6590   -1.2400 C.3   124  LEU124      0.1561
    148  C         11.7760    1.8910   -0.9080 C.2   124  LEU124      0.2260
    149  O         12.0340    0.8480   -1.5120 O.2   124  LEU124     -0.2867
    150  CB        10.7960    3.8780   -2.1050 C.3   124  LEU124      0.0270
    151  CG         9.5270    4.4600   -2.7360 C.3   124  LEU124      0.0019
    152  CD1        9.8320    5.8090   -3.3710 C.3   124  LEU124      0.0001
    153  CD2        8.9230    3.4890   -3.7560 C.3   124  LEU124      0.0001
    154  N         10.9190   -1.6200    0.1050 N.3   127  ARG127     -0.1245
    155  CA        10.1500   -2.4080   -0.8620 C.3   127  ARG127      0.1563
    156  C         10.9540   -3.6260   -1.3020 C.2   127  ARG127      0.2260
    157  O         12.1600   -3.5430   -1.5430 O.2   127  ARG127     -0.2867
    158  CB         9.7740   -1.5330   -2.0610 C.3   127  ARG127      0.0307
    159  CG         9.0310   -2.2830   -3.1620 C.3   127  ARG127      0.0489
    160  CD         8.2670   -1.3720   -4.1030 C.3   127  ARG127      0.2205
    161  NE         9.1320   -0.4450   -4.8030 N.pl3 127  ARG127     -0.0865
    162  CZ         8.6780    0.5300   -5.5790 C.cat 127  ARG127      0.5346
    163  NH1        7.3780    0.7330   -5.7450 N.pl3 127  ARG127      0.1354
    164  NH2        9.5410    1.2930   -6.2120 N.pl3 127  ARG127      0.1354
    165  N         14.7760   -3.6560   -5.6330 N.3   160  ARG160     -0.1245
    166  CA        14.9970   -3.0610   -6.9340 C.3   160  ARG160      0.1563
    167  C         16.2220   -2.1690   -6.9420 C.2   160  ARG160      0.2260
    168  O         16.5110   -1.4600   -5.9640 O.2   160  ARG160     -0.2867
    169  CB        13.7840   -2.2360   -7.3480 C.3   160  ARG160      0.0307
    170  CG        12.6100   -3.0610   -7.8090 C.3   160  ARG160      0.0489
    171  CD        11.3210   -2.2900   -7.8280 C.3   160  ARG160      0.2205
    172  NE        11.4440   -0.9800   -8.4690 N.pl3 160  ARG160     -0.0865
    173  CZ        10.4070   -0.2300   -8.8300 C.cat 160  ARG160      0.5346
    174  NH1        9.1600   -0.6780   -8.7200 N.pl3 160  ARG160      0.1354
    175  NH2       10.6090    0.9940   -9.2820 N.pl3 160  ARG160      0.1354
    176  N         16.6490    0.6060   -8.3530 N.3   162  ASP162     -0.1239
    177  CA        16.3330    2.0270   -8.2080 C.3   162  ASP162      0.1674
    178  C         15.8280    2.4200   -6.8280 C.2   162  ASP162      0.2266
    179  O         15.7380    3.6340   -6.5560 O.2   162  ASP162     -0.2867
    180  CB        15.3840    2.5140   -9.3120 C.3   162  ASP162      0.1410
    181  CG        14.0390    1.7970   -9.3460 C.2   162  ASP162      0.3668
    182  OD1       13.9120    0.6810   -8.7850 O.co2 162  ASP162     -0.2456
    183  OD2       13.1180    2.3310  -10.0050 O.co2 162  ASP162     -0.2456
    184  N         13.6480   10.4030   -8.3750 N.3   171  ARG171     -0.1245
    185  CA        12.3650    9.9350   -8.8840 C.3   171  ARG171      0.1563
    186  C         11.2070   10.7890   -8.3730 C.2   171  ARG171      0.2260
    187  O         10.2400   11.0300   -9.0810 O.2   171  ARG171     -0.2867
    188  CB        12.1530    8.4840   -8.4670 C.3   171  ARG171      0.0307
    189  CG        13.0520    7.5530   -9.2140 C.3   171  ARG171      0.0489
    190  CD        13.3120    6.2800   -8.4770 C.3   171  ARG171      0.2205
    191  NE        12.0980    5.5410   -8.1300 N.pl3 171  ARG171     -0.0865
    192  CZ        12.0550    4.5660   -7.2390 C.cat 171  ARG171      0.5346
    193  NH1       13.1320    4.2290   -6.5410 N.pl3 171  ARG171      0.1354
    194  NH2       10.9160    3.9690   -6.9660 N.pl3 171  ARG171      0.1354
@<TRIPOS>BOND
     1    96    97    1
     2    98    99    2
     3    98    97    1
     4    97   100    1
     5   140   139    2
     6   137   138    1
     7   138   139    1
     8   138   141    1
     9   100   101    1
    10   100   102    1
    11   125   124   ar
    12   125   123   ar
    13   142   141    1
    14   142   143    1
    15   124   122   ar
    16   123   121   ar
    17    94    93    1
    18    91    92    2
    19    91    90    1
    20    46    48   ar
    21    46    44   ar
    22   143   144    2
    23   143   145   am
    24   122   120   ar
    25    48    47   ar
    26   121   120   ar
    27    44    43   ar
    28    93    90    1
    29    93    95    1
    30    90    89    1
    31   120   119    1
    32    33    31    1
    33    47    45   ar
    34    84    83    2
    35    43    45   ar
    36    43    42    1
    37    89    83   am
    38   119   116    1
    39    83    82    1
    40    39    38    1
    41    39    42    1
    42    39    40    1
    43    31    28    1
    44    31    32    1
    45    41    40    2
    46    28    29    1
    47    28    27    1
    48   126   127    1
    49    30    29    2
    50    85    82    1
    51    85    86    1
    52    40    49   am
    53   116   117    1
    54   116   115    1
    55   117   118    2
    56   128   127    1
    57   128   129    2
    58    82    81    1
    59    29    34   am
    60    87    86    1
    61    27    23   am
    62    24    23    2
    63   127   130    1
    64   130   131    1
    65    23    22    1
    66    86    88    1
    67    49    50    1
    68    21    22    1
    69    81    74   am
    70    66    65    1
    71    66    67    1
    72    51    52    2
    73    51    50    1
    74   115   113   am
    75    76    77    1
    76    76    73    1
    77   131   132    1
    78    60    61    1
    79    34    35    1
    80    65    64    1
    81   114   113    2
    82    74    75    2
    83    74    73    1
    84    22    25    1
    85    79    78   ar
    86    50    53    1
    87    77    78    1
    88   113   112    1
    89    37    36    2
    90    36    35    1
    91    73    72    1
    92    78    80   ar
    93   103   104    1
    94    64    61    1
    95    61    62    1
    96   132   133    1
    97    25    26    1
    98    53    54    1
    99   112   111    1
   100   106   105    2
   101    72    70   am
   102   105   111   am
   103   105   104    1
   104   133   134    2
   105   135   134    1
   106   104   107    1
   107    62    63    2
   108    54    55    1
   109   134   136    1
   110   107   108    1
   111    70    71    2
   112    70    69    1
   113    68    69    1
   114    58    57    1
   115    55    56    1
   116    57    59    1
   117    57    56    2
   118   108   110   ar
   119   108   109   ar
   120   183   181   ar
   121   181   180    1
   122   181   182   ar
   123   180   177    1
   124   175   173    1
   125    19    18    1
   126    19    20    1
   127   189   190    1
   128   189   188    1
   129   187   186    2
   130    18    17    1
   131   185   188    1
   132   185   184    1
   133   185   186    1
   134   173   174    1
   135   173   172    2
   136   190   191    1
   137   172   171    1
   138   176   177    1
   139   177   178    1
   140   191   192    2
   141     6     7    1
   142     6     5    1
   143    16    17    1
   144    16    13    1
   145   171   170    1
   146   170   169    1
   147     7     1    1
   148    15    14    2
   149   169   166    1
   150   192   194    1
   151   192   193    1
   152    14    13    1
   153   167   166    1
   154   167   168    2
   155   166   165    1
   156     5     2    1
   157     1     2    1
   158   178   179    2
   159    13    12    1
   160     2     3    1
   161   164   162    1
   162   163   162    1
   163   162   161    2
   164     3     8   am
   165     3     4    2
   166   161   160    1
   167     8     9    1
   168   160   159    1
   169   153   151    1
   170   152   151    1
   171     9    10    1
   172   159   158    1
   173    10    11    2
   174   151   150    1
   175   150   147    1
   176   158   155    1
   177   157   156    2
   178   149   148    2
   179   156   155    1
   180   147   148    1
   181   147   146    1
   182   155   154    1
