@<TRIPOS>MOLECULE
tmp/5g40A01.pdb
 190 178 0 0 0
SMALL
GASTEIGER

@<TRIPOS>ATOM
      1  N         -1.8520   -7.2770   18.3930 N.3     9  PRO9       -0.2116
      2  CA        -2.8360   -6.3890   19.0090 C.3     9  PRO9        0.1372
      3  C         -2.7940   -6.5340   20.5330 C.2     9  PRO9        0.2244
      4  O         -2.8210   -7.6710   21.0590 O.2     9  PRO9       -0.2868
      5  CB        -4.1720   -6.9480   18.4670 C.3     9  PRO9        0.0268
      6  CG        -3.8450   -7.5300   17.1410 C.3     9  PRO9        0.0207
      7  CD        -2.4650   -8.1180   17.3400 C.3     9  PRO9        0.0892
      8  N          2.0410   -1.2590   21.8270 N.3    13  LYS13      -0.1245
      9  CA         2.6800   -0.3560   20.8310 C.3    13  LYS13       0.1561
     10  C          2.2430    1.0820   20.9260 C.2    13  LYS13       0.2260
     11  O          3.0580    1.9620   21.0360 O.2    13  LYS13      -0.2867
     12  CB         2.3910   -0.8840   19.4360 C.3    13  LYS13       0.0271
     13  CG         2.8090   -2.3370   19.2540 C.3    13  LYS13       0.0035
     14  CD         2.6140   -2.8660   17.8380 C.3    13  LYS13       0.0206
     15  CE         1.1640   -2.9270   17.3360 C.3    13  LYS13       0.1093
     16  NZ         0.3620   -3.9410   18.1110 N.3    13  LYS13      -0.1314
     17  N          0.3820    5.9870   13.1090 N.3    30  SER30      -0.1202
     18  CA        -0.3210    4.7480   13.4260 C.3    30  SER30       0.2020
     19  C         -1.3480    4.5130   12.3770 C.2    30  SER30       0.2619
     20  O         -2.2370    5.3440   12.1750 O.2    30  SER30      -0.2717
     21  CB        -0.9510    4.8180   14.8240 C.3    30  SER30       0.2103
     22  OG        -2.0340    3.9260   14.9660 O.3    30  SER30      -0.2182
     23  N         -1.2560    3.3680   11.7220 N.am   31  THR31      -0.1938
     24  CA        -2.1510    3.0680   10.6180 C.3    31  THR31       0.2028
     25  C         -3.5790    2.8790   11.1810 C.2    31  THR31       0.2642
     26  O         -4.5560    3.3500   10.5750 O.2    31  THR31      -0.2714
     27  CB        -1.6960    1.8530    9.8070 C.3    31  THR31       0.1808
     28  OG1       -1.0460    0.8970   10.6450 O.3    31  THR31      -0.2208
     29  CG2       -0.7160    2.3320    8.7440 C.3    31  THR31       0.0379
     30  N         -3.6390    2.2560   12.3680 N.am   32  GLY32      -0.1954
     31  CA        -4.9290    2.0770   13.0810 C.3    32  GLY32       0.1869
     32  C         -5.6150    3.4040   13.3800 C.2    32  GLY32       0.2309
     33  O         -6.8040    3.5940   13.0340 O.2    32  GLY32      -0.2863
     34  N         -6.7950    5.0050   10.0850 N.3    35  PHE35      -0.1227
     35  CA        -8.0040    4.4090    9.5680 C.3    35  PHE35       0.1736
     36  C         -9.2210    4.8270   10.3960 C.2    35  PHE35       0.2595
     37  O        -10.3170    5.0800    9.8400 O.2    35  PHE35      -0.2718
     38  CB        -7.9120    2.9110    9.5630 C.3    35  PHE35       0.0547
     39  CG        -7.0430    2.3470    8.4670 C.ar   35  PHE35      -0.0202
     40  CD1       -7.1980    2.7650    7.1650 C.ar   35  PHE35      -0.0042
     41  CD2       -6.1330    1.3520    8.7560 C.ar   35  PHE35      -0.0042
     42  CE1       -6.4190    2.2030    6.1530 C.ar   35  PHE35      -0.0003
     43  CE2       -5.3310    0.8030    7.7500 C.ar   35  PHE35      -0.0003
     44  CZ        -5.4820    1.2350    6.4550 C.ar   35  PHE35      -0.0000
     45  N         -9.0350    4.8640   11.7080 N.am   36  ARG36      -0.1980
     46  CA       -10.1810    5.2870   12.5910 C.3    36  ARG36       0.1597
     47  C        -10.5550    6.7400   12.3450 C.2    36  ARG36       0.2287
     48  O        -11.7520    7.0960   12.3380 O.2    36  ARG36      -0.2864
     49  CB        -9.8840    5.0060   14.0460 C.3    36  ARG36       0.0334
     50  CG       -10.0290    3.5740   14.4670 C.3    36  ARG36       0.0492
     51  CD        -9.8030    3.3840   15.9710 C.3    36  ARG36       0.2205
     52  NE        -8.4040    3.6160   16.3640 N.pl3  36  ARG36      -0.0865
     53  CZ        -7.4240    2.7160   16.2900 C.cat  36  ARG36       0.5346
     54  NH1       -7.6580    1.4860   15.8460 N.pl3  36  ARG36       0.1354
     55  NH2       -6.1790    3.0680   16.6510 N.pl3  36  ARG36       0.1354
     56  N        -11.9030   -3.5710    9.1200 N.3    53  MET53      -0.1245
     57  CA       -11.6370   -3.2530   10.5090 C.3    53  MET53       0.1570
     58  C        -12.7210   -3.8370   11.4240 C.2    53  MET53       0.2261
     59  O        -12.3890   -4.3890   12.4710 O.2    53  MET53      -0.2867
     60  CB       -11.5000   -1.7600   10.6880 C.3    53  MET53       0.0387
     61  CG       -10.2840   -1.2010    9.9500 C.3    53  MET53       0.0595
     62  SD       -10.3250    0.5660   10.0970 S.3    53  MET53      -0.1393
     63  CE        -9.7830    0.7660   11.8080 C.3    53  MET53       0.0692
     64  N        -11.9970   -7.4160   12.0050 N.3    56  GLY56      -0.1210
     65  CA       -10.6830   -7.7010   12.5610 C.3    56  GLY56       0.1956
     66  C         -9.6840   -8.1570   11.5120 C.2    56  GLY56       0.2612
     67  O         -8.6260   -8.7260   11.8340 O.2    56  GLY56      -0.2717
     68  N        -10.0630   -7.9480   10.2680 N.am   57  GLU57      -0.1965
     69  CA        -9.2380   -8.3080    9.1360 C.3    57  GLU57       0.1733
     70  C         -8.3100   -7.1440    8.8480 C.2    57  GLU57       0.2616
     71  O         -8.5790   -6.0100    9.1900 O.2    57  GLU57      -0.2715
     72  CB       -10.0940   -8.6200    7.9110 C.3    57  GLU57       0.0429
     73  CG       -11.0460   -9.8090    8.0270 C.3    57  GLU57       0.1163
     74  CD       -10.3820  -11.1920    8.0550 C.2    57  GLU57       0.3649
     75  OE1       -9.2750  -11.3610    7.4580 O.co2  57  GLU57      -0.2457
     76  OE2      -10.9910  -12.1340    8.6490 O.co2  57  GLU57      -0.2457
     77  N         -7.2080   -7.4210    8.1730 N.am   58  LEU58      -0.1963
     78  CA        -6.3490   -6.3360    7.6980 C.3    58  LEU58       0.1728
     79  C         -6.9290   -5.5840    6.4770 C.2    58  LEU58       0.2616
     80  O         -7.5130   -6.1910    5.5820 O.2    58  LEU58      -0.2715
     81  CB        -4.9740   -6.9040    7.3530 C.3    58  LEU58       0.0311
     82  CG        -4.1490   -7.5990    8.4360 C.3    58  LEU58       0.0022
     83  CD1       -2.8390   -8.0850    7.8280 C.3    58  LEU58       0.0001
     84  CD2       -3.8790   -6.7040    9.6360 C.3    58  LEU58       0.0001
     85  N         -6.7070   -4.2720    6.4230 N.am   59  VAL59      -0.1977
     86  CA        -7.0860   -3.4690    5.2650 C.3    59  VAL59       0.1596
     87  C         -6.0910   -3.8440    4.1340 C.2    59  VAL59       0.2287
     88  O         -4.9760   -4.1260    4.4250 O.2    59  VAL59      -0.2864
     89  CB        -7.0610   -1.9800    5.6070 C.3    59  VAL59       0.0276
     90  CG1       -7.4180   -1.1450    4.4260 C.3    59  VAL59       0.0022
     91  CG2       -8.1150   -1.6770    6.7050 C.3    59  VAL59       0.0022
     92  N         -3.3260    0.6030    2.4920 N.3    64  THR64      -0.1218
     93  CA        -2.5080    0.8670    3.6470 C.3    64  THR64       0.1862
     94  C         -1.1920    1.5170    3.2280 C.2    64  THR64       0.2287
     95  O         -0.7890    2.5050    3.7530 O.2    64  THR64      -0.2866
     96  CB        -2.2560   -0.4320    4.4360 C.3    64  THR64       0.1770
     97  OG1       -3.5060   -1.0890    4.7000 O.3    64  THR64      -0.2211
     98  CG2       -1.5660   -0.1620    5.7230 C.3    64  THR64       0.0375
     99  N          3.7890    2.8200   13.8930 N.3    84  ASP84      -0.1225
    100  CA         3.1830    2.0260   14.9290 C.3    84  ASP84       0.1805
    101  C          2.1360    1.1680   14.2450 C.2    84  ASP84       0.2598
    102  O          1.0960    1.6880   13.8190 O.2    84  ASP84      -0.2718
    103  CB         2.5730    2.9950   15.9890 C.3    84  ASP84       0.1424
    104  CG         1.6110    2.3170   16.9600 C.2    84  ASP84       0.3668
    105  OD1        1.6230    1.0680   17.0170 O.co2  84  ASP84      -0.2456
    106  OD2        0.8590    3.0650   17.6710 O.co2  84  ASP84      -0.2456
    107  N          2.3920   -0.1290   14.1350 N.am   85  GLY85      -0.1942
    108  CA         1.4210   -1.0640   13.5640 C.3    85  GLY85       0.2014
    109  C          1.4980   -1.1350   12.0500 C.2    85  GLY85       0.2638
    110  O          0.6150   -1.6410   11.3820 O.2    85  GLY85      -0.2714
    111  N          2.5550   -0.5720   11.5280 N.am   86  PHE86      -0.1973
    112  CA         2.8690   -0.8120   10.1130 C.3    86  PHE86       0.1639
    113  C          4.3600   -0.9610   10.0920 C.2    86  PHE86       0.2290
    114  O          5.0360   -0.2640   10.8260 O.2    86  PHE86      -0.2864
    115  CB         2.4760    0.4030    9.2810 C.3    86  PHE86       0.0560
    116  CG         2.8780    0.3280    7.8170 C.ar   86  PHE86      -0.0200
    117  CD1        4.1930    0.6240    7.4030 C.ar   86  PHE86      -0.0042
    118  CD2        1.9500    0.0140    6.8400 C.ar   86  PHE86      -0.0042
    119  CE1        4.5250    0.5740    6.0500 C.ar   86  PHE86      -0.0003
    120  CE2        2.2990   -0.0750    5.4890 C.ar   86  PHE86      -0.0003
    121  CZ         3.5790    0.2390    5.1010 C.ar   86  PHE86      -0.0000
    122  N          2.6220   -4.6290    8.7590 N.3    88  ARG88      -0.1245
    123  CA         1.9710   -5.8380    9.2710 C.3    88  ARG88       0.1563
    124  C          1.8720   -7.0100    8.3520 C.2    88  ARG88       0.2260
    125  O          1.3010   -8.0090    8.7390 O.2    88  ARG88      -0.2867
    126  CB         0.5590   -5.4810    9.7360 C.3    88  ARG88       0.0307
    127  CG         0.6390   -5.2460   11.2070 C.3    88  ARG88       0.0489
    128  CD        -0.2520   -4.1510   11.6460 C.3    88  ARG88       0.2205
    129  NE        -1.3870   -4.7160   12.2260 N.pl3  88  ARG88      -0.0865
    130  CZ        -2.1840   -4.0610   13.0540 C.cat  88  ARG88       0.5346
    131  NH1       -1.9830   -2.7780   13.3600 N.pl3  88  ARG88       0.1354
    132  NH2       -3.2230   -4.7160   13.5410 N.pl3  88  ARG88       0.1354
    133  N          4.0070   -5.2130    2.9660 N.3    92  GLN92      -0.1245
    134  CA         4.1230   -3.8680    3.4700 C.3    92  GLN92       0.1566
    135  C          5.5710   -3.5280    3.8580 C.2    92  GLN92       0.2260
    136  O          5.9920   -2.3750    3.7430 O.2    92  GLN92      -0.2867
    137  CB         3.1500   -3.6440    4.6800 C.3    92  GLN92       0.0367
    138  CG         1.7090   -3.5740    4.2040 C.3    92  GLN92       0.0905
    139  CD         0.7000   -3.5600    5.3350 C.2    92  GLN92       0.2608
    140  OE1       -0.4770   -3.8430    5.1410 O.2    92  GLN92      -0.2717
    141  NE2        1.1630   -3.2400    6.4820 N.am   92  GLN92      -0.0878
    142  N         -9.1240   -2.1360   27.6200 N.3   127  ARG127     -0.1245
    143  CA        -8.6640   -0.9770   26.9860 C.3   127  ARG127      0.1563
    144  C         -9.7620    0.0470   26.7300 C.2   127  ARG127      0.2260
    145  O        -10.8140   -0.2910   26.2020 O.2   127  ARG127     -0.2867
    146  CB        -8.0110   -1.3610   25.6260 C.3   127  ARG127      0.0307
    147  CG        -7.5360   -0.1540   24.8380 C.3   127  ARG127      0.0489
    148  CD        -6.5200   -0.5750   23.7720 C.3   127  ARG127      0.2205
    149  NE        -7.0950   -1.2960   22.6610 N.pl3 127  ARG127     -0.0865
    150  CZ        -6.3730   -1.7320   21.6060 C.cat 127  ARG127      0.5346
    151  NH1       -5.0540   -1.5380   21.5730 N.pl3 127  ARG127      0.1354
    152  NH2       -6.9550   -2.4030   20.6560 N.pl3 127  ARG127      0.1354
    153  N        -13.1780    0.6240   21.9080 N.3   160  ARG160     -0.1245
    154  CA       -13.1450    0.3200   20.5020 C.3   160  ARG160      0.1563
    155  C        -14.0970   -0.8020   20.1050 C.2   160  ARG160      0.2260
    156  O        -14.2120   -1.8140   20.8050 O.2   160  ARG160     -0.2867
    157  CB       -11.7280   -0.0690   20.0570 C.3   160  ARG160      0.0307
    158  CG       -10.7850    1.0960   19.9490 C.3   160  ARG160      0.0489
    159  CD        -9.3470    0.6260   19.8270 C.3   160  ARG160      0.2205
    160  NE        -9.1230   -0.3360   18.7630 N.pl3 160  ARG160     -0.0865
    161  CZ        -7.9120   -0.6250   18.2890 C.cat 160  ARG160      0.5346
    162  NH1       -6.8080    0.0220   18.7160 N.pl3 160  ARG160      0.1354
    163  NH2       -7.8110   -1.5430   17.3430 N.pl3 160  ARG160      0.1354
    164  N        -13.7490   -2.9210   17.8770 N.3   162  ASP162     -0.1239
    165  CA       -13.0270   -4.1450   17.6500 C.3   162  ASP162      0.1674
    166  C        -12.4300   -4.8220   18.8930 C.2   162  ASP162      0.2266
    167  O        -11.8880   -5.9230   18.7900 O.2   162  ASP162     -0.2867
    168  CB       -11.9990   -3.9320   16.5100 C.3   162  ASP162      0.1410
    169  CG       -10.8870   -2.9080   16.8280 C.2   162  ASP162      0.3668
    170  OD1      -10.9660   -2.1400   17.8190 O.co2 162  ASP162     -0.2456
    171  OD2       -9.8950   -2.8810   16.0050 O.co2 162  ASP162     -0.2456
    172  N         -8.7670  -11.0070   15.2210 N.3   171  ARG171     -0.1245
    173  CA        -7.5590  -10.1500   15.1290 C.3   171  ARG171      0.1563
    174  C         -6.2550  -10.8450   15.4870 C.2   171  ARG171      0.2260
    175  O         -5.2120  -10.6670   14.7680 O.2   171  ARG171     -0.2867
    176  CB        -7.7400   -8.8650   15.9650 C.3   171  ARG171      0.0307
    177  CG        -8.7010   -7.8880   15.3280 C.3   171  ARG171      0.0489
    178  CD        -9.1510   -6.7610   16.2210 C.3   171  ARG171      0.2205
    179  NE        -8.0390   -6.0180   16.7790 N.pl3 171  ARG171     -0.0865
    180  CZ        -8.0110   -5.4500   17.9980 C.cat 171  ARG171      0.5346
    181  NH1       -9.0410   -5.5100   18.8730 N.pl3 171  ARG171      0.1354
    182  NH2       -6.9240   -4.7910   18.3510 N.pl3 171  ARG171      0.1354
    183  N         -3.2820  -11.4200   12.6690 N.3   175  ASN175     -0.1240
    184  CA        -1.9920  -10.7980   12.8790 C.3   175  ASN175      0.1653
    185  C         -0.8940  -11.8040   13.2040 C.2   175  ASN175      0.2266
    186  O          0.2590  -11.5900   12.7860 O.2   175  ASN175     -0.2867
    187  CB        -2.1160   -9.7040   13.9520 C.3   175  ASN175      0.1155
    188  CG        -2.8960   -8.4990   13.4560 C.2   175  ASN175      0.2627
    189  OD1       -4.1270   -8.4120   13.5610 O.2   175  ASN175     -0.2716
    190  ND2       -2.1810   -7.5810   12.8450 N.am  175  ASN175     -0.0877
@<TRIPOS>BOND
     1    92    93    1
     2   133   134    1
     3    94    93    1
     4    94    95    2
     5   134   135    1
     6   134   137    1
     7    93    96    1
     8   136   135    2
     9    87    88    2
    10    87    86    1
    11   138   137    1
    12   138   139    1
    13    90    89    1
    14    96    97    1
    15    96    98    1
    16   121   120   ar
    17   121   119   ar
    18   140   139    2
    19    86    89    1
    20    86    85    1
    21   139   141   am
    22   120   118   ar
    23    80    79    2
    24    89    91    1
    25   119   117   ar
    26    42    44   ar
    27    42    40   ar
    28    85    79   am
    29    44    43   ar
    30    79    78    1
    31   118   116   ar
    32    40    39   ar
    33    81    78    1
    34    81    82    1
    35   117   116   ar
    36    75    74   ar
    37    78    77    1
    38    43    41   ar
    39   116   115    1
    40    83    82    1
    41    72    73    1
    42    72    69    1
    43    73    74    1
    44    74    76   ar
    45    77    70   am
    46   124   125    2
    47   124   123    1
    48    82    84    1
    49    39    41   ar
    50    39    38    1
    51    29    27    1
    52   122   123    1
    53    70    69    1
    54    70    71    2
    55    56    57    1
    56    69    68    1
    57   123   126    1
    58   115   112    1
    59    38    35    1
    60    35    34    1
    61    35    36    1
    62   126   127    1
    63    27    24    1
    64    27    28    1
    65    37    36    2
    66    61    62    1
    67    61    60    1
    68   113   112    1
    69   113   114    2
    70    62    63    1
    71   112   111    1
    72    68    66   am
    73    36    45   am
    74    57    60    1
    75    57    58    1
    76    26    25    2
    77    24    25    1
    78    24    23    1
    79    25    30   am
    80   127   128    1
    81   110   109    2
    82    58    59    2
    83    66    67    2
    84    66    65    1
    85   111   109   am
    86   128   129    1
    87    45    46    1
    88    23    19   am
    89    64    65    1
    90   109   108    1
    91    20    19    2
    92   129   130    2
    93    48    47    2
    94    47    46    1
    95    30    31    1
    96    19    18    1
    97    46    49    1
    98   183   184    1
    99   186   185    2
   100   190   188   am
   101   184   185    1
   102   184   187    1
   103    33    32    2
   104   130   131    1
   105   130   132    1
   106    31    32    1
   107    17    18    1
   108    18    21    1
   109   188   189    2
   110   188   187    1
   111   108   107    1
   112   102   101    2
   113    99   100    1
   114    49    50    1
   115   107   101   am
   116   101   100    1
   117    50    51    1
   118   175   174    2
   119    21    22    1
   120   100   103    1
   121   173   172    1
   122   173   174    1
   123   173   176    1
   124   177   176    1
   125   177   178    1
   126    54    53    1
   127    51    52    1
   128   103   104    1
   129   171   169   ar
   130   178   179    1
   131    53    52    2
   132    53    55    1
   133   168   169    1
   134   168   165    1
   135   179   180    2
   136   169   170   ar
   137   104   105   ar
   138   104   106   ar
   139     6     7    1
   140     6     5    1
   141    15    14    1
   142    15    16    1
   143     7     1    1
   144   163   161    1
   145   165   164    1
   146   165   166    1
   147    14    13    1
   148   180   182    1
   149   180   181    1
   150   161   162    1
   151   161   160    2
   152     1     2    1
   153     5     2    1
   154   160   159    1
   155   167   166    2
   156     2     3    1
   157    13    12    1
   158    12     9    1
   159   159   158    1
   160   158   157    1
   161   157   154    1
   162   155   154    1
   163   155   156    2
   164   154   153    1
   165     3     4    2
   166   152   150    1
   167     9    10    1
   168     9     8    1
   169    10    11    2
   170   151   150    1
   171   150   149    2
   172   149   148    1
   173   148   147    1
   174   147   146    1
   175   146   143    1
   176   145   144    2
   177   144   143    1
   178   143   142    1
