@<TRIPOS>MOLECULE
tmp/5g40A00.pdb
 193 186 0 0 0
SMALL
GASTEIGER

@<TRIPOS>ATOM
      1  N         -1.8520   -7.2770   18.3930 N.3     9  PRO9       -0.2102
      2  CA        -2.8360   -6.3890   19.0090 C.3     9  PRO9        0.1504
      3  C         -2.7940   -6.5340   20.5330 C.2     9  PRO9        0.2576
      4  O         -2.8210   -7.6710   21.0590 O.2     9  PRO9       -0.2718
      5  CB        -4.1720   -6.9480   18.4670 C.3     9  PRO9        0.0282
      6  CG        -3.8450   -7.5300   17.1410 C.3     9  PRO9        0.0208
      7  CD        -2.4650   -8.1180   17.3400 C.3     9  PRO9        0.0893
      8  N         -2.7530   -5.4060   21.2350 N.am   10  GLY10      -0.1943
      9  CA        -2.7270   -5.4180   22.7150 C.3    10  GLY10       0.2014
     10  C         -1.3460   -5.5000   23.3370 C.2    10  GLY10       0.2639
     11  O         -1.2070   -5.3590   24.5610 O.2    10  GLY10      -0.2714
     12  N         -0.2850   -5.6290   22.5230 N.am   11  ALA11      -0.1963
     13  CA         1.0450   -5.7920   23.0830 C.3    11  ALA11       0.1728
     14  C          1.6210   -4.5510   23.7800 C.2    11  ALA11       0.2617
     15  O          2.5290   -4.7020   24.5860 O.2    11  ALA11      -0.2715
     16  CB         2.0280   -6.3070   22.0130 C.3    11  ALA11       0.0334
     17  N          1.1010   -3.3580   23.4910 N.am   12  GLY12      -0.1940
     18  CA         1.5900   -2.1110   24.0540 C.3    12  GLY12       0.2014
     19  C          2.2770   -1.1340   23.1190 C.2    12  GLY12       0.2639
     20  O          2.9520   -0.2430   23.5550 O.2    12  GLY12      -0.2714
     21  N          2.0410   -1.2590   21.8270 N.am   13  LYS13      -0.1963
     22  CA         2.6800   -0.3560   20.8310 C.3    13  LYS13       0.1728
     23  C          2.2430    1.0820   20.9260 C.2    13  LYS13       0.2617
     24  O          3.0580    1.9620   21.0360 O.2    13  LYS13      -0.2715
     25  CB         2.3910   -0.8840   19.4360 C.3    13  LYS13       0.0311
     26  CG         2.8090   -2.3370   19.2540 C.3    13  LYS13       0.0038
     27  CD         2.6140   -2.8660   17.8380 C.3    13  LYS13       0.0206
     28  CE         1.1640   -2.9270   17.3360 C.3    13  LYS13       0.1093
     29  NZ         0.3620   -3.9410   18.1110 N.3    13  LYS13      -0.1314
     30  N          0.9180    1.3310   20.9330 N.am   14  GLY14      -0.1940
     31  CA         0.3990    2.6710   21.1610 C.3    14  GLY14       0.2014
     32  C          0.8870    3.2730   22.4590 C.2    14  GLY14       0.2640
     33  O          1.2590    4.4200   22.5140 O.2    14  GLY14      -0.2714
     34  N          0.8830    2.4720   23.5190 N.am   15  THR15      -0.1936
     35  CA         1.3060    2.9350   24.8410 C.3    15  THR15       0.2028
     36  C          2.7410    3.4570   24.7730 C.2    15  THR15       0.2642
     37  O          3.0260    4.5840   25.1500 O.2    15  THR15      -0.2714
     38  CB         1.1580    1.7900   25.8610 C.3    15  THR15       0.1808
     39  OG1       -0.2240    1.4070   25.9140 O.3    15  THR15      -0.2208
     40  CG2        1.6580    2.1380   27.2490 C.3    15  THR15       0.0379
     41  N          3.6160    2.6230   24.2100 N.am   16  GLN16      -0.1976
     42  CA         5.0170    2.9730   24.0810 C.3    16  GLN16       0.1601
     43  C          5.2480    4.0590   23.0660 C.2    16  GLN16       0.2287
     44  O          6.1560    4.8980   23.2500 O.2    16  GLN16      -0.2864
     45  CB         5.8310    1.7390   23.7020 C.3    16  GLN16       0.0394
     46  CG         5.8960    0.6450   24.7690 C.3    16  GLN16       0.0908
     47  CD         6.3070    1.1760   26.1340 C.2    16  GLN16       0.2608
     48  OE1        5.6820    0.8910   27.1720 O.2    16  GLN16      -0.2717
     49  NE2        7.3460    1.9840   26.1340 N.am   16  GLN16      -0.0878
     50  N          3.7890    2.8200   13.8930 N.3    84  ASP84      -0.1239
     51  CA         3.1830    2.0260   14.9290 C.3    84  ASP84       0.1674
     52  C          2.1360    1.1680   14.2450 C.2    84  ASP84       0.2266
     53  O          1.0960    1.6880   13.8190 O.2    84  ASP84      -0.2867
     54  CB         2.5730    2.9950   15.9890 C.3    84  ASP84       0.1410
     55  CG         1.6110    2.3170   16.9600 C.2    84  ASP84       0.3668
     56  OD1        1.6230    1.0680   17.0170 O.co2  84  ASP84      -0.2456
     57  OD2        0.8590    3.0650   17.6710 O.co2  84  ASP84      -0.2456
     58  N         -5.8510   -7.4360   28.2680 N.3   123  ARG123     -0.1231
     59  CA        -5.4150   -6.1210   27.9040 C.3   123  ARG123      0.1694
     60  C         -6.4020   -5.4280   26.9930 C.2   123  ARG123      0.2591
     61  O         -6.7130   -4.2310   27.1710 O.2   123  ARG123     -0.2718
     62  CB        -4.0620   -6.1600   27.2670 C.3   123  ARG123      0.0321
     63  CG        -2.9780   -6.5230   28.2620 C.3   123  ARG123      0.0489
     64  CD        -1.6930   -6.0440   27.6970 C.3   123  ARG123      0.2205
     65  NE        -0.5340   -6.3620   28.4980 N.pl3 123  ARG123     -0.0865
     66  CZ         0.7000   -6.0900   28.1020 C.cat 123  ARG123      0.5346
     67  NH1        0.9170   -5.4790   26.9370 N.pl3 123  ARG123      0.1354
     68  NH2        1.7270   -6.4120   28.8760 N.pl3 123  ARG123      0.1354
     69  N         -6.9540   -6.1800   26.0570 N.am  124  LEU124     -0.1980
     70  CA        -7.8230   -5.5590   25.0700 C.3   124  LEU124      0.1596
     71  C         -9.2370   -5.2590   25.5910 C.2   124  LEU124      0.2287
     72  O         -9.8430   -4.2150   25.2680 O.2   124  LEU124     -0.2864
     73  CB        -7.8220   -6.3930   23.7960 C.3   124  LEU124      0.0297
     74  CG        -6.4850   -6.3180   23.0610 C.3   124  LEU124      0.0022
     75  CD1       -6.4850   -7.3710   21.9590 C.3   124  LEU124      0.0001
     76  CD2       -6.2790   -4.9230   22.4980 C.3   124  LEU124      0.0001
     77  N         -9.1240   -2.1360   27.6200 N.3   127  ARG127     -0.1245
     78  CA        -8.6640   -0.9770   26.9860 C.3   127  ARG127      0.1563
     79  C         -9.7620    0.0470   26.7300 C.2   127  ARG127      0.2260
     80  O        -10.8140   -0.2910   26.2020 O.2   127  ARG127     -0.2867
     81  CB        -8.0110   -1.3610   25.6260 C.3   127  ARG127      0.0307
     82  CG        -7.5360   -0.1540   24.8380 C.3   127  ARG127      0.0489
     83  CD        -6.5200   -0.5750   23.7720 C.3   127  ARG127      0.2205
     84  NE        -7.0950   -1.2960   22.6610 N.pl3 127  ARG127     -0.0865
     85  CZ        -6.3730   -1.7320   21.6060 C.cat 127  ARG127      0.5346
     86  NH1       -5.0540   -1.5380   21.5730 N.pl3 127  ARG127      0.1354
     87  NH2       -6.9550   -2.4030   20.6560 N.pl3 127  ARG127      0.1354
     88  N         -4.3300    5.8710   24.8280 N.3   136  THR136     -0.1203
     89  CA        -4.7320    4.5410   25.2260 C.3   136  THR136      0.1994
     90  C         -4.5810    4.4160   26.7400 C.2   136  THR136      0.2618
     91  O         -3.5620    4.7740   27.3130 O.2   136  THR136     -0.2717
     92  CB        -3.8870    3.4890   24.4990 C.3   136  THR136      0.1784
     93  OG1       -4.0560    3.7070   23.0900 O.3   136  THR136     -0.2211
     94  CG2       -4.3090    2.1800   24.8140 C.3   136  THR136      0.0376
     95  N         -5.6380    3.8750   27.3580 N.am  137  TYR137     -0.1961
     96  CA        -5.6590    3.6340   28.8030 C.3   137  TYR137      0.1771
     97  C         -6.1260    2.2110   29.0510 C.2   137  TYR137      0.2619
     98  O         -6.6330    1.5540   28.1610 O.2   137  TYR137     -0.2715
     99  CB        -6.6120    4.6340   29.4910 C.3   137  TYR137      0.0574
    100  CG        -6.1940    6.0600   29.3160 C.ar  137  TYR137     -0.0198
    101  CD1       -6.6110    6.7970   28.1900 C.ar  137  TYR137     -0.0009
    102  CD2       -5.3280    6.6750   30.2100 C.ar  137  TYR137     -0.0009
    103  CE1       -6.2120    8.1200   27.9890 C.ar  137  TYR137      0.0417
    104  CE2       -4.9150    8.0000   30.0090 C.ar  137  TYR137      0.0417
    105  CZ        -5.3510    8.7090   28.8880 C.ar  137  TYR137      0.1957
    106  OH        -4.9600   10.0070   28.6780 O.3   137  TYR137     -0.2866
    107  N         -5.9950    1.7510   30.2930 N.am  138  HIS138     -0.1973
    108  CA        -6.5490    0.4530   30.6630 C.3   138  HIS138      0.1656
    109  C         -7.1920    0.6670   32.0400 C.2   138  HIS138      0.2291
    110  O         -6.5950    1.2460   32.8790 O.2   138  HIS138     -0.2864
    111  CB        -5.4730   -0.6120   30.7470 C.3   138  HIS138      0.0771
    112  CG        -5.9900   -2.0120   30.8250 C.ar  138  HIS138      0.0820
    113  ND1       -6.4180   -2.5870   32.0070 N.ar  138  HIS138     -0.2267
    114  CD2       -6.1450   -2.9610   29.8800 C.ar  138  HIS138      0.1154
    115  CE1       -6.7730   -3.8340   31.7920 C.ar  138  HIS138      0.1986
    116  NE2       -6.6220   -4.0900   30.5030 N.ar  138  HIS138     -0.2212
    117  N         -4.7570   -1.5750   34.4330 N.3   141  PHE141     -0.1227
    118  CA        -3.3170   -1.4770   34.4470 C.3   141  PHE141      0.1736
    119  C         -2.7760   -0.0610   34.2230 C.2   141  PHE141      0.2595
    120  O         -1.5580    0.2070   34.4770 O.2   141  PHE141     -0.2718
    121  CB        -2.7420   -2.3850   33.3550 C.3   141  PHE141      0.0547
    122  CG        -3.1740   -3.8330   33.4420 C.ar  141  PHE141     -0.0202
    123  CD1       -3.0550   -4.5480   34.6210 C.ar  141  PHE141     -0.0042
    124  CD2       -3.6370   -4.5010   32.3040 C.ar  141  PHE141     -0.0042
    125  CE1       -3.4050   -5.8750   34.6710 C.ar  141  PHE141     -0.0003
    126  CE2       -3.9860   -5.8350   32.3470 C.ar  141  PHE141     -0.0003
    127  CZ        -3.8760   -6.5210   33.5380 C.ar  141  PHE141     -0.0000
    128  N         -3.6310    0.8190   33.6990 N.am  142  ASN142     -0.1974
    129  CA        -3.2100    2.1770   33.3150 C.3   142  ASN142      0.1688
    130  C         -4.3600    3.1630   33.1940 C.2   142  ASN142      0.2292
    131  O         -4.6610    3.6990   32.1370 O.2   142  ASN142     -0.2864
    132  CB        -2.3880    2.1480   32.0380 C.3   142  ASN142      0.1181
    133  CG        -1.6690    3.4700   31.7860 C.2   142  ASN142      0.2629
    134  OD1       -1.5170    4.2890   32.6840 O.2   142  ASN142     -0.2716
    135  ND2       -1.2560    3.6960   30.5470 N.am  142  ASN142     -0.0877
    136  N        -13.1780    0.6240   21.9080 N.3   160  ARG160     -0.1245
    137  CA       -13.1450    0.3200   20.5020 C.3   160  ARG160      0.1563
    138  C        -14.0970   -0.8020   20.1050 C.2   160  ARG160      0.2260
    139  O        -14.2120   -1.8140   20.8050 O.2   160  ARG160     -0.2867
    140  CB       -11.7280   -0.0690   20.0570 C.3   160  ARG160      0.0307
    141  CG       -10.7850    1.0960   19.9490 C.3   160  ARG160      0.0489
    142  CD        -9.3470    0.6260   19.8270 C.3   160  ARG160      0.2205
    143  NE        -9.1230   -0.3360   18.7630 N.pl3 160  ARG160     -0.0865
    144  CZ        -7.9120   -0.6250   18.2890 C.cat 160  ARG160      0.5346
    145  NH1       -6.8080    0.0220   18.7160 N.pl3 160  ARG160      0.1354
    146  NH2       -7.8110   -1.5430   17.3430 N.pl3 160  ARG160      0.1354
    147  N         -8.7670  -11.0070   15.2210 N.3   171  ARG171     -0.1245
    148  CA        -7.5590  -10.1500   15.1290 C.3   171  ARG171      0.1563
    149  C         -6.2550  -10.8450   15.4870 C.2   171  ARG171      0.2260
    150  O         -5.2120  -10.6670   14.7680 O.2   171  ARG171     -0.2867
    151  CB        -7.7400   -8.8650   15.9650 C.3   171  ARG171      0.0307
    152  CG        -8.7010   -7.8880   15.3280 C.3   171  ARG171      0.0489
    153  CD        -9.1510   -6.7610   16.2210 C.3   171  ARG171      0.2205
    154  NE        -8.0390   -6.0180   16.7790 N.pl3 171  ARG171     -0.0865
    155  CZ        -8.0110   -5.4500   17.9980 C.cat 171  ARG171      0.5346
    156  NH1       -9.0410   -5.5100   18.8730 N.pl3 171  ARG171      0.1354
    157  NH2       -6.9240   -4.7910   18.3510 N.pl3 171  ARG171      0.1354
    158  N          7.3920   -7.3500   26.5090 N.3   197  GLY197     -0.1225
    159  CA         6.2260   -6.5210   26.8030 C.3   197  GLY197      0.1811
    160  C          5.4020   -6.8650   28.0570 C.2   197  GLY197      0.2280
    161  O          4.4750   -6.1350   28.3930 O.2   197  GLY197     -0.2866
    162  N          6.0400   -6.5650   31.1780 N.3   199  GLN199     -0.1231
    163  CA         6.7030   -5.8380   32.2250 C.3   199  GLN199      0.1698
    164  C          5.8970   -4.5870   32.4680 C.2   199  GLN199      0.2592
    165  O          5.0080   -4.2720   31.7030 O.2   199  GLN199     -0.2718
    166  CB         8.1100   -5.4240   31.8010 C.3   199  GLN199      0.0381
    167  CG         9.0790   -6.5540   31.5130 C.3   199  GLN199      0.0905
    168  CD        10.4340   -6.0170   31.1170 C.2   199  GLN199      0.2608
    169  OE1       10.6640   -5.6480   29.9620 O.2   199  GLN199     -0.2717
    170  NE2       11.3380   -5.9520   32.0710 N.am  199  GLN199     -0.0878
    171  N          6.2540   -3.8850   33.5400 N.am  200  ASP200     -0.1960
    172  CA         5.7610   -2.5430   33.8420 C.3   200  ASP200      0.1840
    173  C          5.8460   -1.6600   32.5900 C.2   200  ASP200      0.2621
    174  O          6.7960   -1.7620   31.8000 O.2   200  ASP200     -0.2715
    175  CB         6.5970   -1.9410   34.9950 C.3   200  ASP200      0.1450
    176  CG         6.2890   -0.4690   35.2630 C.2   200  ASP200      0.3671
    177  OD1        5.0940   -0.0910   35.3810 O.co2 200  ASP200     -0.2456
    178  OD2        7.2520    0.3210   35.3650 O.co2 200  ASP200     -0.2456
    179  N          4.8550   -0.7960   32.4120 N.am  201  ILE201     -0.1977
    180  CA         4.8210    0.0870   31.2490 C.3   201  ILE201      0.1596
    181  C          6.1110    0.8970   31.1870 C.2   201  ILE201      0.2287
    182  O          6.7900    0.9720   30.1450 O.2   201  ILE201     -0.2864
    183  CB         3.5520    0.9700   31.2890 C.3   201  ILE201      0.0276
    184  CG1        2.3390    0.0640   31.0220 C.3   201  ILE201      0.0022
    185  CG2        3.6480    2.1490   30.3170 C.3   201  ILE201      0.0022
    186  CD1        0.9930    0.7590   31.0690 C.3   201  ILE201      0.0001
    187  N          9.1080   -1.3990   30.2870 N.3   204  VAL204     -0.1245
    188  CA         9.1280   -1.5950   28.8230 C.3   204  VAL204      0.1561
    189  C          9.7550   -0.3650   28.1440 C.2   204  VAL204      0.2260
    190  O         10.5810   -0.4900   27.2170 O.2   204  VAL204     -0.2867
    191  CB         7.7070   -1.8800   28.2610 C.3   204  VAL204      0.0252
    192  CG1        7.6990   -1.9420   26.7350 C.3   204  VAL204      0.0019
    193  CG2        7.1450   -3.1850   28.8190 C.3   204  VAL204      0.0019
@<TRIPOS>BOND
     1    53    52    2
     2    50    51    1
     3    52    51    1
     4   150   149    2
     5    51    54    1
     6   148   147    1
     7   148   149    1
     8   148   151    1
     9   152   151    1
    10   152   153    1
    11    54    55    1
    12   153   154    1
    13   154   155    2
    14    55    56   ar
    15    55    57   ar
    16     6     7    1
    17     6     5    1
    18    28    27    1
    19    28    29    1
    20     7     1    1
    21   146   144    1
    22    27    26    1
    23   155   157    1
    24   155   156    1
    25   144   145    1
    26   144   143    2
    27     1     2    1
    28     5     2    1
    29   143   142    1
    30     2     3    1
    31    26    25    1
    32    25    22    1
    33   142   141    1
    34   141   140    1
    35   140   137    1
    36   138   137    1
    37   138   139    2
    38   137   136    1
    39     3     4    2
    40     3     8   am
    41    87    85    1
    42    22    23    1
    43    22    21    1
    44    23    30   am
    45    23    24    2
    46    30    31    1
    47    31    32    1
    48     8     9    1
    49    86    85    1
    50    85    84    2
    51    21    19   am
    52    75    74    1
    53    16    13    1
    54    32    33    2
    55    32    34   am
    56    76    74    1
    57    12    13    1
    58    12    10   am
    59    84    83    1
    60     9    10    1
    61    74    73    1
    62    43    44    2
    63    43    42    1
    64    13    14    1
    65    93    92    1
    66    19    20    2
    67    19    18    1
    68    10    11    2
    69    17    14   am
    70    17    18    1
    71    34    35    1
    72    45    42    1
    73    45    46    1
    74    83    82    1
    75    14    15    2
    76    73    70    1
    77    42    41    1
    78    41    36   am
    79    92    94    1
    80    92    89    1
    81    46    47    1
    82    36    35    1
    83    36    37    2
    84    88    89    1
    85    82    81    1
    86    35    38    1
    87    70    71    1
    88    70    69    1
    89    89    90    1
    90    72    71    2
    91    81    78    1
    92    38    39    1
    93    38    40    1
    94    69    60   am
    95    47    49   am
    96    47    48    2
    97    80    79    2
    98   158   159    1
    99    79    78    1
   100   192   191    1
   101    90    91    2
   102    90    95   am
   103   159   160    1
   104    67    66    1
   105    78    77    1
   106    60    61    2
   107    60    59    1
   108   190   189    2
   109    62    59    1
   110    62    63    1
   111    95    96    1
   112    64    63    1
   113    64    65    1
   114    59    58    1
   115   103   101   ar
   116   103   105   ar
   117   160   161    2
   118    66    65    2
   119    66    68    1
   120   189   188    1
   121    98    97    2
   122   101   100   ar
   123   191   193    1
   124   191   188    1
   125   106   105    1
   126    96    97    1
   127    96    99    1
   128   188   187    1
   129   105   104   ar
   130    97   107   am
   131   100    99    1
   132   100   102   ar
   133   114   116   ar
   134   114   112   ar
   135   169   168    2
   136   104   102   ar
   137   182   181    2
   138   107   108    1
   139   185   183    1
   140   116   115   ar
   141   135   133   am
   142   108   111    1
   143   108   109    1
   144   111   112    1
   145   112   113   ar
   146   184   186    1
   147   184   183    1
   148   168   167    1
   149   168   170   am
   150   162   163    1
   151   181   180    1
   152   180   183    1
   153   180   179    1
   154   167   166    1
   155   165   164    2
   156   133   132    1
   157   133   134    2
   158   115   113   ar
   159   174   173    2
   160   166   163    1
   161   132   129    1
   162   109   110    2
   163   131   130    2
   164   163   164    1
   165   124   126   ar
   166   124   122   ar
   167   126   127   ar
   168   179   173   am
   169   164   171   am
   170   173   172    1
   171   130   129    1
   172   129   128    1
   173   121   122    1
   174   121   118    1
   175   122   123   ar
   176   127   125   ar
   177   171   172    1
   178   128   119   am
   179   172   175    1
   180   119   118    1
   181   119   120    2
   182   117   118    1
   183   123   125   ar
   184   175   176    1
   185   176   178   ar
   186   176   177   ar
