@<TRIPOS>MOLECULE
tmp/5g42A01.pdb
 138 133 0 0 0
SMALL
GASTEIGER

@<TRIPOS>ATOM
      1  N        -22.3520   -5.9770  -14.3910 N.3    29  GLN29      -0.1231
      2  CA       -22.7400   -5.4380  -13.0980 C.3    29  GLN29       0.1698
      3  C        -24.1330   -5.9850  -12.8160 C.2    29  GLN29       0.2592
      4  O        -24.4290   -6.3310  -11.6840 O.2    29  GLN29      -0.2718
      5  CB       -22.8310   -3.9030  -13.1300 C.3    29  GLN29       0.0381
      6  CG       -23.2910   -3.3520  -11.7850 C.3    29  GLN29       0.0905
      7  CD       -23.4580   -1.8600  -11.6650 C.2    29  GLN29       0.2608
      8  OE1      -23.6190   -1.3370  -10.5580 O.2    29  GLN29      -0.2717
      9  NE2      -23.4600   -1.1520  -12.7720 N.am   29  GLN29      -0.0878
     10  N        -24.9950   -5.9940  -13.8430 N.am   30  LEU30      -0.1980
     11  CA       -26.3870   -6.4070  -13.7740 C.3    30  LEU30       0.1596
     12  C        -26.6500   -7.6010  -14.6790 C.2    30  LEU30       0.2287
     13  O        -26.3110   -7.5750  -15.8640 O.2    30  LEU30      -0.2864
     14  CB       -27.3340   -5.2410  -14.1660 C.3    30  LEU30       0.0297
     15  CG       -27.1070   -3.8750  -13.4600 C.3    30  LEU30       0.0022
     16  CD1      -27.8020   -2.7360  -14.2100 C.3    30  LEU30       0.0001
     17  CD2      -27.5000   -3.9210  -11.9830 C.3    30  LEU30       0.0001
     18  N        -25.9460    9.9730   -8.8760 N.3    63  CYS63      -0.1235
     19  CA       -25.7080    9.5430  -10.2570 C.3    63  CYS63       0.1677
     20  C        -24.2340    9.3350  -10.5610 C.2    63  CYS63       0.2270
     21  O        -23.8940    8.3410  -11.2010 O.2    63  CYS63      -0.2867
     22  CB       -26.3940   10.4910  -11.2290 C.3    63  CYS63       0.0956
     23  SG       -28.2030   10.4370  -11.1070 S.3    63  CYS63      -0.0801
     24  N        -23.3790    5.9690   -9.0290 N.3    66  HIS66      -0.1226
     25  CA       -23.8840    4.8570   -9.8670 C.3    66  HIS66       0.1752
     26  C        -23.0600    4.6880  -11.1370 C.2    66  HIS66       0.2595
     27  O        -22.7310    3.5450  -11.5210 O.2    66  HIS66      -0.2718
     28  CB       -25.3750    5.0000  -10.1660 C.3    66  HIS66       0.0759
     29  CG       -26.2220    4.9110   -8.9450 C.ar   66  HIS66       0.0818
     30  ND1      -26.1530    3.8110   -8.0890 N.ar   66  HIS66      -0.2268
     31  CD2      -27.1650    5.7640   -8.4890 C.ar   66  HIS66       0.1154
     32  CE1      -27.0290    4.0500   -7.1250 C.ar   66  HIS66       0.1986
     33  NE2      -27.6420    5.2320   -7.3060 N.ar   66  HIS66      -0.2212
     34  N        -22.6830    5.8160  -11.7770 N.am   67  LEU67      -0.1980
     35  CA       -21.8430    5.7260  -12.9780 C.3    67  LEU67       0.1596
     36  C        -20.4790    5.1300  -12.6460 C.2    67  LEU67       0.2287
     37  O        -19.9710    4.2840  -13.4060 O.2    67  LEU67      -0.2864
     38  CB       -21.6670    7.0760  -13.6780 C.3    67  LEU67       0.0297
     39  CG       -22.8810    7.6440  -14.3930 C.3    67  LEU67       0.0022
     40  CD1      -22.5240    8.9740  -15.0190 C.3    67  LEU67       0.0001
     41  CD2      -23.3930    6.6920  -15.4940 C.3    67  LEU67       0.0001
     42  N        -26.0310    0.2190  -20.9730 N.3   108  MET108     -0.1245
     43  CA       -27.2920    0.7940  -20.4770 C.3   108  MET108      0.1570
     44  C        -28.5290    0.2550  -21.2010 C.2   108  MET108      0.2261
     45  O        -29.5830    0.1520  -20.5690 O.2   108  MET108     -0.2867
     46  CB       -27.2830    2.3340  -20.5460 C.3   108  MET108      0.0387
     47  CG       -28.6270    2.9320  -20.1280 C.3   108  MET108      0.0595
     48  SD       -28.6470    4.7300  -20.0300 S.3   108  MET108     -0.1393
     49  CE       -30.4370    5.0250  -20.1170 C.3   108  MET108      0.0692
     50  N        -30.6160   -2.2530  -19.5000 N.3   111  ALA111     -0.1245
     51  CA       -31.3470   -1.7880  -18.3090 C.3   111  ALA111      0.1562
     52  C        -32.4790   -0.8710  -18.6700 C.2   111  ALA111      0.2260
     53  O        -33.1740   -0.3570  -17.7960 O.2   111  ALA111     -0.2867
     54  CB       -30.3700   -1.0860  -17.3650 C.3   111  ALA111      0.0290
     55  N        -35.9420    3.1000  -17.2400 N.3   119  VAL119     -0.1231
     56  CA       -34.6120    2.5450  -16.9930 C.3   119  VAL119      0.1692
     57  C        -34.5340    2.0470  -15.5570 C.2   119  VAL119      0.2592
     58  O        -35.1070    2.6760  -14.6620 O.2   119  VAL119     -0.2718
     59  CB       -33.4930    3.6000  -17.2810 C.3   119  VAL119      0.0266
     60  CG1      -33.5170    4.7530  -16.2810 C.3   119  VAL119      0.0020
     61  CG2      -32.1070    2.9430  -17.3480 C.3   119  VAL119      0.0020
     62  N        -33.7700    0.9840  -15.3350 N.am  120  PHE120     -0.1962
     63  CA       -33.5650    0.4160  -13.9970 C.3   120  PHE120      0.1771
     64  C        -32.6180    1.3430  -13.2530 C.2   120  PHE120      0.2620
     65  O        -31.5120    1.6190  -13.7220 O.2   120  PHE120     -0.2715
     66  CB       -32.9610   -0.9830  -14.0940 C.3   120  PHE120      0.0574
     67  CG       -32.8130   -1.6480  -12.7520 C.ar  120  PHE120     -0.0200
     68  CD1      -33.9210   -2.1730  -12.0930 C.ar  120  PHE120     -0.0042
     69  CD2      -31.5640   -1.7650  -12.1520 C.ar  120  PHE120     -0.0042
     70  CE1      -33.7750   -2.8300  -10.8600 C.ar  120  PHE120     -0.0003
     71  CE2      -31.4270   -2.3900  -10.9050 C.ar  120  PHE120     -0.0003
     72  CZ       -32.5330   -2.9240  -10.2770 C.ar  120  PHE120     -0.0000
     73  N        -33.0440    1.8320  -12.0940 N.am  121  PHE121     -0.1960
     74  CA       -32.2330    2.7830  -11.3350 C.3   121  PHE121      0.1771
     75  C        -32.6000    2.6100   -9.8750 C.2   121  PHE121      0.2619
     76  O        -33.7750    2.7320   -9.5440 O.2   121  PHE121     -0.2715
     77  CB       -32.5550    4.2270  -11.7890 C.3   121  PHE121      0.0574
     78  CG       -31.8140    5.3020  -11.0150 C.ar  121  PHE121     -0.0200
     79  CD1      -30.5010    5.6240  -11.3240 C.ar  121  PHE121     -0.0042
     80  CD2      -32.4420    6.0050   -9.9840 C.ar  121  PHE121     -0.0042
     81  CE1      -29.8200    6.6330  -10.6110 C.ar  121  PHE121     -0.0003
     82  CE2      -31.7660    7.0080   -9.2840 C.ar  121  PHE121     -0.0003
     83  CZ       -30.4530    7.2990   -9.5830 C.ar  121  PHE121     -0.0000
     84  N        -31.5960    2.3370   -9.0170 N.am  122  GLU122     -0.1977
     85  CA       -31.8130    2.1730   -7.5550 C.3   122  GLU122      0.1602
     86  C        -32.9760    1.2160   -7.2340 C.2   122  GLU122      0.2287
     87  O        -33.8490    1.5430   -6.4240 O.2   122  GLU122     -0.2864
     88  CB       -31.9760    3.5570   -6.8480 C.3   122  GLU122      0.0415
     89  CG       -30.7240    4.4170   -6.9230 C.3   122  GLU122      0.1163
     90  CD       -30.7250    5.7090   -6.1340 C.2   122  GLU122      0.3649
     91  OE1      -31.7910    6.0720   -5.5810 O.co2 122  GLU122     -0.2457
     92  OE2      -29.6310    6.2970   -5.9730 O.co2 122  GLU122     -0.2457
     93  N        -34.9990   11.9780  -13.3580 N.3   131  PHE131     -0.1241
     94  CA       -33.7200   12.6780  -13.3410 C.3   131  PHE131      0.1605
     95  C        -33.8330   14.2010  -13.4460 C.2   131  PHE131      0.2264
     96  O        -32.8280   14.8820  -13.5980 O.2   131  PHE131     -0.2867
     97  CB       -32.8270   12.1150  -14.4580 C.3   131  PHE131      0.0534
     98  CG       -32.6030   10.6170  -14.3050 C.ar  131  PHE131     -0.0203
     99  CD1      -31.6680   10.1240  -13.3910 C.ar  131  PHE131     -0.0042
    100  CD2      -33.3890    9.7050  -15.0060 C.ar  131  PHE131     -0.0042
    101  CE1      -31.4860    8.7430  -13.2200 C.ar  131  PHE131     -0.0003
    102  CE2      -33.2400    8.3190  -14.7930 C.ar  131  PHE131     -0.0003
    103  CZ       -32.2730    7.8570  -13.9170 C.ar  131  PHE131     -0.0000
    104  N        -31.3600   16.9330  -11.9290 N.3   134  LEU134     -0.1245
    105  CA       -29.9920   17.1080  -12.4240 C.3   134  LEU134      0.1561
    106  C        -29.8460   18.3980  -13.2160 C.2   134  LEU134      0.2260
    107  O        -28.7500   18.9520  -13.2820 O.2   134  LEU134     -0.2867
    108  CB       -29.5740   15.9200  -13.3300 C.3   134  LEU134      0.0270
    109  CG       -29.3970   14.5390  -12.6510 C.3   134  LEU134      0.0019
    110  CD1      -29.0890   13.4790  -13.6900 C.3   134  LEU134      0.0001
    111  CD2      -28.2350   14.5560  -11.6480 C.3   134  LEU134      0.0001
    112  N        -30.0640   13.8610  -20.6980 N.3   140  ILE140     -0.1245
    113  CA       -30.8140   12.6690  -20.2590 C.3   140  ILE140      0.1561
    114  C        -31.7010   12.1870  -21.3880 C.2   140  ILE140      0.2260
    115  O        -31.7370   10.9960  -21.6780 O.2   140  ILE140     -0.2867
    116  CB       -31.6110   12.9470  -18.9730 C.3   140  ILE140      0.0252
    117  CG1      -30.6670   13.3810  -17.8160 C.3   140  ILE140      0.0019
    118  CG2      -32.4770   11.7420  -18.5810 C.3   140  ILE140      0.0019
    119  CD1      -29.5980   12.3050  -17.3210 C.3   140  ILE140      0.0001
    120  N        -29.6270   10.3420  -23.9990 N.3   143  ILE143     -0.1231
    121  CA       -29.1710    9.0210  -23.5380 C.3   143  ILE143      0.1692
    122  C        -30.3410    8.0320  -23.6090 C.2   143  ILE143      0.2592
    123  O        -30.1450    6.8960  -24.0420 O.2   143  ILE143     -0.2718
    124  CB       -28.5180    9.1290  -22.1240 C.3   143  ILE143      0.0266
    125  CG1      -27.1730    9.8840  -22.2110 C.3   143  ILE143      0.0019
    126  CG2      -28.2820    7.7470  -21.5390 C.3   143  ILE143      0.0020
    127  CD1      -26.6100   10.3510  -20.8720 C.3   143  ILE143      0.0001
    128  N        -31.5600    8.4840  -23.2510 N.am  144  PHE144     -0.1976
    129  CA       -32.7680    7.6290  -23.3480 C.3   144  PHE144      0.1639
    130  C        -33.0200    7.2730  -24.8210 C.2   144  PHE144      0.2290
    131  O        -33.2950    6.1080  -25.1250 O.2   144  PHE144     -0.2864
    132  CB       -34.0190    8.2980  -22.7160 C.3   144  PHE144      0.0560
    133  CG       -34.1920    7.9930  -21.2400 C.ar  144  PHE144     -0.0200
    134  CD1      -33.2580    8.4230  -20.3090 C.ar  144  PHE144     -0.0042
    135  CD2      -35.2860    7.2540  -20.7870 C.ar  144  PHE144     -0.0042
    136  CE1      -33.3990    8.1170  -18.9470 C.ar  144  PHE144     -0.0003
    137  CE2      -35.4260    6.9450  -19.4320 C.ar  144  PHE144     -0.0003
    138  CZ       -34.4750    7.3670  -18.5230 C.ar  144  PHE144     -0.0000
@<TRIPOS>BOND
     1   131   130    2
     2   130   129    1
     3   123   122    2
     4   120   121    1
     5   122   121    1
     6   122   128   am
     7   121   124    1
     8   129   128    1
     9   129   132    1
    10   132   133    1
    11   125   124    1
    12   125   127    1
    13   124   126    1
    14   115   114    2
    15   114   113    1
    16   133   135   ar
    17   133   134   ar
    18    44    45    2
    19    44    43    1
    20    42    43    1
    21   135   137   ar
    22   112   113    1
    23    46    43    1
    24    46    47    1
    25   134   136   ar
    26   113   116    1
    27    47    48    1
    28    49    48    1
    29    50    51    1
    30   137   138   ar
    31   116   118    1
    32   116   117    1
    33   136   138   ar
    34    52    51    1
    35    52    53    2
    36    51    54    1
    37   117   119    1
    38    61    59    1
    39    59    56    1
    40    59    60    1
    41    55    56    1
    42    56    57    1
    43    13    12    2
    44    57    62   am
    45    57    58    2
    46    41    39    1
    47    62    63    1
    48    40    39    1
    49   100   102   ar
    50   100    98   ar
    51   102   103   ar
    52    12    11    1
    53    97    98    1
    54    97    94    1
    55    39    38    1
    56     1     2    1
    57    98    99   ar
    58    16    15    1
    59    14    11    1
    60    14    15    1
    61    66    63    1
    62    66    67    1
    63    63    64    1
    64   103   101   ar
    65    10    11    1
    66    10     3   am
    67    65    64    2
    68   110   109    1
    69    38    35    1
    70    96    95    2
    71    15    17    1
    72    95    94    1
    73    37    36    2
    74    99   101   ar
    75    93    94    1
    76   108   109    1
    77   108   105    1
    78   107   106    2
    79    64    73   am
    80   106   105    1
    81     5     2    1
    82     5     6    1
    83     2     3    1
    84    35    36    1
    85    35    34    1
    86     3     4    2
    87     9     7   am
    88    67    69   ar
    89    67    68   ar
    90   109   111    1
    91   105   104    1
    92    69    71   ar
    93    73    74    1
    94    68    70   ar
    95    77    74    1
    96    77    78    1
    97     6     7    1
    98    34    26   am
    99     7     8    2
   100    27    26    2
   101    74    75    1
   102    79    78   ar
   103    79    81   ar
   104    22    23    1
   105    22    19    1
   106    21    20    2
   107    26    25    1
   108    78    80   ar
   109    71    72   ar
   110    70    72   ar
   111    81    83   ar
   112    20    19    1
   113    19    18    1
   114    28    25    1
   115    28    29    1
   116    80    82   ar
   117    75    76    2
   118    75    84   am
   119    25    24    1
   120    83    82   ar
   121    84    85    1
   122    29    31   ar
   123    29    30   ar
   124    31    33   ar
   125    30    32   ar
   126    85    86    1
   127    85    88    1
   128    33    32   ar
   129    86    87    2
   130    89    88    1
   131    89    90    1
   132    90    92   ar
   133    90    91   ar
