@<TRIPOS>MOLECULE
tmp/5g43A00.pdb
 159 153 0 0 0
SMALL
GASTEIGER

@<TRIPOS>ATOM
      1  N        -26.1870   14.9300   -8.3390 N.3    60  TRP60      -0.1241
      2  CA       -24.8700   14.7790   -8.9680 C.3    60  TRP60       0.1605
      3  C        -23.9650   13.7750   -8.2380 C.2    60  TRP60       0.2264
      4  O        -23.3810   12.8990   -8.8950 O.2    60  TRP60      -0.2867
      5  CB       -24.1590   16.1330   -9.1350 C.3    60  TRP60       0.0550
      6  CG       -24.5070   16.8090  -10.4250 C.ar   60  TRP60       0.0003
      7  CD1      -25.5890   17.6030  -10.6720 C.ar   60  TRP60       0.0946
      8  CD2      -23.8130   16.6760  -11.6750 C.ar   60  TRP60       0.0152
      9  NE1      -25.6110   17.9770  -11.9970 N.ar   60  TRP60      -0.2442
     10  CE2      -24.5300   17.4240  -12.6340 C.ar   60  TRP60       0.0810
     11  CE3      -22.6380   16.0130  -12.0730 C.ar   60  TRP60       0.0012
     12  CZ2      -24.1030   17.5410  -13.9600 C.ar   60  TRP60       0.0191
     13  CZ3      -22.2200   16.1290  -13.3840 C.ar   60  TRP60       0.0001
     14  CH2      -22.9520   16.8800  -14.3130 C.ar   60  TRP60       0.0015
     15  N        -25.4190   10.0960   -8.6220 N.3    63  CYS63      -0.1221
     16  CA       -25.1280    9.7430  -10.0150 C.3    63  CYS63       0.1808
     17  C        -23.6480    9.4970  -10.3220 C.2    63  CYS63       0.2601
     18  O        -23.3610    8.5540  -11.0490 O.2    63  CYS63      -0.2717
     19  CB       -25.7330   10.7730  -10.9610 C.3    63  CYS63       0.0970
     20  SG       -27.5420   10.7270  -11.0330 S.3    63  CYS63      -0.0800
     21  N        -22.7210   10.3310   -9.7790 N.am   64  ALA64      -0.1979
     22  CA       -21.2660   10.2090   -9.9690 C.3    64  ALA64       0.1597
     23  C        -20.7670    8.9260   -9.3370 C.2    64  ALA64       0.2287
     24  O        -19.9400    8.2300   -9.9330 O.2    64  ALA64      -0.2864
     25  CB       -20.5320   11.4080   -9.3730 C.3    64  ALA64       0.0319
     26  N        -22.7600    6.2260   -8.6950 N.3    66  HIS66      -0.1226
     27  CA       -23.2540    5.1000   -9.4810 C.3    66  HIS66       0.1752
     28  C        -22.4170    4.9050  -10.7520 C.2    66  HIS66       0.2595
     29  O        -22.0010    3.7750  -11.0150 O.2    66  HIS66      -0.2718
     30  CB       -24.7590    5.1750   -9.7390 C.3    66  HIS66       0.0759
     31  CG       -25.5510    5.1430   -8.4750 C.ar   66  HIS66       0.0818
     32  ND1      -25.3270    4.1780   -7.5050 N.ar   66  HIS66      -0.2268
     33  CD2      -26.5300    5.9710   -8.0450 C.ar   66  HIS66       0.1154
     34  CE1      -26.1530    4.4660   -6.5140 C.ar   66  HIS66       0.1986
     35  NE2      -26.8850    5.5460   -6.7870 N.ar   66  HIS66      -0.2212
     36  N        -22.0700    6.0230  -11.4660 N.am   67  LEU67      -0.1980
     37  CA       -21.1970    5.9960  -12.6350 C.3    67  LEU67       0.1596
     38  C        -19.8500    5.3400  -12.2630 C.2    67  LEU67       0.2287
     39  O        -19.4080    4.4490  -12.9930 O.2    67  LEU67      -0.2864
     40  CB       -20.9430    7.4100  -13.1950 C.3    67  LEU67       0.0297
     41  CG       -21.0950    7.6230  -14.7180 C.3    67  LEU67       0.0022
     42  CD1      -20.3940    8.8860  -15.1650 C.3    67  LEU67       0.0001
     43  CD2      -20.5610    6.4420  -15.5500 C.3    67  LEU67       0.0001
     44  N        -16.3720    5.2210  -20.1150 N.3   101  MET101     -0.1245
     45  CA       -17.7020    5.8310  -20.1690 C.3   101  MET101      0.1570
     46  C        -18.5310    5.3010  -21.3570 C.2   101  MET101      0.2261
     47  O        -19.7240    5.0120  -21.1970 O.2   101  MET101     -0.2867
     48  CB       -17.5590    7.3570  -20.2150 C.3   101  MET101      0.0387
     49  CG       -18.8640    8.1270  -20.2200 C.3   101  MET101      0.0595
     50  SD       -19.8300    7.7860  -18.7480 S.3   101  MET101     -0.1393
     51  CE       -21.2000    8.9190  -18.9830 C.3   101  MET101      0.0692
     52  N        -25.4630   -0.0830  -20.5340 N.3   108  MET108     -0.1245
     53  CA       -26.6430    0.5820  -20.0120 C.3   108  MET108      0.1570
     54  C        -27.9470    0.2120  -20.6770 C.2   108  MET108      0.2261
     55  O        -28.9790    0.3220  -20.0270 O.2   108  MET108     -0.2867
     56  CB       -26.4460    2.0790  -20.1750 C.3   108  MET108      0.0387
     57  CG       -26.7000    2.8530  -18.9430 C.3   108  MET108      0.0595
     58  SD       -27.1320    4.4990  -19.5130 S.3   108  MET108     -0.1393
     59  CE       -28.9800    4.3360  -19.6300 C.3   108  MET108      0.0692
     60  N        -35.3070    3.3950  -16.8510 N.3   119  VAL119     -0.1245
     61  CA       -33.9890    2.8570  -16.5850 C.3   119  VAL119      0.1561
     62  C        -33.9850    2.3180  -15.1520 C.2   119  VAL119      0.2260
     63  O        -34.6450    2.8800  -14.2690 O.2   119  VAL119     -0.2867
     64  CB       -32.8600    3.9130  -16.8400 C.3   119  VAL119      0.0252
     65  CG1      -32.9030    5.0600  -15.8380 C.3   119  VAL119      0.0019
     66  CG2      -31.4690    3.2740  -16.8560 C.3   119  VAL119      0.0019
     67  N        -32.5170    2.3460  -11.9230 N.3   121  PHE121     -0.1241
     68  CA       -31.7060    3.2280  -11.1140 C.3   121  PHE121      0.1605
     69  C        -32.0850    2.9550   -9.6640 C.2   121  PHE121      0.2264
     70  O        -33.2720    2.8170   -9.3730 O.2   121  PHE121     -0.2867
     71  CB       -31.9850    4.6870  -11.4990 C.3   121  PHE121      0.0534
     72  CG       -31.2400    5.7270  -10.6890 C.ar  121  PHE121     -0.0203
     73  CD1      -29.8750    5.9360  -10.8770 C.ar  121  PHE121     -0.0042
     74  CD2      -31.9060    6.5040   -9.7420 C.ar  121  PHE121     -0.0042
     75  CE1      -29.1920    6.9100  -10.1430 C.ar  121  PHE121     -0.0003
     76  CE2      -31.2250    7.4910   -9.0230 C.ar  121  PHE121     -0.0003
     77  CZ       -29.8720    7.6830   -9.2250 C.ar  121  PHE121     -0.0000
     78  N        -34.3280   12.2150  -13.0060 N.3   131  PHE131     -0.1241
     79  CA       -33.0530   12.9390  -13.0650 C.3   131  PHE131      0.1605
     80  C        -33.1780   14.4300  -13.3260 C.2   131  PHE131      0.2264
     81  O        -32.1550   15.0690  -13.5500 O.2   131  PHE131     -0.2867
     82  CB       -32.1510   12.2970  -14.1220 C.3   131  PHE131      0.0534
     83  CG       -31.9090   10.8260  -13.9080 C.ar  131  PHE131     -0.0203
     84  CD1      -30.8960   10.3880  -13.0550 C.ar  131  PHE131     -0.0042
     85  CD2      -32.6600    9.8720  -14.5950 C.ar  131  PHE131     -0.0042
     86  CE1      -30.6680    9.0230  -12.8590 C.ar  131  PHE131     -0.0003
     87  CE2      -32.4360    8.5060  -14.3950 C.ar  131  PHE131     -0.0003
     88  CZ       -31.4470    8.0900  -13.5140 C.ar  131  PHE131     -0.0000
     89  N        -30.7350   17.1940  -11.7730 N.3   134  LEU134     -0.1245
     90  CA       -29.3430   17.3050  -12.2710 C.3   134  LEU134      0.1561
     91  C        -29.0910   18.6110  -13.0310 C.2   134  LEU134      0.2260
     92  O        -27.9950   19.1550  -12.9590 O.2   134  LEU134     -0.2867
     93  CB       -28.9660   16.1110  -13.1790 C.3   134  LEU134      0.0270
     94  CG       -28.7290   14.7520  -12.5110 C.3   134  LEU134      0.0019
     95  CD1      -28.6070   13.6560  -13.5450 C.3   134  LEU134      0.0001
     96  CD2      -27.4780   14.7550  -11.6660 C.3   134  LEU134      0.0001
     97  N        -29.4480   19.0090  -16.4850 N.3   136  CYS136     -0.1235
     98  CA       -28.8430   18.6470  -17.7570 C.3   136  CYS136      0.1677
     99  C        -29.8060   17.7490  -18.5470 C.2   136  CYS136      0.2270
    100  O        -29.5220   16.5750  -18.8060 O.2   136  CYS136     -0.2867
    101  CB       -27.4570   18.0280  -17.5700 C.3   136  CYS136      0.0956
    102  SG       -27.3910   16.6450  -16.4040 S.3   136  CYS136     -0.0801
    103  N        -28.6330   16.1510  -22.0060 N.3   139  LEU139     -0.1231
    104  CA       -27.7760   14.9850  -21.7800 C.3   139  LEU139      0.1693
    105  C        -28.5710   13.7210  -21.4220 C.2   139  LEU139      0.2591
    106  O        -28.3040   12.6630  -21.9890 O.2   139  LEU139     -0.2718
    107  CB       -26.6740   15.2930  -20.7340 C.3   139  LEU139      0.0284
    108  CG       -25.6970   14.1560  -20.3650 C.3   139  LEU139      0.0019
    109  CD1      -24.9410   13.6140  -21.6020 C.3   139  LEU139      0.0001
    110  CD2      -24.7490   14.5790  -19.2570 C.3   139  LEU139      0.0001
    111  N        -29.5630   13.8440  -20.5170 N.am  140  ILE140     -0.1980
    112  CA       -30.4090   12.7330  -20.0610 C.3   140  ILE140      0.1595
    113  C        -31.2920   12.2180  -21.1910 C.2   140  ILE140      0.2287
    114  O        -31.3920   11.0050  -21.3660 O.2   140  ILE140     -0.2864
    115  CB       -31.1830   13.0310  -18.7250 C.3   140  ILE140      0.0276
    116  CG1      -30.2490   13.4750  -17.5620 C.3   140  ILE140      0.0022
    117  CG2      -32.1210   11.8670  -18.2950 C.3   140  ILE140      0.0022
    118  CD1      -29.2170   12.4550  -17.1010 C.3   140  ILE140      0.0001
    119  N        -28.9460   10.2780  -23.5620 N.3   143  ILE143     -0.1231
    120  CA       -28.5200    8.9830  -23.0070 C.3   143  ILE143      0.1692
    121  C        -29.6710    7.9910  -23.0740 C.2   143  ILE143      0.2592
    122  O        -29.4270    6.8040  -23.2240 O.2   143  ILE143     -0.2718
    123  CB       -27.9010    9.1300  -21.5780 C.3   143  ILE143      0.0266
    124  CG1      -26.4820    9.7070  -21.6380 C.3   143  ILE143      0.0019
    125  CG2      -27.9080    7.8270  -20.7850 C.3   143  ILE143      0.0020
    126  CD1      -26.0210   10.2910  -20.3020 C.3   143  ILE143      0.0001
    127  N        -30.9100    8.4620  -22.9520 N.am  144  PHE144     -0.1976
    128  CA       -32.1040    7.6100  -23.0130 C.3   144  PHE144      0.1639
    129  C        -32.3980    7.2190  -24.4620 C.2   144  PHE144      0.2290
    130  O        -32.7130    6.0600  -24.7240 O.2   144  PHE144     -0.2864
    131  CB       -33.3180    8.3220  -22.3720 C.3   144  PHE144      0.0560
    132  CG       -33.5600    7.9970  -20.9140 C.ar  144  PHE144     -0.0200
    133  CD1      -32.6970    8.4610  -19.9250 C.ar  144  PHE144     -0.0042
    134  CD2      -34.6730    7.2510  -20.5240 C.ar  144  PHE144     -0.0042
    135  CE1      -32.9410    8.1870  -18.5730 C.ar  144  PHE144     -0.0003
    136  CE2      -34.9110    6.9720  -19.1690 C.ar  144  PHE144     -0.0003
    137  CZ       -34.0360    7.4320  -18.2060 C.ar  144  PHE144     -0.0000
    138  N        -21.1950   14.9380  -21.3590 N.3   222  HIS222     -0.1241
    139  CA       -21.0040   14.6120  -19.9450 C.3   222  HIS222      0.1621
    140  C        -19.9300   15.4950  -19.3140 C.2   222  HIS222      0.2264
    141  O        -20.1840   16.0620  -18.2490 O.2   222  HIS222     -0.2867
    142  CB       -20.7020   13.1010  -19.7340 C.3   222  HIS222      0.0745
    143  CG       -20.2370   12.7570  -18.3480 C.ar  222  HIS222      0.0817
    144  ND1      -18.9800   12.2270  -18.1250 N.ar  222  HIS222     -0.2268
    145  CD2      -20.8490   12.9390  -17.1510 C.ar  222  HIS222      0.1154
    146  CE1      -18.8720   12.0770  -16.8110 C.ar  222  HIS222      0.1986
    147  NE2      -19.9580   12.5100  -16.1790 N.ar  222  HIS222     -0.2212
    148  N        -13.6910    8.9370  -10.6630 N.3   245  TYR245     -0.1241
    149  CA       -14.5470    9.8170  -11.4530 C.3   245  TYR245      0.1605
    150  C        -13.7820   11.0880  -11.8010 C.2   245  TYR245      0.2264
    151  O        -13.8090   11.5040  -12.9610 O.2   245  TYR245     -0.2867
    152  CB       -15.8310   10.1700  -10.6810 C.3   245  TYR245      0.0534
    153  CG       -16.8020   11.0320  -11.4640 C.ar  245  TYR245     -0.0201
    154  CD1      -16.7210   12.4240  -11.4240 C.ar  245  TYR245     -0.0009
    155  CD2      -17.8070   10.4610  -12.2330 C.ar  245  TYR245     -0.0009
    156  CE1      -17.6030   13.2220  -12.1530 C.ar  245  TYR245      0.0417
    157  CE2      -18.6920   11.2510  -12.9680 C.ar  245  TYR245      0.0417
    158  CZ       -18.5910   12.6290  -12.9170 C.ar  245  TYR245      0.1957
    159  OH       -19.4820   13.4030  -13.6030 O.3   245  TYR245     -0.2866
@<TRIPOS>BOND
     1   130   129    2
     2   129   128    1
     3   119   120    1
     4   122   121    2
     5   121   120    1
     6   121   127   am
     7   128   127    1
     8   128   131    1
     9   120   123    1
    10   131   132    1
    11   103   104    1
    12   106   105    2
    13   104   105    1
    14   104   107    1
    15   124   123    1
    16   124   126    1
    17   109   108    1
    18   123   125    1
    19   105   111   am
    20   114   113    2
    21   138   139    1
    22    46    47    2
    23    46    45    1
    24   113   112    1
    25   132   134   ar
    26   132   133   ar
    27   107   108    1
    28    54    55    2
    29    54    53    1
    30    52    53    1
    31   134   136   ar
    32   111   112    1
    33   108   110    1
    34    49    48    1
    35    49    50    1
    36    48    45    1
    37    56    53    1
    38    56    57    1
    39    45    44    1
    40   112   115    1
    41   139   142    1
    42   139   140    1
    43   133   135   ar
    44   142   143    1
    45    59    58    1
    46    58    57    1
    47   140   141    2
    48   136   137   ar
    49    51    50    1
    50   100    99    2
    51   115   117    1
    52   115   116    1
    53   135   137   ar
    54    99    98    1
    55   143   144   ar
    56   143   145   ar
    57   144   146   ar
    58    98   101    1
    59    98    97    1
    60   101   102    1
    61   116   118    1
    62   145   147   ar
    63    66    64    1
    64    60    61    1
    65    64    61    1
    66    64    65    1
    67   146   147   ar
    68    61    62    1
    69    43    41    1
    70    42    41    1
    71    62    63    2
    72    41    40    1
    73    85    87   ar
    74    85    83   ar
    75    87    88   ar
    76    14    12   ar
    77    14    13   ar
    78    82    83    1
    79    82    79    1
    80    12    10   ar
    81    83    84   ar
    82   159   158    1
    83    81    80    2
    84    95    94    1
    85    88    86   ar
    86    13    11   ar
    87    80    79    1
    88    40    37    1
    89    93    94    1
    90    93    90    1
    91    79    78    1
    92    84    86   ar
    93    91    92    2
    94    91    90    1
    95    39    38    2
    96   157   158   ar
    97   157   155   ar
    98   151   150    2
    99   158   156   ar
   100    37    38    1
   101    37    36    1
   102    10     9   ar
   103    10     8   ar
   104    94    96    1
   105    90    89    1
   106   155   153   ar
   107   156   154   ar
   108    11     8   ar
   109     9     7   ar
   110    67    68    1
   111   150   149    1
   112     8     6   ar
   113    71    68    1
   114    71    72    1
   115    36    28   am
   116   153   154   ar
   117   153   152    1
   118   149   152    1
   119   149   148    1
   120    68    69    1
   121    18    17    2
   122    20    19    1
   123    29    28    2
   124    19    16    1
   125    73    72   ar
   126    73    75   ar
   127    28    27    1
   128    72    74   ar
   129     7     6   ar
   130     6     5    1
   131    17    16    1
   132    17    21   am
   133    75    77   ar
   134    16    15    1
   135    22    21    1
   136    22    25    1
   137    22    23    1
   138    24    23    2
   139    74    76   ar
   140    30    27    1
   141    30    31    1
   142    69    70    2
   143    27    26    1
   144    77    76   ar
   145     5     2    1
   146     2     1    1
   147     2     3    1
   148     4     3    2
   149    31    33   ar
   150    31    32   ar
   151    33    35   ar
   152    32    34   ar
   153    35    34   ar
