@<TRIPOS>MOLECULE
tmp/5g44A00.pdb
 121 117 0 0 0
SMALL
GASTEIGER

@<TRIPOS>ATOM
      1  N        -24.8310   10.2090   -8.1470 N.3    56  CYS56      -0.1235
      2  CA       -24.5510    9.7490   -9.5010 C.3    56  CYS56       0.1677
      3  C        -23.0500    9.5180   -9.7650 C.2    56  CYS56       0.2270
      4  O        -22.7030    8.5050  -10.3850 O.2    56  CYS56      -0.2867
      5  CB       -25.2150   10.6530  -10.5320 C.3    56  CYS56       0.0956
      6  SG       -27.0420   10.5520  -10.4970 S.3    56  CYS56      -0.0801
      7  N        -22.1460    6.1490   -8.1290 N.3    59  HIS59      -0.1226
      8  CA       -22.6180    4.9990   -8.9380 C.3    59  HIS59       0.1752
      9  C        -21.7860    4.8330  -10.2200 C.2    59  HIS59       0.2595
     10  O        -21.4270    3.7110  -10.5880 O.2    59  HIS59      -0.2718
     11  CB       -24.1180    5.0800   -9.2800 C.3    59  HIS59       0.0759
     12  CG       -25.0140    5.1800   -8.0770 C.ar   59  HIS59       0.0818
     13  ND1      -24.9570    4.2500   -7.0480 N.ar   59  HIS59      -0.2268
     14  CD2      -26.0190    6.0510   -7.8250 C.ar   59  HIS59       0.1154
     15  CE1      -25.8610    4.6480   -6.1610 C.ar   59  HIS59       0.1986
     16  NE2      -26.5160    5.7350   -6.5860 N.ar   59  HIS59      -0.2212
     17  N        -21.4550    5.9400  -10.8730 N.am   60  LEU60      -0.1980
     18  CA       -20.6370    5.8670  -12.0910 C.3    60  LEU60       0.1596
     19  C        -19.2350    5.3390  -11.7610 C.2    60  LEU60       0.2287
     20  O        -18.6850    4.5090  -12.5170 O.2    60  LEU60      -0.2864
     21  CB       -20.5560    7.2470  -12.7630 C.3    60  LEU60       0.0297
     22  CG       -19.6970    7.2910  -14.0270 C.3    60  LEU60       0.0022
     23  CD1      -20.2040    6.2780  -15.0830 C.3    60  LEU60       0.0001
     24  CD2      -19.6110    8.7310  -14.6080 C.3    60  LEU60       0.0001
     25  N        -24.9840    0.0500  -20.0200 N.3   101  MET101     -0.1245
     26  CA       -26.2320    0.4600  -19.3950 C.3   101  MET101      0.1570
     27  C        -27.5220    0.0290  -20.0810 C.2   101  MET101      0.2261
     28  O        -28.5470    0.0090  -19.4200 O.2   101  MET101     -0.2867
     29  CB       -26.2050    1.9010  -18.9370 C.3   101  MET101      0.0387
     30  CG       -26.3450    2.8560  -19.9870 C.3   101  MET101      0.0595
     31  SD       -26.3140    4.4920  -19.2110 S.3   101  MET101     -0.1393
     32  CE       -27.9730    4.6050  -18.6210 C.3   101  MET101      0.0692
     33  N        -29.5230   -2.5290  -18.1630 N.3   104  ALA104     -0.1245
     34  CA       -30.3180   -2.0450  -17.0220 C.3   104  ALA104      0.1562
     35  C        -31.4230   -1.0920  -17.4630 C.2   104  ALA104      0.2260
     36  O        -31.9720   -0.3880  -16.6350 O.2   104  ALA104     -0.2867
     37  CB       -29.4180   -1.3480  -16.0190 C.3   104  ALA104      0.0290
     38  N        -34.7300    3.0390  -16.0780 N.3   112  VAL112     -0.1231
     39  CA       -33.4010    2.4950  -15.7570 C.3   112  VAL112      0.1692
     40  C        -33.4270    2.0090  -14.3240 C.2   112  VAL112      0.2592
     41  O        -34.1350    2.5960  -13.4890 O.2   112  VAL112     -0.2718
     42  CB       -32.2310    3.5330  -15.9530 C.3   112  VAL112      0.0266
     43  CG1      -32.0630    3.9170  -17.4200 C.3   112  VAL112      0.0020
     44  CG2      -32.4170    4.7770  -15.0820 C.3   112  VAL112      0.0020
     45  N        -32.6460    0.9540  -14.0310 N.am  113  PHE113     -0.1962
     46  CA       -32.5360    0.4440  -12.6870 C.3   113  PHE113      0.1771
     47  C        -31.5590    1.3580  -11.9690 C.2   113  PHE113      0.2620
     48  O        -30.3770    1.4030  -12.3040 O.2   113  PHE113     -0.2715
     49  CB       -32.0310   -1.0020  -12.6970 C.3   113  PHE113      0.0574
     50  CG       -32.1100   -1.6830  -11.3580 C.ar  113  PHE113     -0.0200
     51  CD1      -33.3420   -2.0190  -10.8010 C.ar  113  PHE113     -0.0042
     52  CD2      -30.9520   -2.0160  -10.6610 C.ar  113  PHE113     -0.0042
     53  CE1      -33.4170   -2.6700   -9.5640 C.ar  113  PHE113     -0.0003
     54  CE2      -31.0230   -2.7090   -9.4400 C.ar  113  PHE113     -0.0003
     55  CZ       -32.2610   -3.0200   -8.8980 C.ar  113  PHE113     -0.0000
     56  N        -32.0540    2.0790  -10.9810 N.am  114  PHE114     -0.1960
     57  CA       -31.2530    3.0350  -10.2350 C.3   114  PHE114      0.1771
     58  C        -31.5850    2.9100   -8.7430 C.2   114  PHE114      0.2619
     59  O        -32.7530    2.9840   -8.3740 O.2   114  PHE114     -0.2715
     60  CB       -31.6180    4.4490  -10.7390 C.3   114  PHE114      0.0574
     61  CG       -31.0030    5.6100   -9.9840 C.ar  114  PHE114     -0.0200
     62  CD1      -29.6780    5.9710  -10.1910 C.ar  114  PHE114     -0.0042
     63  CD2      -31.7380    6.3090   -9.0310 C.ar  114  PHE114     -0.0042
     64  CE1      -29.1120    7.0400   -9.4860 C.ar  114  PHE114     -0.0003
     65  CE2      -31.1670    7.3780   -8.3250 C.ar  114  PHE114     -0.0003
     66  CZ       -29.8620    7.7310   -8.5560 C.ar  114  PHE114     -0.0000
     67  N        -30.5750    2.7090   -7.9090 N.am  115  GLU115     -0.1977
     68  CA       -30.7500    2.6090   -6.4570 C.3   115  GLU115      0.1602
     69  C        -31.9020    1.6400   -6.0400 C.2   115  GLU115      0.2287
     70  O        -32.7640    2.0160   -5.2290 O.2   115  GLU115     -0.2864
     71  CB       -30.9480    4.0230   -5.8470 C.3   115  GLU115      0.0415
     72  CG       -29.7460    4.9260   -6.0920 C.3   115  GLU115      0.1163
     73  CD       -29.5940    6.1670   -5.2390 C.2   115  GLU115      0.3649
     74  OE1      -30.6110    6.6430   -4.6830 O.co2 115  GLU115     -0.2457
     75  OE2      -28.4540    6.6740   -5.1320 O.co2 115  GLU115     -0.2457
     76  N        -33.9820   12.1650  -12.6140 N.3   124  PHE124     -0.1241
     77  CA       -32.7200   12.8980  -12.6710 C.3   124  PHE124      0.1605
     78  C        -32.7980   14.3870  -12.8480 C.2   124  PHE124      0.2264
     79  O        -31.7550   15.0350  -13.0190 O.2   124  PHE124     -0.2867
     80  CB       -31.8260   12.2640  -13.7580 C.3   124  PHE124      0.0534
     81  CG       -31.5540   10.8030  -13.5050 C.ar  124  PHE124     -0.0203
     82  CD1      -30.6370   10.4050  -12.5240 C.ar  124  PHE124     -0.0042
     83  CD2      -32.2390    9.8190  -14.2140 C.ar  124  PHE124     -0.0042
     84  CE1      -30.4130    9.0480  -12.2650 C.ar  124  PHE124     -0.0003
     85  CE2      -31.9960    8.4580  -13.9720 C.ar  124  PHE124     -0.0003
     86  CZ       -31.0920    8.0830  -12.9930 C.ar  124  PHE124     -0.0000
     87  N        -30.3120   17.1250  -11.2630 N.3   127  LEU127     -0.1245
     88  CA       -28.9360   17.2740  -11.7600 C.3   127  LEU127      0.1561
     89  C        -28.7490   18.5560  -12.5560 C.2   127  LEU127      0.2260
     90  O        -27.6630   19.1360  -12.5420 O.2   127  LEU127     -0.2867
     91  CB       -28.5340   16.0820  -12.6700 C.3   127  LEU127      0.0270
     92  CG       -28.3560   14.7330  -11.9980 C.3   127  LEU127      0.0019
     93  CD1      -28.0780   13.6450  -13.0470 C.3   127  LEU127      0.0001
     94  CD2      -27.2110   14.7650  -11.0020 C.3   127  LEU127      0.0001
     95  N        -29.0290   13.8510  -19.9830 N.3   133  ILE133     -0.1245
     96  CA       -29.8460   12.7150  -19.5130 C.3   133  ILE133      0.1561
     97  C        -30.7240   12.1480  -20.6480 C.2   133  ILE133      0.2260
     98  O        -30.7190   10.9280  -20.8740 O.2   133  ILE133     -0.2867
     99  CB       -30.6670   13.0100  -18.2140 C.3   133  ILE133      0.0252
    100  CG1      -29.7730   13.5350  -17.0510 C.3   133  ILE133      0.0019
    101  CG2      -31.4780   11.7640  -17.7610 C.3   133  ILE133      0.0019
    102  CD1      -28.6750   12.5690  -16.6030 C.3   133  ILE133      0.0001
    103  N        -28.6670   10.2090  -23.1320 N.3   136  ILE136     -0.1231
    104  CA       -28.2510    8.9010  -22.5990 C.3   136  ILE136      0.1692
    105  C        -29.4270    7.9150  -22.7080 C.2   136  ILE136      0.2592
    106  O        -29.2240    6.7730  -23.0890 O.2   136  ILE136     -0.2718
    107  CB       -27.6980    9.0050  -21.1500 C.3   136  ILE136      0.0266
    108  CG1      -26.3700    9.8080  -21.1270 C.3   136  ILE136      0.0019
    109  CG2      -27.4810    7.6000  -20.5270 C.3   136  ILE136      0.0020
    110  CD1      -25.9340   10.2970  -19.6880 C.3   136  ILE136      0.0001
    111  N        -30.6400    8.3640  -22.3390 N.am  137  PHE137     -0.1976
    112  CA       -31.8530    7.5510  -22.4220 C.3   137  PHE137      0.1639
    113  C        -32.1120    7.1560  -23.9110 C.2   137  PHE137      0.2290
    114  O        -32.3600    5.9810  -24.1850 O.2   137  PHE137     -0.2864
    115  CB       -33.0410    8.2950  -21.7820 C.3   137  PHE137      0.0560
    116  CG       -33.2150    7.9410  -20.3110 C.ar  137  PHE137     -0.0200
    117  CD1      -32.3520    8.4570  -19.3440 C.ar  137  PHE137     -0.0042
    118  CD2      -34.2110    7.0590  -19.9050 C.ar  137  PHE137     -0.0042
    119  CE1      -32.4890    8.1050  -17.9950 C.ar  137  PHE137     -0.0003
    120  CE2      -34.3560    6.7110  -18.5480 C.ar  137  PHE137     -0.0003
    121  CZ       -33.4770    7.2130  -17.6090 C.ar  137  PHE137     -0.0000
@<TRIPOS>BOND
     1   114   113    2
     2   113   112    1
     3   103   104    1
     4   106   105    2
     5   105   104    1
     6   105   111   am
     7   104   107    1
     8   112   111    1
     9   112   115    1
    10   115   116    1
    11   107   108    1
    12   107   109    1
    13   108   110    1
    14    98    97    2
    15    97    96    1
    16   116   118   ar
    17   116   117   ar
    18    27    28    2
    19    27    26    1
    20    25    26    1
    21    30    31    1
    22    30    29    1
    23    95    96    1
    24   118   120   ar
    25    96    99    1
    26    26    29    1
    27   117   119   ar
    28    31    32    1
    29   120   121   ar
    30    99   101    1
    31    99   100    1
    32    33    34    1
    33   119   121   ar
    34    35    34    1
    35    35    36    2
    36    43    42    1
    37   100   102    1
    38    34    37    1
    39    38    39    1
    40    42    39    1
    41    42    44    1
    42    39    40    1
    43    23    22    1
    44    24    22    1
    45    40    45   am
    46    40    41    2
    47    83    85   ar
    48    83    81   ar
    49    45    46    1
    50    22    21    1
    51    85    86   ar
    52    80    81    1
    53    80    77    1
    54    81    82   ar
    55    93    92    1
    56    79    78    2
    57    86    84   ar
    58    78    77    1
    59    21    18    1
    60    49    46    1
    61    49    50    1
    62    46    47    1
    63    77    76    1
    64    91    92    1
    65    91    88    1
    66    89    90    2
    67    89    88    1
    68    82    84   ar
    69    20    19    2
    70    48    47    2
    71    18    19    1
    72    18    17    1
    73    92    94    1
    74    47    56   am
    75    88    87    1
    76    50    51   ar
    77    50    52   ar
    78    56    57    1
    79    17     9   am
    80    51    53   ar
    81    60    57    1
    82    60    61    1
    83    52    54   ar
    84    10     9    2
    85     5     6    1
    86     5     2    1
    87     4     3    2
    88    57    58    1
    89     9     8    1
    90    62    61   ar
    91    62    64   ar
    92    61    63   ar
    93     3     2    1
    94    53    55   ar
    95     2     1    1
    96    64    66   ar
    97    54    55   ar
    98    11     8    1
    99    11    12    1
   100    63    65   ar
   101     8     7    1
   102    58    59    2
   103    58    67   am
   104    66    65   ar
   105    12    14   ar
   106    12    13   ar
   107    67    68    1
   108    14    16   ar
   109    13    15   ar
   110    16    15   ar
   111    68    69    1
   112    68    71    1
   113    72    71    1
   114    72    73    1
   115    69    70    2
   116    73    75   ar
   117    73    74   ar
