@<TRIPOS>MOLECULE
tmp/5g44A02.pdb
 131 126 0 0 0
SMALL
GASTEIGER

@<TRIPOS>ATOM
      1  N        -19.5970   -7.8250  -14.1450 N.3    21  CYS21      -0.1221
      2  CA       -20.8190   -7.0430  -14.0580 C.3    21  CYS21       0.1808
      3  C        -21.2900   -7.1200  -12.6020 C.2    21  CYS21       0.2601
      4  O        -21.2840   -8.2110  -12.0250 O.2    21  CYS21      -0.2717
      5  CB       -21.8730   -7.5530  -15.0280 C.3    21  CYS21       0.0970
      6  SG       -21.5920   -7.0080  -16.7360 S.3    21  CYS21      -0.0800
      7  N        -21.5960   -5.9730  -11.9920 N.am   22  GLN22      -0.1965
      8  CA       -22.0610   -5.9730  -10.5960 C.3    22  GLN22       0.1733
      9  C        -23.3020   -6.8680  -10.4300 C.2    22  GLN22       0.2616
     10  O        -23.3360   -7.7010   -9.5300 O.2    22  GLN22      -0.2715
     11  CB       -22.3690   -4.5550  -10.1030 C.3    22  GLN22       0.0408
     12  CG       -22.5390   -4.4870   -8.5770 C.3    22  GLN22       0.0908
     13  CD       -23.1480   -3.1830   -8.1440 C.2    22  GLN22       0.2608
     14  OE1      -22.8420   -2.1030   -8.6860 O.2    22  GLN22      -0.2717
     15  NE2      -24.0530   -3.2620   -7.1780 N.am   22  GLN22      -0.0878
     16  N        -24.2900   -6.6970  -11.3010 N.am   23  LEU23      -0.1977
     17  CA       -25.5390   -7.4490  -11.2560 C.3    23  LEU23       0.1596
     18  C        -25.6650   -8.4360  -12.3940 C.2    23  LEU23       0.2287
     19  O        -25.2040   -8.1720  -13.5100 O.2    23  LEU23      -0.2864
     20  CB       -26.7180   -6.4540  -11.3170 C.3    23  LEU23       0.0297
     21  CG       -26.7910   -5.3530  -10.2330 C.3    23  LEU23       0.0022
     22  CD1      -27.8400   -4.3420  -10.5650 C.3    23  LEU23       0.0001
     23  CD2      -27.1150   -5.9360   -8.8410 C.3    23  LEU23       0.0001
     24  N        -31.6090   -8.1650  -12.9640 N.3    28  LEU28      -0.1245
     25  CA       -32.1870   -6.9430  -13.5370 C.3    28  LEU28       0.1561
     26  C        -33.5600   -7.1950  -14.1380 C.2    28  LEU28       0.2260
     27  O        -34.4710   -6.3900  -13.9290 O.2    28  LEU28      -0.2867
     28  CB       -31.2570   -6.2900  -14.6020 C.3    28  LEU28       0.0270
     29  CG       -30.0230   -5.5590  -14.0200 C.3    28  LEU28       0.0019
     30  CD1      -28.9600   -5.3000  -15.1240 C.3    28  LEU28       0.0001
     31  CD2      -30.4510   -4.2130  -13.4020 C.3    28  LEU28       0.0001
     32  N        -22.1460    6.1490   -8.1290 N.3    59  HIS59      -0.1241
     33  CA       -22.6180    4.9990   -8.9380 C.3    59  HIS59       0.1621
     34  C        -21.7860    4.8330  -10.2200 C.2    59  HIS59       0.2264
     35  O        -21.4270    3.7110  -10.5880 O.2    59  HIS59      -0.2867
     36  CB       -24.1180    5.0800   -9.2800 C.3    59  HIS59       0.0745
     37  CG       -25.0140    5.1800   -8.0770 C.ar   59  HIS59       0.0817
     38  ND1      -24.9570    4.2500   -7.0480 N.ar   59  HIS59      -0.2268
     39  CD2      -26.0190    6.0510   -7.8250 C.ar   59  HIS59       0.1154
     40  CE1      -25.8610    4.6480   -6.1610 C.ar   59  HIS59       0.1986
     41  NE2      -26.5160    5.7350   -6.5860 N.ar   59  HIS59      -0.2212
     42  N        -19.3760    1.6350  -11.3440 N.3    63  ALA63      -0.1245
     43  CA       -19.4850    1.0240  -12.6920 C.3    63  ALA63       0.1562
     44  C        -18.1240    1.0170  -13.3960 C.2    63  ALA63       0.2260
     45  O        -17.7390   -0.0110  -13.9410 O.2    63  ALA63      -0.2867
     46  CB       -20.5050    1.7730  -13.5370 C.3    63  ALA63       0.0290
     47  N        -15.6650   -1.6960  -12.2280 N.3    66  TYR66      -0.1241
     48  CA       -15.9640   -2.9720  -12.8990 C.3    66  TYR66       0.1605
     49  C        -15.4240   -3.0050  -14.3240 C.2    66  TYR66       0.2264
     50  O        -14.9460   -4.0410  -14.7720 O.2    66  TYR66      -0.2867
     51  CB       -17.4630   -3.3070  -12.8760 C.3    66  TYR66       0.0534
     52  CG       -17.8750   -3.8910  -11.5430 C.ar   66  TYR66      -0.0201
     53  CD1      -17.6700   -5.2420  -11.2560 C.ar   66  TYR66      -0.0009
     54  CD2      -18.4600   -3.0940  -10.5640 C.ar   66  TYR66      -0.0009
     55  CE1      -18.0180   -5.7770  -10.0110 C.ar   66  TYR66       0.0417
     56  CE2      -18.7980   -3.6130   -9.3150 C.ar   66  TYR66       0.0417
     57  CZ       -18.5970   -4.9570   -9.0510 C.ar   66  TYR66       0.1957
     58  OH       -18.9640   -5.4540   -7.8240 O.3    66  TYR66      -0.2866
     59  N        -19.3250    2.0240  -20.0520 N.3    97  VAL97      -0.1245
     60  CA       -20.4750    2.1910  -19.1370 C.3    97  VAL97       0.1561
     61  C        -21.7470    2.5400  -19.9450 C.2    97  VAL97       0.2260
     62  O        -22.8320    1.9880  -19.6810 O.2    97  VAL97      -0.2867
     63  CB       -20.1680    3.2760  -18.0720 C.3    97  VAL97       0.0252
     64  CG1      -21.4420    3.6410  -17.2780 C.3    97  VAL97       0.0019
     65  CG2      -19.0750    2.7950  -17.1230 C.3    97  VAL97       0.0019
     66  N        -22.8840   -0.6740  -21.6810 N.3   100  ARG100     -0.1231
     67  CA       -23.3680   -1.6420  -20.6910 C.3   100  ARG100      0.1694
     68  C        -24.7030   -1.2540  -20.1240 C.2   100  ARG100      0.2591
     69  O        -25.4740   -2.1250  -19.7630 O.2   100  ARG100     -0.2718
     70  CB       -22.3970   -1.7630  -19.5140 C.3   100  ARG100      0.0321
     71  CG       -21.1830   -2.6310  -19.7670 C.3   100  ARG100      0.0489
     72  CD       -20.3150   -2.6920  -18.5090 C.3   100  ARG100      0.2205
     73  NE       -19.3580   -3.7840  -18.6540 N.pl3 100  ARG100     -0.0865
     74  CZ       -18.7510   -4.4230  -17.6680 C.cat 100  ARG100      0.5346
     75  NH1      -18.9290   -4.0410  -16.4040 N.pl3 100  ARG100      0.1354
     76  NH2      -17.9490   -5.4410  -17.9320 N.pl3 100  ARG100      0.1354
     77  N        -24.9840    0.0500  -20.0200 N.am  101  MET101     -0.1979
     78  CA       -26.2320    0.4600  -19.3950 C.3   101  MET101      0.1605
     79  C        -27.5220    0.0290  -20.0810 C.2   101  MET101      0.2287
     80  O        -28.5470    0.0090  -19.4200 O.2   101  MET101     -0.2864
     81  CB       -26.2050    1.9010  -18.9370 C.3   101  MET101      0.0413
     82  CG       -26.3450    2.8560  -19.9870 C.3   101  MET101      0.0598
     83  SD       -26.3140    4.4920  -19.2110 S.3   101  MET101     -0.1393
     84  CE       -27.9730    4.6050  -18.6210 C.3   101  MET101      0.0692
     85  N        -28.3010   -2.9450  -20.6280 N.3   103  ARG103     -0.1231
     86  CA       -28.7260   -4.1410  -19.8730 C.3   103  ARG103      0.1694
     87  C        -29.6370   -3.7630  -18.6690 C.2   103  ARG103      0.2591
     88  O        -30.4450   -4.5730  -18.2330 O.2   103  ARG103     -0.2718
     89  CB       -27.5220   -4.9790  -19.4210 C.3   103  ARG103      0.0321
     90  CG       -26.8060   -4.4410  -18.1670 C.3   103  ARG103      0.0489
     91  CD       -25.3700   -4.9220  -18.0600 C.3   103  ARG103      0.2205
     92  NE       -25.3230   -6.3700  -17.8920 N.pl3 103  ARG103     -0.0865
     93  CZ       -25.3740   -7.0010  -16.7320 C.cat 103  ARG103      0.5346
     94  NH1      -25.4540   -6.3160  -15.5980 N.pl3 103  ARG103      0.1354
     95  NH2      -25.3340   -8.3250  -16.6930 N.pl3 103  ARG103      0.1354
     96  N        -29.5230   -2.5290  -18.1630 N.am  104  ALA104     -0.1980
     97  CA       -30.3180   -2.0450  -17.0220 C.3   104  ALA104      0.1597
     98  C        -31.4230   -1.0920  -17.4630 C.2   104  ALA104      0.2287
     99  O        -31.9720   -0.3880  -16.6350 O.2   104  ALA104     -0.2864
    100  CB       -29.4180   -1.3480  -16.0190 C.3   104  ALA104      0.0319
    101  N        -32.6460    0.9540  -14.0310 N.3   113  PHE113     -0.1227
    102  CA       -32.5360    0.4440  -12.6870 C.3   113  PHE113      0.1736
    103  C        -31.5590    1.3580  -11.9690 C.2   113  PHE113      0.2595
    104  O        -30.3770    1.4030  -12.3040 O.2   113  PHE113     -0.2718
    105  CB       -32.0310   -1.0020  -12.6970 C.3   113  PHE113      0.0547
    106  CG       -32.1100   -1.6830  -11.3580 C.ar  113  PHE113     -0.0202
    107  CD1      -33.3420   -2.0190  -10.8010 C.ar  113  PHE113     -0.0042
    108  CD2      -30.9520   -2.0160  -10.6610 C.ar  113  PHE113     -0.0042
    109  CE1      -33.4170   -2.6700   -9.5640 C.ar  113  PHE113     -0.0003
    110  CE2      -31.0230   -2.7090   -9.4400 C.ar  113  PHE113     -0.0003
    111  CZ       -32.2610   -3.0200   -8.8980 C.ar  113  PHE113     -0.0000
    112  N        -32.0540    2.0790  -10.9810 N.am  114  PHE114     -0.1962
    113  CA       -31.2530    3.0350  -10.2350 C.3   114  PHE114      0.1771
    114  C        -31.5850    2.9100   -8.7430 C.2   114  PHE114      0.2619
    115  O        -32.7530    2.9840   -8.3740 O.2   114  PHE114     -0.2715
    116  CB       -31.6180    4.4490  -10.7390 C.3   114  PHE114      0.0574
    117  CG       -31.0030    5.6100   -9.9840 C.ar  114  PHE114     -0.0200
    118  CD1      -29.6780    5.9710  -10.1910 C.ar  114  PHE114     -0.0042
    119  CD2      -31.7380    6.3090   -9.0310 C.ar  114  PHE114     -0.0042
    120  CE1      -29.1120    7.0400   -9.4860 C.ar  114  PHE114     -0.0003
    121  CE2      -31.1670    7.3780   -8.3250 C.ar  114  PHE114     -0.0003
    122  CZ       -29.8620    7.7310   -8.5560 C.ar  114  PHE114     -0.0000
    123  N        -30.5750    2.7090   -7.9090 N.am  115  GLU115     -0.1977
    124  CA       -30.7500    2.6090   -6.4570 C.3   115  GLU115      0.1602
    125  C        -31.9020    1.6400   -6.0400 C.2   115  GLU115      0.2287
    126  O        -32.7640    2.0160   -5.2290 O.2   115  GLU115     -0.2864
    127  CB       -30.9480    4.0230   -5.8470 C.3   115  GLU115      0.0415
    128  CG       -29.7460    4.9260   -6.0920 C.3   115  GLU115      0.1163
    129  CD       -29.5940    6.1670   -5.2390 C.2   115  GLU115      0.3649
    130  OE1      -30.6110    6.6430   -4.6830 O.co2 115  GLU115     -0.2457
    131  OE2      -28.4540    6.6740   -5.1320 O.co2 115  GLU115     -0.2457
@<TRIPOS>BOND
     1    66    67    1
     2    67    68    1
     3    67    70    1
     4    85    86    1
     5    68    77   am
     6    68    69    2
     7    79    80    2
     8    79    78    1
     9    59    60    1
    10    77    78    1
    11    82    83    1
    12    82    81    1
    13    61    62    2
    14    61    60    1
    15    86    89    1
    16    86    87    1
    17    71    70    1
    18    71    72    1
    19    89    90    1
    20    78    81    1
    21    83    84    1
    22    60    63    1
    23    87    88    2
    24    87    96   am
    25    73    72    1
    26    73    74    2
    27    90    91    1
    28    96    97    1
    29    63    64    1
    30    63    65    1
    31    91    92    1
    32    76    74    1
    33    92    93    2
    34    74    75    1
    35    98    97    1
    36    98    99    2
    37    97   100    1
    38     6     5    1
    39    93    95    1
    40    93    94    1
    41    30    29    1
    42     5     2    1
    43    50    49    2
    44    28    29    1
    45    28    25    1
    46    49    48    1
    47     1     2    1
    48    26    27    2
    49    26    25    1
    50     2     3    1
    51   101   102    1
    52    29    31    1
    53    45    44    2
    54    25    24    1
    55    46    43    1
    56    19    18    2
    57    44    43    1
    58    48    51    1
    59    48    47    1
    60    51    52    1
    61   105   102    1
    62   105   106    1
    63    43    42    1
    64   102   103    1
    65     3     4    2
    66     3     7   am
    67    18    17    1
    68   104   103    2
    69     7     8    1
    70   103   112   am
    71    52    53   ar
    72    52    54   ar
    73   106   107   ar
    74   106   108   ar
    75    20    17    1
    76    20    21    1
    77    16    17    1
    78    16     9   am
    79    53    55   ar
    80   112   113    1
    81   107   109   ar
    82   116   113    1
    83   116   117    1
    84   108   110   ar
    85     8     9    1
    86     8    11    1
    87    35    34    2
    88    22    21    1
    89    54    56   ar
    90     9    10    2
    91   113   114    1
    92    21    23    1
    93    34    33    1
    94   118   117   ar
    95   118   120   ar
    96    11    12    1
    97    55    57   ar
    98   117   119   ar
    99   109   111   ar
   100   120   122   ar
   101   110   111   ar
   102    56    57   ar
   103    36    33    1
   104    36    37    1
   105    57    58    1
   106   119   121   ar
   107    33    32    1
   108   114   115    2
   109   114   123   am
   110    14    13    2
   111    12    13    1
   112   122   121   ar
   113    13    15   am
   114    37    39   ar
   115    37    38   ar
   116   123   124    1
   117    39    41   ar
   118    38    40   ar
   119    41    40   ar
   120   124   125    1
   121   124   127    1
   122   128   127    1
   123   128   129    1
   124   125   126    2
   125   129   131   ar
   126   129   130   ar
