@<TRIPOS>MOLECULE
tmp/5g44A01.pdb
 118 109 0 0 0
SMALL
GASTEIGER

@<TRIPOS>ATOM
      1  N        -24.8310   10.2090   -8.1470 N.3    56  CYS56      -0.1235
      2  CA       -24.5510    9.7490   -9.5010 C.3    56  CYS56       0.1677
      3  C        -23.0500    9.5180   -9.7650 C.2    56  CYS56       0.2270
      4  O        -22.7030    8.5050  -10.3850 O.2    56  CYS56      -0.2867
      5  CB       -25.2150   10.6530  -10.5320 C.3    56  CYS56       0.0956
      6  SG       -27.0420   10.5520  -10.4970 S.3    56  CYS56      -0.0801
      7  N        -22.1460    6.1490   -8.1290 N.3    59  HIS59      -0.1226
      8  CA       -22.6180    4.9990   -8.9380 C.3    59  HIS59       0.1752
      9  C        -21.7860    4.8330  -10.2200 C.2    59  HIS59       0.2595
     10  O        -21.4270    3.7110  -10.5880 O.2    59  HIS59      -0.2718
     11  CB       -24.1180    5.0800   -9.2800 C.3    59  HIS59       0.0759
     12  CG       -25.0140    5.1800   -8.0770 C.ar   59  HIS59       0.0818
     13  ND1      -24.9570    4.2500   -7.0480 N.ar   59  HIS59      -0.2268
     14  CD2      -26.0190    6.0510   -7.8250 C.ar   59  HIS59       0.1154
     15  CE1      -25.8610    4.6480   -6.1610 C.ar   59  HIS59       0.1986
     16  NE2      -26.5160    5.7350   -6.5860 N.ar   59  HIS59      -0.2212
     17  N        -21.4550    5.9400  -10.8730 N.am   60  LEU60      -0.1980
     18  CA       -20.6370    5.8670  -12.0910 C.3    60  LEU60       0.1596
     19  C        -19.2350    5.3390  -11.7610 C.2    60  LEU60       0.2287
     20  O        -18.6850    4.5090  -12.5170 O.2    60  LEU60      -0.2864
     21  CB       -20.5560    7.2470  -12.7630 C.3    60  LEU60       0.0297
     22  CG       -19.6970    7.2910  -14.0270 C.3    60  LEU60       0.0022
     23  CD1      -20.2040    6.2780  -15.0830 C.3    60  LEU60       0.0001
     24  CD2      -19.6110    8.7310  -14.6080 C.3    60  LEU60       0.0001
     25  N        -19.3760    1.6350  -11.3440 N.3    63  ALA63      -0.1245
     26  CA       -19.4850    1.0240  -12.6920 C.3    63  ALA63       0.1562
     27  C        -18.1240    1.0170  -13.3960 C.2    63  ALA63       0.2260
     28  O        -17.7390   -0.0110  -13.9410 O.2    63  ALA63      -0.2867
     29  CB       -20.5050    1.7730  -13.5370 C.3    63  ALA63       0.0290
     30  N        -15.9010    5.3780  -19.8100 N.3    94  MET94      -0.1245
     31  CA       -17.2260    5.9920  -19.8440 C.3    94  MET94       0.1570
     32  C        -18.0220    5.4480  -21.0150 C.2    94  MET94       0.2261
     33  O        -19.2010    5.1580  -20.8590 O.2    94  MET94      -0.2867
     34  CB       -17.1160    7.5060  -19.9100 C.3    94  MET94       0.0387
     35  CG       -18.4430    8.2310  -19.7830 C.3    94  MET94       0.0595
     36  SD       -19.3310    7.7860  -18.2740 S.3    94  MET94      -0.1393
     37  CE       -20.5930    9.0760  -18.2710 C.3    94  MET94       0.0692
     38  N        -19.3250    2.0240  -20.0520 N.3    97  VAL97      -0.1231
     39  CA       -20.4750    2.1910  -19.1370 C.3    97  VAL97       0.1692
     40  C        -21.7470    2.5400  -19.9450 C.2    97  VAL97       0.2591
     41  O        -22.8320    1.9880  -19.6810 O.2    97  VAL97      -0.2718
     42  CB       -20.1680    3.2760  -18.0720 C.3    97  VAL97       0.0266
     43  CG1      -21.4420    3.6410  -17.2780 C.3    97  VAL97       0.0020
     44  CG2      -19.0750    2.7950  -17.1230 C.3    97  VAL97       0.0020
     45  N        -21.6190    3.4560  -20.9170 N.am   98  LEU98      -0.1980
     46  CA       -22.8020    3.8790  -21.7070 C.3    98  LEU98       0.1596
     47  C        -23.3990    2.7400  -22.5340 C.2    98  LEU98       0.2287
     48  O        -24.6120    2.6580  -22.6670 O.2    98  LEU98      -0.2864
     49  CB       -22.5000    5.0920  -22.5900 C.3    98  LEU98       0.0297
     50  CG       -22.1620    6.3800  -21.7920 C.3    98  LEU98       0.0022
     51  CD1      -21.5020    7.4240  -22.6860 C.3    98  LEU98       0.0001
     52  CD2      -23.3860    6.9170  -21.0430 C.3    98  LEU98       0.0001
     53  N        -24.9840    0.0500  -20.0200 N.3   101  MET101     -0.1245
     54  CA       -26.2320    0.4600  -19.3950 C.3   101  MET101      0.1570
     55  C        -27.5220    0.0290  -20.0810 C.2   101  MET101      0.2261
     56  O        -28.5470    0.0090  -19.4200 O.2   101  MET101     -0.2867
     57  CB       -26.2050    1.9010  -18.9370 C.3   101  MET101      0.0387
     58  CG       -26.3450    2.8560  -19.9870 C.3   101  MET101      0.0595
     59  SD       -26.3140    4.4920  -19.2110 S.3   101  MET101     -0.1393
     60  CE       -27.9730    4.6050  -18.6210 C.3   101  MET101      0.0692
     61  N        -29.5230   -2.5290  -18.1630 N.3   104  ALA104     -0.1245
     62  CA       -30.3180   -2.0450  -17.0220 C.3   104  ALA104      0.1562
     63  C        -31.4230   -1.0920  -17.4630 C.2   104  ALA104      0.2260
     64  O        -31.9720   -0.3880  -16.6350 O.2   104  ALA104     -0.2867
     65  CB       -29.4180   -1.3480  -16.0190 C.3   104  ALA104      0.0290
     66  N        -32.6460    0.9540  -14.0310 N.3   113  PHE113     -0.1241
     67  CA       -32.5360    0.4440  -12.6870 C.3   113  PHE113      0.1605
     68  C        -31.5590    1.3580  -11.9690 C.2   113  PHE113      0.2264
     69  O        -30.3770    1.4030  -12.3040 O.2   113  PHE113     -0.2867
     70  CB       -32.0310   -1.0020  -12.6970 C.3   113  PHE113      0.0534
     71  CG       -32.1100   -1.6830  -11.3580 C.ar  113  PHE113     -0.0203
     72  CD1      -33.3420   -2.0190  -10.8010 C.ar  113  PHE113     -0.0042
     73  CD2      -30.9520   -2.0160  -10.6610 C.ar  113  PHE113     -0.0042
     74  CE1      -33.4170   -2.6700   -9.5640 C.ar  113  PHE113     -0.0003
     75  CE2      -31.0230   -2.7090   -9.4400 C.ar  113  PHE113     -0.0003
     76  CZ       -32.2610   -3.0200   -8.8980 C.ar  113  PHE113     -0.0000
     77  N        -30.3120   17.1250  -11.2630 N.3   127  LEU127     -0.1245
     78  CA       -28.9360   17.2740  -11.7600 C.3   127  LEU127      0.1561
     79  C        -28.7490   18.5560  -12.5560 C.2   127  LEU127      0.2260
     80  O        -27.6630   19.1360  -12.5420 O.2   127  LEU127     -0.2867
     81  CB       -28.5340   16.0820  -12.6700 C.3   127  LEU127      0.0270
     82  CG       -28.3560   14.7330  -11.9980 C.3   127  LEU127      0.0019
     83  CD1      -28.0780   13.6450  -13.0470 C.3   127  LEU127      0.0001
     84  CD2      -27.2110   14.7650  -11.0020 C.3   127  LEU127      0.0001
     85  N        -28.2890   16.0970  -21.5820 N.3   132  LEU132     -0.1231
     86  CA       -27.3870   14.9420  -21.4450 C.3   132  LEU132      0.1693
     87  C        -28.1680   13.7120  -21.0220 C.2   132  LEU132      0.2591
     88  O        -28.0110   12.6430  -21.6400 O.2   132  LEU132     -0.2718
     89  CB       -26.2430   15.2620  -20.4620 C.3   132  LEU132      0.0284
     90  CG       -25.3260   14.1040  -20.0400 C.3   132  LEU132      0.0019
     91  CD1      -24.5640   13.5280  -21.2340 C.3   132  LEU132      0.0001
     92  CD2      -24.3830   14.5300  -18.9270 C.3   132  LEU132      0.0001
     93  N        -29.0290   13.8510  -19.9830 N.am  133  ILE133     -0.1980
     94  CA       -29.8460   12.7150  -19.5130 C.3   133  ILE133      0.1595
     95  C        -30.7240   12.1480  -20.6480 C.2   133  ILE133      0.2287
     96  O        -30.7190   10.9280  -20.8740 O.2   133  ILE133     -0.2864
     97  CB       -30.6670   13.0100  -18.2140 C.3   133  ILE133      0.0276
     98  CG1      -29.7730   13.5350  -17.0510 C.3   133  ILE133      0.0022
     99  CG2      -31.4780   11.7640  -17.7610 C.3   133  ILE133      0.0022
    100  CD1      -28.6750   12.5690  -16.6030 C.3   133  ILE133      0.0001
    101  N        -28.6670   10.2090  -23.1320 N.3   136  ILE136     -0.1245
    102  CA       -28.2510    8.9010  -22.5990 C.3   136  ILE136      0.1561
    103  C        -29.4270    7.9150  -22.7080 C.2   136  ILE136      0.2260
    104  O        -29.2240    6.7730  -23.0890 O.2   136  ILE136     -0.2867
    105  CB       -27.6980    9.0050  -21.1500 C.3   136  ILE136      0.0252
    106  CG1      -26.3700    9.8080  -21.1270 C.3   136  ILE136      0.0019
    107  CG2      -27.4810    7.6000  -20.5270 C.3   136  ILE136      0.0019
    108  CD1      -25.9340   10.2970  -19.6880 C.3   136  ILE136      0.0001
    109  N        -20.8000   14.8940  -20.9780 N.3   215  HIS215     -0.1241
    110  CA       -20.6310   14.5850  -19.5410 C.3   215  HIS215      0.1621
    111  C        -19.5440   15.4970  -18.9300 C.2   215  HIS215      0.2264
    112  O        -19.7960   16.1660  -17.9190 O.2   215  HIS215     -0.2867
    113  CB       -20.3080   13.0860  -19.3210 C.3   215  HIS215      0.0745
    114  CG       -19.8630   12.7540  -17.9200 C.ar  215  HIS215      0.0817
    115  ND1      -18.6650   12.1100  -17.6870 N.ar  215  HIS215     -0.2268
    116  CD2      -20.4420   13.0480  -16.7230 C.ar  215  HIS215      0.1154
    117  CE1      -18.5520   12.0100  -16.3660 C.ar  215  HIS215      0.1986
    118  NE2      -19.5930   12.5700  -15.7420 N.ar  215  HIS215     -0.2212
@<TRIPOS>BOND
     1   101   102    1
     2   104   103    2
     3   103   102    1
     4    51    50    1
     5    48    47    2
     6   102   105    1
     7    49    50    1
     8    49    46    1
     9    47    46    1
    10    50    52    1
    11    46    45    1
    12    88    87    2
    13    85    86    1
    14    86    87    1
    15    86    89    1
    16    91    90    1
    17   105   106    1
    18   105   107    1
    19   106   108    1
    20    87    93   am
    21    32    33    2
    22    32    31    1
    23   109   110    1
    24    45    40   am
    25    96    95    2
    26    95    94    1
    27    89    90    1
    28    55    56    2
    29    55    54    1
    30    38    39    1
    31    90    92    1
    32    53    54    1
    33    58    59    1
    34    58    57    1
    35    93    94    1
    36    40    41    2
    37    40    39    1
    38    34    31    1
    39    34    35    1
    40    31    30    1
    41    35    36    1
    42   110   113    1
    43   110   111    1
    44    94    97    1
    45    54    57    1
    46   113   114    1
    47    59    60    1
    48    39    42    1
    49   111   112    2
    50    36    37    1
    51    97    99    1
    52    97    98    1
    53    61    62    1
    54    42    43    1
    55    42    44    1
    56   114   115   ar
    57   114   116   ar
    58   115   117   ar
    59    63    62    1
    60    63    64    2
    61    98   100    1
    62    62    65    1
    63   116   118   ar
    64   117   118   ar
    65    23    22    1
    66    24    22    1
    67    66    67    1
    68    22    21    1
    69    28    27    2
    70    29    26    1
    71    27    26    1
    72    83    82    1
    73    21    18    1
    74    70    67    1
    75    70    71    1
    76    26    25    1
    77    67    68    1
    78    81    82    1
    79    81    78    1
    80    79    80    2
    81    79    78    1
    82    20    19    2
    83    69    68    2
    84    18    19    1
    85    18    17    1
    86    82    84    1
    87    78    77    1
    88    71    72   ar
    89    71    73   ar
    90    17     9   am
    91    72    74   ar
    92    73    75   ar
    93    10     9    2
    94     5     6    1
    95     5     2    1
    96     4     3    2
    97     9     8    1
    98     3     2    1
    99    74    76   ar
   100     2     1    1
   101    75    76   ar
   102    11     8    1
   103    11    12    1
   104     8     7    1
   105    12    14   ar
   106    12    13   ar
   107    14    16   ar
   108    13    15   ar
   109    16    15   ar
