@<TRIPOS>MOLECULE
tmp/5g45A01.pdb
 106 103 0 0 0
SMALL
GASTEIGER

@<TRIPOS>ATOM
      1  N        -23.8010   -5.5870  -11.8160 N.3    23  LEU23      -0.1245
      2  CA       -25.1870   -6.0140  -11.7860 C.3    23  LEU23       0.1561
      3  C        -25.4090   -7.2630  -12.6270 C.2    23  LEU23       0.2260
      4  O        -24.9950   -7.3190  -13.7880 O.2    23  LEU23      -0.2867
      5  CB       -26.0850   -4.8650  -12.3260 C.3    23  LEU23       0.0270
      6  CG       -26.0090   -3.4900  -11.6330 C.3    23  LEU23       0.0019
      7  CD1      -26.5660   -2.3880  -12.5310 C.3    23  LEU23       0.0001
      8  CD2      -26.7210   -3.4980  -10.2790 C.3    23  LEU23       0.0001
      9  N        -24.7600    0.2340  -19.1490 N.3   101  MET101     -0.1245
     10  CA       -26.0150    0.8980  -18.7380 C.3   101  MET101      0.1570
     11  C        -27.2910    0.4750  -19.4820 C.2   101  MET101      0.2261
     12  O        -28.3760    0.5870  -18.9070 O.2   101  MET101     -0.2867
     13  CB       -25.8520    2.4230  -18.7690 C.3   101  MET101      0.0387
     14  CG       -25.1870    2.9500  -17.5060 C.3   101  MET101      0.0595
     15  SD       -24.4930    4.6010  -17.7430 S.3   101  MET101     -0.1393
     16  CE       -25.8760    5.6100  -17.2500 C.3   101  MET101      0.0692
     17  N        -29.4510   -1.9750  -17.5610 N.3   104  ALA104     -0.1231
     18  CA       -30.2320   -1.4330  -16.4450 C.3   104  ALA104      0.1694
     19  C        -31.3820   -0.5410  -16.9670 C.2   104  ALA104      0.2592
     20  O        -32.1570    0.0130  -16.1860 O.2   104  ALA104     -0.2718
     21  CB       -29.3140   -0.6590  -15.5000 C.3   104  ALA104      0.0304
     22  N        -31.5090   -0.4550  -18.3020 N.am  105  TYR105     -0.1976
     23  CA       -32.5290    0.3370  -18.9750 C.3   105  TYR105      0.1639
     24  C        -33.6720   -0.5590  -19.4500 C.2   105  TYR105      0.2290
     25  O        -33.4430   -1.4980  -20.2110 O.2   105  TYR105     -0.2864
     26  CB       -31.9200    1.0940  -20.1800 C.3   105  TYR105      0.0560
     27  CG       -32.9490    1.9140  -20.9270 C.ar  105  TYR105     -0.0198
     28  CD1      -33.4150    3.1190  -20.4110 C.ar  105  TYR105     -0.0009
     29  CD2      -33.5340    1.4380  -22.0980 C.ar  105  TYR105     -0.0009
     30  CE1      -34.3890    3.8580  -21.0690 C.ar  105  TYR105      0.0417
     31  CE2      -34.5140    2.1620  -22.7550 C.ar  105  TYR105      0.0417
     32  CZ       -34.9200    3.3870  -22.2540 C.ar  105  TYR105      0.1957
     33  OH       -35.8850    4.1260  -22.8950 O.3   105  TYR105     -0.2866
     34  N        -34.9800    3.3220  -15.7250 N.3   112  VAL112     -0.1231
     35  CA       -33.6360    2.8530  -15.3950 C.3   112  VAL112      0.1692
     36  C        -33.6100    2.3790  -13.9600 C.2   112  VAL112      0.2592
     37  O        -34.3350    2.9250  -13.1130 O.2   112  VAL112     -0.2718
     38  CB       -32.4960    3.8650  -15.7280 C.3   112  VAL112      0.0266
     39  CG1      -32.4940    4.2070  -17.1990 C.3   112  VAL112      0.0020
     40  CG2      -32.5720    5.1340  -14.8590 C.3   112  VAL112      0.0020
     41  N        -32.8100    1.3290  -13.6980 N.am  113  PHE113     -0.1962
     42  CA       -32.6700    0.7920  -12.3560 C.3   113  PHE113      0.1771
     43  C        -31.6410    1.6780  -11.6630 C.2   113  PHE113      0.2619
     44  O        -30.4760    1.7140  -12.0620 O.2   113  PHE113     -0.2715
     45  CB       -32.2620   -0.6900  -12.3740 C.3   113  PHE113      0.0574
     46  CG       -32.0630   -1.2700  -10.9950 C.ar  113  PHE113     -0.0200
     47  CD1      -33.1500   -1.7380  -10.2550 C.ar  113  PHE113     -0.0042
     48  CD2      -30.7950   -1.3110  -10.4130 C.ar  113  PHE113     -0.0042
     49  CE1      -32.9670   -2.2710   -8.9760 C.ar  113  PHE113     -0.0003
     50  CE2      -30.6170   -1.8260   -9.1200 C.ar  113  PHE113     -0.0003
     51  CZ       -31.7020   -2.3210   -8.4220 C.ar  113  PHE113     -0.0000
     52  N        -32.1060    2.4500  -10.6880 N.am  114  PHE114     -0.1974
     53  CA       -31.2930    3.3880   -9.9380 C.3   114  PHE114      0.1639
     54  C        -31.6550    3.3140   -8.4640 C.2   114  PHE114      0.2290
     55  O        -32.8070    3.5660   -8.1000 O.2   114  PHE114     -0.2864
     56  CB       -31.5360    4.8060  -10.4800 C.3   114  PHE114      0.0560
     57  CG       -30.8130    5.9180   -9.7540 C.ar  114  PHE114     -0.0200
     58  CD1      -29.4700    6.1770  -10.0080 C.ar  114  PHE114     -0.0042
     59  CD2      -31.4980    6.7650   -8.8890 C.ar  114  PHE114     -0.0042
     60  CE1      -28.8220    7.2530   -9.3900 C.ar  114  PHE114     -0.0003
     61  CE2      -30.8490    7.8330   -8.2700 C.ar  114  PHE114     -0.0003
     62  CZ       -29.5180    8.0800   -8.5350 C.ar  114  PHE114     -0.0000
     63  N        -33.8190   12.4230  -12.4530 N.3   124  PHE124     -0.1241
     64  CA       -32.5480   13.1420  -12.5380 C.3   124  PHE124      0.1605
     65  C        -32.6730   14.6630  -12.7560 C.2   124  PHE124      0.2264
     66  O        -31.6510   15.3440  -12.8690 O.2   124  PHE124     -0.2867
     67  CB       -31.6510   12.4770  -13.5920 C.3   124  PHE124      0.0534
     68  CG       -31.4820   10.9900  -13.3870 C.ar  124  PHE124     -0.0203
     69  CD1      -30.5460   10.4960  -12.4780 C.ar  124  PHE124     -0.0042
     70  CD2      -32.2760   10.0770  -14.0870 C.ar  124  PHE124     -0.0042
     71  CE1      -30.4140    9.1150  -12.2640 C.ar  124  PHE124     -0.0003
     72  CE2      -32.1380    8.7000  -13.8770 C.ar  124  PHE124     -0.0003
     73  CZ       -31.2210    8.2270  -12.9530 C.ar  124  PHE124     -0.0000
     74  N        -28.8970   13.6980  -19.8840 N.3   133  ILE133     -0.1245
     75  CA       -29.6990   12.5950  -19.3700 C.3   133  ILE133      0.1561
     76  C        -30.5620   11.9730  -20.4620 C.2   133  ILE133      0.2260
     77  O        -30.5140   10.7520  -20.6210 O.2   133  ILE133     -0.2867
     78  CB       -30.5020   13.0150  -18.0980 C.3   133  ILE133      0.0252
     79  CG1      -29.5530   13.3700  -16.9010 C.3   133  ILE133      0.0019
     80  CG2      -31.5720   11.9850  -17.7070 C.3   133  ILE133      0.0019
     81  CD1      -28.4480   12.2690  -16.4860 C.3   133  ILE133      0.0001
     82  N        -28.3690    9.9870  -22.9630 N.3   136  ILE136     -0.1231
     83  CA       -27.9440    8.7060  -22.3880 C.3   136  ILE136      0.1692
     84  C        -29.1360    7.7320  -22.4000 C.2   136  ILE136      0.2592
     85  O        -28.9520    6.5630  -22.7420 O.2   136  ILE136     -0.2718
     86  CB       -27.2590    8.8620  -20.9960 C.3   136  ILE136      0.0266
     87  CG1      -25.9860    9.7170  -21.1050 C.3   136  ILE136      0.0019
     88  CG2      -26.9500    7.5020  -20.3390 C.3   136  ILE136      0.0020
     89  CD1      -25.3740   10.1090  -19.7700 C.3   136  ILE136      0.0001
     90  N        -30.3630    8.2390  -22.1290 N.am  137  PHE137     -0.1976
     91  CA       -31.5720    7.4160  -22.1860 C.3   137  PHE137      0.1639
     92  C        -31.8340    6.9410  -23.6400 C.2   137  PHE137      0.2290
     93  O        -32.1280    5.7540  -23.8370 O.2   137  PHE137     -0.2864
     94  CB       -32.7850    8.1740  -21.6190 C.3   137  PHE137      0.0560
     95  CG       -33.1130    7.8930  -20.1700 C.ar  137  PHE137     -0.0200
     96  CD1      -32.3040    8.3760  -19.1490 C.ar  137  PHE137     -0.0042
     97  CD2      -34.2830    7.2220  -19.8230 C.ar  137  PHE137     -0.0042
     98  CE1      -32.6220    8.1330  -17.8000 C.ar  137  PHE137     -0.0003
     99  CE2      -34.6000    6.9700  -18.4730 C.ar  137  PHE137     -0.0003
    100  CZ       -33.7710    7.4330  -17.4730 C.ar  137  PHE137     -0.0000
    101  N        -29.3060    4.3700  -24.5840 N.3   140  SER140     -0.1217
    102  CA       -29.6970    3.1320  -23.8980 C.3   140  SER140      0.1889
    103  C        -30.8770    2.4610  -24.6000 C.2   140  SER140      0.2288
    104  O        -30.9000    1.2430  -24.6910 O.2   140  SER140     -0.2866
    105  CB       -30.0280    3.3950  -22.4310 C.3   140  SER140      0.2089
    106  OG       -28.8530    3.5760  -21.6590 O.3   140  SER140     -0.2183
@<TRIPOS>BOND
     1   104   103    2
     2   103   102    1
     3   101   102    1
     4   102   105    1
     5    93    92    2
     6    92    91    1
     7    82    83    1
     8    33    32    1
     9    31    32   ar
    10    31    29   ar
    11    85    84    2
    12   105   106    1
    13    84    83    1
    14    84    90   am
    15    83    86    1
    16    32    30   ar
    17    91    90    1
    18    91    94    1
    19    29    27   ar
    20    94    95    1
    21    87    86    1
    22    87    89    1
    23    30    28   ar
    24    86    88    1
    25    27    28   ar
    26    27    26    1
    27    77    76    2
    28    76    75    1
    29    25    24    2
    30    26    23    1
    31    95    97   ar
    32    95    96   ar
    33    74    75    1
    34    97    99   ar
    35    11    12    2
    36    11    10    1
    37    24    23    1
    38    75    78    1
    39    96    98   ar
    40     9    10    1
    41    23    22    1
    42    13    10    1
    43    13    14    1
    44    99   100   ar
    45    22    19   am
    46    78    80    1
    47    78    79    1
    48    98   100   ar
    49    15    14    1
    50    15    16    1
    51    17    18    1
    52    39    38    1
    53    19    18    1
    54    19    20    2
    55    79    81    1
    56    18    21    1
    57    38    35    1
    58    38    40    1
    59    34    35    1
    60    35    36    1
    61    70    72   ar
    62    70    68   ar
    63    36    41   am
    64    36    37    2
    65    72    73   ar
    66     4     3    2
    67    41    42    1
    68    67    68    1
    69    67    64    1
    70    68    69   ar
    71    73    71   ar
    72    66    65    2
    73    65    64    1
    74     3     2    1
    75    64    63    1
    76     7     6    1
    77    69    71   ar
    78    45    42    1
    79    45    46    1
    80    42    43    1
    81     5     2    1
    82     5     6    1
    83    44    43    2
    84     1     2    1
    85    43    52   am
    86     6     8    1
    87    46    48   ar
    88    46    47   ar
    89    52    53    1
    90    56    53    1
    91    56    57    1
    92    48    50   ar
    93    47    49   ar
    94    58    57   ar
    95    58    60   ar
    96    53    54    1
    97    57    59   ar
    98    60    62   ar
    99    50    51   ar
   100    49    51   ar
   101    59    61   ar
   102    62    61   ar
   103    54    55    2
