@<TRIPOS>MOLECULE
tmp/5g46A01.pdb
 78 76 0 0 0
SMALL
GASTEIGER

@<TRIPOS>ATOM
      1  N        -29.6600    6.9710  -26.1540 N.3   140  PHE140     -0.1241
      2  CA       -28.5870    6.0330  -26.4830 C.3   140  PHE140      0.1605
      3  C        -28.8960    4.6280  -25.9500 C.2   140  PHE140      0.2264
      4  O        -28.8290    3.6620  -26.6970 O.2   140  PHE140     -0.2867
      5  CB       -27.2510    6.5490  -25.9150 C.3   140  PHE140      0.0534
      6  CG       -26.0740    5.6900  -26.3040 C.ar  140  PHE140     -0.0203
      7  CD1      -25.5400    5.7540  -27.5840 C.ar  140  PHE140     -0.0042
      8  CD2      -25.5150    4.7950  -25.3960 C.ar  140  PHE140     -0.0042
      9  CE1      -24.4300    4.9720  -27.9380 C.ar  140  PHE140     -0.0003
     10  CE2      -24.3880    4.0350  -25.7470 C.ar  140  PHE140     -0.0003
     11  CZ       -23.8830    4.1090  -27.0270 C.ar  140  PHE140     -0.0000
     12  N        -31.8510    3.0730  -27.9480 N.3   143  SER143     -0.1202
     13  CA       -31.3550    2.6250  -29.2620 C.3   143  SER143      0.2020
     14  C        -30.5350    1.3470  -29.1350 C.2   143  SER143      0.2618
     15  O        -30.7340    0.4110  -29.9320 O.2   143  SER143     -0.2717
     16  CB       -30.5680    3.7420  -29.9340 C.3   143  SER143      0.2103
     17  OG       -31.4410    4.8100  -30.2540 O.3   143  SER143     -0.2182
     18  N        -29.6780    1.2380  -28.0920 N.am  144  LEU144     -0.1979
     19  CA       -28.9390   -0.0250  -27.8850 C.3   144  LEU144      0.1596
     20  C        -29.8470   -1.1570  -27.4940 C.2   144  LEU144      0.2287
     21  O        -29.6120   -2.2840  -27.9150 O.2   144  LEU144     -0.2864
     22  CB       -27.8230    0.0960  -26.8260 C.3   144  LEU144      0.0297
     23  CG       -26.5850    0.8700  -27.1950 C.3   144  LEU144      0.0022
     24  CD1      -25.5950    0.7770  -26.0480 C.3   144  LEU144      0.0001
     25  CD2      -25.8950    0.2620  -28.4530 C.3   144  LEU144      0.0001
     26  N        -31.3290   -3.3650  -30.1700 N.3   147  LEU147     -0.1245
     27  CA       -30.4580   -4.3510  -30.8250 C.3   147  LEU147      0.1561
     28  C        -30.6040   -5.7260  -30.2060 C.2   147  LEU147      0.2260
     29  O        -30.1460   -6.7010  -30.8040 O.2   147  LEU147     -0.2867
     30  CB       -28.9860   -3.8940  -30.7780 C.3   147  LEU147      0.0270
     31  CG       -28.6630   -2.5390  -31.4260 C.3   147  LEU147      0.0019
     32  CD1      -27.1680   -2.2590  -31.4020 C.3   147  LEU147      0.0001
     33  CD2      -29.2270   -2.4460  -32.8530 C.3   147  LEU147      0.0001
     34  N        -24.1430   -3.0760  -38.8530 N.3   201  ALA201     -0.1231
     35  CA       -24.5990   -1.8130  -39.4330 C.3   201  ALA201      0.1694
     36  C        -25.4050   -1.0060  -38.4270 C.2   201  ALA201      0.2592
     37  O        -25.5840    0.1950  -38.6110 O.2   201  ALA201     -0.2718
     38  CB       -25.4710   -2.0920  -40.6450 C.3   201  ALA201      0.0304
     39  N        -25.8840   -1.6640  -37.3630 N.am  202  LYS202     -0.1966
     40  CA       -26.7590   -1.0440  -36.3660 C.3   202  LYS202      0.1728
     41  C        -26.0340   -0.5380  -35.1270 C.2   202  LYS202      0.2616
     42  O        -26.6420    0.1740  -34.3310 O.2   202  LYS202     -0.2715
     43  CB       -27.8600   -2.0220  -35.9700 C.3   202  LYS202      0.0311
     44  CG       -28.7350   -2.4550  -37.1290 C.3   202  LYS202      0.0038
     45  CD       -29.6880   -3.5580  -36.7290 C.3   202  LYS202      0.0206
     46  CE       -30.4590   -4.0430  -37.9380 C.3   202  LYS202      0.1093
     47  NZ       -31.4530   -5.0870  -37.5750 N.3   202  LYS202     -0.1314
     48  N        -24.7280   -0.8340  -35.0000 N.am  203  LEU203     -0.1964
     49  CA       -23.9230   -0.3590  -33.8660 C.3   203  LEU203      0.1713
     50  C        -23.7130    1.1580  -33.9430 C.2   203  LEU203      0.2458
     51  O        -23.6570    1.7050  -35.0470 O.2   203  LEU203     -0.2730
     52  CB       -22.5570   -1.0850  -33.8290 C.3   203  LEU203      0.0310
     53  CG       -22.6420   -2.5680  -33.5290 C.3   203  LEU203      0.0022
     54  CD1      -21.2680   -3.2240  -33.6710 C.3   203  LEU203      0.0001
     55  CD2      -23.2020   -2.8180  -32.1380 C.3   203  LEU203      0.0001
     56  N        -23.5820    1.8690  -32.8050 N.am  204  PRO204     -0.2716
     57  CA       -23.3610    3.3150  -32.9020 C.3   204  PRO204      0.1521
     58  C        -22.0030    3.6470  -33.5150 C.2   204  PRO204      0.2440
     59  O        -21.0420    2.9100  -33.3010 O.2   204  PRO204     -0.2731
     60  CB       -23.4090    3.7870  -31.4340 C.3   204  PRO204      0.0310
     61  CG       -23.0650    2.5810  -30.6290 C.3   204  PRO204      0.0237
     62  CD       -23.6320    1.4170  -31.3930 C.3   204  PRO204      0.0939
     63  N        -21.8650    4.7700  -34.2370 N.am  205  PRO205     -0.2727
     64  CA       -20.5130    5.1600  -34.6950 C.3   205  PRO205      0.1402
     65  C        -19.6750    5.5800  -33.4730 C.2   205  PRO205      0.2269
     66  O        -20.2570    6.0100  -32.4730 O.2   205  PRO205     -0.2865
     67  CB       -20.7810    6.3360  -35.6310 C.3   205  PRO205      0.0296
     68  CG       -22.0760    6.9040  -35.1900 C.3   205  PRO205      0.0237
     69  CD       -22.8860    5.7840  -34.5820 C.3   205  PRO205      0.0939
     70  N        -20.4190    8.8810  -31.7490 N.3   208  LYS208     -0.1245
     71  CA       -21.5430    8.9540  -30.8310 C.3   208  LYS208      0.1561
     72  C        -21.0610    8.7730  -29.3710 C.2   208  LYS208      0.2260
     73  O        -21.4410    9.5610  -28.5030 O.2   208  LYS208     -0.2867
     74  CB       -22.6240    7.9130  -31.1760 C.3   208  LYS208      0.0271
     75  CG       -23.8820    8.0190  -30.3310 C.3   208  LYS208      0.0035
     76  CD       -24.5520    9.3730  -30.4130 C.3   208  LYS208      0.0206
     77  CE       -25.5390    9.5210  -29.2940 C.3   208  LYS208      0.1093
     78  NZ       -26.0570   10.9140  -29.1850 N.3   208  LYS208     -0.1314
@<TRIPOS>BOND
     1    38    35    1
     2    35    34    1
     3    35    36    1
     4    37    36    2
     5    36    39   am
     6    46    47    1
     7    46    45    1
     8    39    40    1
     9    44    45    1
    10    44    43    1
    11    40    43    1
    12    40    41    1
    13    67    68    1
    14    67    64    1
    15    68    69    1
    16    41    48   am
    17    41    42    2
    18    51    50    2
    19    48    49    1
    20    64    63    1
    21    64    65    1
    22    69    63    1
    23    63    58   am
    24    50    49    1
    25    50    56   am
    26    49    52    1
    27    52    53    1
    28    54    53    1
    29    53    55    1
    30    58    59    2
    31    58    57    1
    32    65    66    2
    33    57    56    1
    34    57    60    1
    35    33    31    1
    36    56    62    1
    37    70    71    1
    38    60    61    1
    39    31    32    1
    40    31    30    1
    41    62    61    1
    42    74    71    1
    43    74    75    1
    44    71    72    1
    45    27    30    1
    46    27    28    1
    47    27    26    1
    48    29    28    2
    49    76    75    1
    50    76    77    1
    51    17    16    1
    52    16    13    1
    53    15    14    2
    54    72    73    2
    55    77    78    1
    56    13    14    1
    57    13    12    1
    58    14    18   am
    59    25    23    1
    60    18    19    1
    61     9     7   ar
    62     9    11   ar
    63    21    20    2
    64    19    20    1
    65    19    22    1
    66     7     6   ar
    67    23    22    1
    68    23    24    1
    69    11    10   ar
    70     4     3    2
    71     2     1    1
    72     2     3    1
    73     2     5    1
    74     6     5    1
    75     6     8   ar
    76    10     8   ar
