@<TRIPOS>MOLECULE
tmp/5g48B00.pdb
 105 99 0 0 0
SMALL
GASTEIGER

@<TRIPOS>ATOM
      1  N        -32.9680   17.4340   41.4210 N.3   151  LYS151     -0.1245
      2  CA       -31.5820   17.0650   41.6810 C.3   151  LYS151      0.1561
      3  C        -31.0420   16.3580   40.4470 C.2   151  LYS151      0.2260
      4  O        -31.5360   15.2890   40.0770 O.2   151  LYS151     -0.2867
      5  CB       -31.4650   16.1650   42.9120 C.3   151  LYS151      0.0271
      6  CG       -30.0200   15.8310   43.2450 C.3   151  LYS151      0.0035
      7  CD       -29.9200   15.0550   44.5520 C.3   151  LYS151      0.0206
      8  CE       -29.7880   16.0060   45.7310 C.3   151  LYS151      0.1093
      9  NZ       -28.4250   15.9730   46.3280 N.3   151  LYS151     -0.1314
     10  N        -30.4260   12.5380   40.3940 N.3   154  LEU154     -0.1245
     11  CA       -31.6020   11.6600   40.4980 C.3   154  LEU154      0.1561
     12  C        -32.3060   11.3730   39.1610 C.2   154  LEU154      0.2260
     13  O        -33.1640   10.5000   39.1050 O.2   154  LEU154     -0.2867
     14  CB       -32.6200   12.2240   41.4970 C.3   154  LEU154      0.0270
     15  CG       -32.1070   12.5650   42.9030 C.3   154  LEU154      0.0019
     16  CD1      -33.2870   12.7560   43.8420 C.3   154  LEU154      0.0001
     17  CD2      -31.1530   11.5110   43.4520 C.3   154  LEU154      0.0001
     18  N        -34.2980    6.7140   42.5310 N.3   173  THR173     -0.1218
     19  CA       -35.3150    7.3910   43.3460 C.3   173  THR173      0.1862
     20  C        -35.8520    8.6690   42.7090 C.2   173  THR173      0.2287
     21  O        -35.1710    9.3030   41.8910 O.2   173  THR173     -0.2866
     22  CB       -34.7810    7.7290   44.7590 C.3   173  THR173      0.1770
     23  OG1      -35.8240    8.3230   45.5420 O.3   173  THR173     -0.2211
     24  CG2      -33.5750    8.6960   44.7000 C.3   173  THR173      0.0375
     25  N        -37.2910   10.8210   45.1610 N.3   175  THR175     -0.1203
     26  CA       -37.5040   11.4000   46.5130 C.3   175  THR175      0.1994
     27  C        -38.7570   10.9270   47.2730 C.2   175  THR175      0.2618
     28  O        -38.8620   11.1750   48.4750 O.2   175  THR175     -0.2717
     29  CB       -37.4730   12.9590   46.5440 C.3   175  THR175      0.1784
     30  OG1      -38.7340   13.4990   46.1190 O.3   175  THR175     -0.2211
     31  CG2      -36.3480   13.5200   45.6760 C.3   175  THR175      0.0376
     32  N        -39.6890   10.2570   46.5890 N.am  176  LYS176     -0.1965
     33  CA       -40.9130    9.7410   47.2050 C.3   176  LYS176      0.1728
     34  C        -40.8500    8.2220   47.3630 C.2   176  LYS176      0.2616
     35  O        -41.3770    7.6810   48.3370 O.2   176  LYS176     -0.2715
     36  CB       -42.1300   10.1750   46.3840 C.3   176  LYS176      0.0311
     37  CG       -42.1240   11.6740   46.0900 C.3   176  LYS176      0.0038
     38  CD       -43.4150   12.1770   45.4660 C.3   176  LYS176      0.0206
     39  CE       -43.6720   11.5980   44.0790 C.3   176  LYS176      0.1093
     40  NZ       -42.5970   11.6920   43.0500 N.3   176  LYS176     -0.1314
     41  N        -40.2260    7.5400   46.4010 N.am  177  ARG177     -0.1963
     42  CA       -39.7750    6.1600   46.5890 C.3   177  ARG177      0.1729
     43  C        -38.3050    6.0330   46.2140 C.2   177  ARG177      0.2616
     44  O        -37.8190    6.7290   45.3240 O.2   177  ARG177     -0.2715
     45  CB       -40.6120    5.1510   45.7830 C.3   177  ARG177      0.0348
     46  CG       -40.6910    5.3770   44.2720 C.3   177  ARG177      0.0492
     47  CD       -41.9580    6.1240   43.8930 C.3   177  ARG177      0.2205
     48  NE       -42.0940    6.3470   42.4530 N.pl3 177  ARG177     -0.0865
     49  CZ       -42.5800    5.4740   41.5680 C.cat 177  ARG177      0.5346
     50  NH1      -42.9890    4.2510   41.9270 N.pl3 177  ARG177      0.1354
     51  NH2      -42.6630    5.8340   40.2880 N.pl3 177  ARG177      0.1354
     52  N        -37.6150    5.1370   46.9100 N.am  178  LEU178     -0.1977
     53  CA       -36.2410    4.7940   46.6030 C.3   178  LEU178      0.1596
     54  C        -36.1590    3.2760   46.4790 C.2   178  LEU178      0.2287
     55  O        -36.4570    2.5610   47.4380 O.2   178  LEU178     -0.2864
     56  CB       -35.3050    5.3140   47.6920 C.3   178  LEU178      0.0297
     57  CG       -33.8080    5.1190   47.4080 C.3   178  LEU178      0.0022
     58  CD1      -32.9810    6.3530   47.7450 C.3   178  LEU178      0.0001
     59  CD2      -33.2630    3.9020   48.1440 C.3   178  LEU178      0.0001
     60  N        -26.8740   10.9290   46.3490 N.3   243  PRO243     -0.2116
     61  CA       -26.9260   10.8900   47.8150 C.3   243  PRO243      0.1372
     62  C        -26.7720    9.4780   48.3730 C.2   243  PRO243      0.2244
     63  O        -27.1800    8.5120   47.7260 O.2   243  PRO243     -0.2868
     64  CB       -28.3150   11.4520   48.1340 C.3   243  PRO243      0.0268
     65  CG       -29.1160   11.2040   46.9040 C.3   243  PRO243      0.0207
     66  CD       -28.1530   11.3840   45.7730 C.3   243  PRO243      0.0892
     67  N        -30.3030    7.1610   54.2950 N.3   248  ILE248     -0.1245
     68  CA       -31.7360    7.4580   54.1740 C.3   248  ILE248      0.1561
     69  C        -32.5700    6.3040   54.7380 C.2   248  ILE248      0.2260
     70  O        -33.5710    6.5410   55.4180 O.2   248  ILE248     -0.2867
     71  CB       -32.1380    7.7360   52.7030 C.3   248  ILE248      0.0252
     72  CG1      -31.3380    8.9260   52.1500 C.3   248  ILE248      0.0019
     73  CG2      -33.6400    7.9990   52.5880 C.3   248  ILE248      0.0019
     74  CD1      -31.3940    9.0770   50.6470 C.3   248  ILE248      0.0001
     75  N        -41.1270    6.7360   56.7970 N.3   347  PRO347     -0.2116
     76  CA       -40.9060    5.8050   55.6900 C.3   347  PRO347      0.1372
     77  C        -41.1850    4.3390   56.0240 C.2   347  PRO347      0.2244
     78  O        -41.0120    3.9220   57.1740 O.2   347  PRO347     -0.2868
     79  CB       -39.4240    5.9890   55.3810 C.3   347  PRO347      0.0268
     80  CG       -39.1590    7.4060   55.7240 C.3   347  PRO347      0.0207
     81  CD       -39.9990    7.6790   56.9340 C.3   347  PRO347      0.0892
     82  N        -38.1350    1.6950   49.5270 N.3   368  LEU368     -0.1231
     83  CA       -38.4860    2.5380   50.6680 C.3   368  LEU368      0.1693
     84  C        -39.4240    3.6410   50.1860 C.2   368  LEU368      0.2592
     85  O        -39.1380    4.2950   49.1850 O.2   368  LEU368     -0.2718
     86  CB       -37.2350    3.1640   51.2790 C.3   368  LEU368      0.0284
     87  CG       -37.4550    4.0240   52.5330 C.3   368  LEU368      0.0019
     88  CD1      -37.7470    3.1510   53.7400 C.3   368  LEU368      0.0001
     89  CD2      -36.2450    4.9050   52.7940 C.3   368  LEU368      0.0001
     90  N        -40.5020    3.8760   50.9310 N.am  369  MET369     -0.1965
     91  CA       -41.6040    4.7200   50.4720 C.3   369  MET369      0.1736
     92  C        -42.1120    5.6720   51.5550 C.2   369  MET369      0.2616
     93  O        -42.4170    5.2330   52.6610 O.2   369  MET369     -0.2715
     94  CB       -42.7510    3.8070   50.0380 C.3   369  MET369      0.0427
     95  CG       -43.5910    4.3510   48.9070 C.3   369  MET369      0.0599
     96  SD       -44.7390    3.1000   48.3200 S.3   369  MET369     -0.1393
     97  CE       -43.6250    1.8850   47.6210 C.3   369  MET369      0.0692
     98  N        -42.2160    6.9610   51.2240 N.am  370  MET370     -0.1977
     99  CA       -42.8810    7.9380   52.0910 C.3   370  MET370      0.1605
    100  C        -44.3840    7.6820   52.0920 C.2   370  MET370      0.2287
    101  O        -44.9890    7.6130   51.0270 O.2   370  MET370     -0.2864
    102  CB       -42.6480    9.3790   51.6140 C.3   370  MET370      0.0413
    103  CG       -41.2780    9.9650   51.9240 C.3   370  MET370      0.0598
    104  SD       -40.9220   10.2500   53.6730 S.3   370  MET370     -0.1393
    105  CE       -42.2840   11.3080   54.1700 C.3   370  MET370      0.0692
@<TRIPOS>BOND
     1    13    12    2
     2    12    11    1
     3     4     3    2
     4    51    49    1
     5    10    11    1
     6     3     2    1
     7    11    14    1
     8     1     2    1
     9    14    15    1
    10    49    50    1
    11    49    48    2
    12     2     5    1
    13    21    20    2
    14    48    47    1
    15    18    19    1
    16    20    19    1
    17    15    17    1
    18    15    16    1
    19     5     6    1
    20    40    39    1
    21     6     7    1
    22    19    22    1
    23    47    46    1
    24    39    38    1
    25    46    45    1
    26     7     8    1
    27    24    22    1
    28    22    23    1
    29    25    26    1
    30    44    43    2
    31    38    37    1
    32    31    29    1
    33     8     9    1
    34    66    60    1
    35    66    65    1
    36    45    42    1
    37    37    36    1
    38    30    29    1
    39    43    42    1
    40    43    52   am
    41    60    61    1
    42    36    33    1
    43    41    42    1
    44    41    34   am
    45    54    53    1
    46    54    55    2
    47    26    29    1
    48    26    27    1
    49    32    33    1
    50    32    27   am
    51    53    52    1
    52    53    56    1
    53    65    64    1
    54    33    34    1
    55    27    28    2
    56    34    35    2
    57    57    56    1
    58    57    58    1
    59    57    59    1
    60    97    96    1
    61    63    62    2
    62    61    64    1
    63    61    62    1
    64    96    95    1
    65    95    94    1
    66    85    84    2
    67    82    83    1
    68    94    91    1
    69    84    83    1
    70    84    90   am
    71    91    90    1
    72    91    92    1
    73    74    72    1
    74    83    86    1
    75   101   100    2
    76    98    92   am
    77    98    99    1
    78    86    87    1
    79    92    93    2
    80   102   103    1
    81   102    99    1
    82   103   104    1
    83    99   100    1
    84    72    71    1
    85    87    89    1
    86    87    88    1
    87    73    71    1
    88    71    68    1
    89   104   105    1
    90    68    67    1
    91    68    69    1
    92    69    70    2
    93    79    76    1
    94    79    80    1
    95    76    77    1
    96    76    75    1
    97    80    81    1
    98    77    78    2
    99    75    81    1
