@<TRIPOS>MOLECULE
tmp/5g4iA00.pdb
 106 100 0 0 0
SMALL
GASTEIGER

@<TRIPOS>ATOM
      1  N         21.6550   10.3930   45.6420 N.3   102  SER102     -0.1202
      2  CA        21.3050   11.7520   45.1310 C.3   102  SER102      0.2020
      3  C         21.2530   12.7680   46.2980 C.2   102  SER102      0.2619
      4  O         21.0560   12.3750   47.4790 O.2   102  SER102     -0.2717
      5  CB        19.9850   11.7750   44.3790 C.3   102  SER102      0.2103
      6  OG        18.8650   11.5930   45.2570 O.3   102  SER102     -0.2182
      7  N         21.3390   14.0440   45.9780 N.am  103  GLY103     -0.1942
      8  CA        21.1150   15.1120   47.0050 C.3   103  GLY103      0.2014
      9  C         19.7230   15.0580   47.5340 C.2   103  GLY103      0.2639
     10  O         19.5090   15.2820   48.7810 O.2   103  GLY103     -0.2714
     11  N         18.6890   14.8370   46.6790 N.am  104  SER104     -0.1949
     12  CA        17.2630   14.7370   47.2200 C.3   104  SER104      0.1924
     13  C         17.1790   13.5940   48.2090 C.2   104  SER104      0.2314
     14  O         16.4840   13.7130   49.2540 O.2   104  SER104     -0.2863
     15  CB        16.1760   14.6260   46.0650 C.3   104  SER104      0.2116
     16  OG        16.1180   15.8260   45.3200 O.3   104  SER104     -0.2180
     17  N         18.7130   14.8490   51.5700 N.3   107  ASN107     -0.1240
     18  CA        17.8900   15.8020   52.3340 C.3   107  ASN107      0.1653
     19  C         16.5930   15.1310   52.8080 C.2   107  ASN107      0.2266
     20  O         16.1500   15.4320   53.9570 O.2   107  ASN107     -0.2867
     21  CB        17.5720   17.0760   51.5210 C.3   107  ASN107      0.1155
     22  CG        18.7070   18.0690   51.4720 C.2   107  ASN107      0.2627
     23  OD1       19.4180   18.2360   52.4770 O.2   107  ASN107     -0.2716
     24  ND2       18.8200   18.8100   50.3940 N.am  107  ASN107     -0.0877
     25  N         15.6760   25.9110   47.3660 N.3   130  TYR130     -0.1227
     26  CA        15.3560   24.6360   46.7180 C.3   130  TYR130      0.1736
     27  C         16.2950   23.5330   47.2480 C.2   130  TYR130      0.2595
     28  O         17.5260   23.6530   47.1710 O.2   130  TYR130     -0.2718
     29  CB        15.4260   24.7170   45.1870 C.3   130  TYR130      0.0548
     30  CG        15.2050   23.3680   44.5200 C.ar  130  TYR130     -0.0200
     31  CD1       13.9550   22.7850   44.4870 C.ar  130  TYR130     -0.0009
     32  CD2       16.2840   22.6190   43.9970 C.ar  130  TYR130     -0.0009
     33  CE1       13.7190   21.5460   43.9530 C.ar  130  TYR130      0.0417
     34  CE2       16.0570   21.3830   43.3930 C.ar  130  TYR130      0.0417
     35  CZ        14.7900   20.8380   43.3760 C.ar  130  TYR130      0.1957
     36  OH        14.5650   19.5900   42.8470 O.3   130  TYR130     -0.2866
     37  N         15.6950   22.4960   47.8640 N.am  131  HIS131     -0.1961
     38  CA        16.4920   21.4250   48.4990 C.3   131  HIS131      0.1787
     39  C         16.2220   20.0210   47.9490 C.2   131  HIS131      0.2621
     40  O         16.7700   19.0090   48.4000 O.2   131  HIS131     -0.2715
     41  CB        16.2440   21.4830   50.0560 C.3   131  HIS131      0.0785
     42  CG        16.7110   22.7580   50.6660 C.ar  131  HIS131      0.0821
     43  ND1       18.0300   23.0720   50.8430 N.ar  131  HIS131     -0.2267
     44  CD2       16.0180   23.8430   51.1330 C.ar  131  HIS131      0.1154
     45  CE1       18.1280   24.2730   51.3650 C.ar  131  HIS131      0.1986
     46  NE2       16.9340   24.7900   51.5110 N.ar  131  HIS131     -0.2212
     47  N         15.3810   19.9050   46.9190 N.am  132  GLY132     -0.1940
     48  CA        15.1180   18.6450   46.2280 C.3   132  GLY132      0.2014
     49  C         13.6560   18.3700   45.8760 C.2   132  GLY132      0.2638
     50  O         12.7890   19.2460   46.0160 O.2   132  GLY132     -0.2714
     51  N         13.4190   17.1330   45.3670 N.am  133  ASN133     -0.1972
     52  CA        12.2280   16.8620   44.5520 C.3   133  ASN133      0.1688
     53  C         11.2550   15.7730   45.0570 C.2   133  ASN133      0.2292
     54  O         10.3710   15.2960   44.2920 O.2   133  ASN133     -0.2864
     55  CB        12.7280   16.5570   43.1420 C.3   133  ASN133      0.1181
     56  CG        13.5880   15.3330   43.1150 C.2   133  ASN133      0.2629
     57  OD1       13.4440   14.4120   43.9300 O.2   133  ASN133     -0.2716
     58  ND2       14.5750   15.2750   42.1930 N.am  133  ASN133     -0.0877
     59  N         21.3490   26.3460   52.5390 N.3   201  ASP201     -0.1239
     60  CA        22.5730   26.3820   51.7110 C.3   201  ASP201      0.1674
     61  C         23.4780   27.4730   52.1920 C.2   201  ASP201      0.2266
     62  O         23.0870   28.6720   52.1110 O.2   201  ASP201     -0.2867
     63  CB        22.1710   26.6240   50.2370 C.3   201  ASP201      0.1410
     64  CG        23.2900   27.0750   49.3050 C.2   201  ASP201      0.3668
     65  OD1       24.4860   26.8830   49.6350 O.co2 201  ASP201     -0.2456
     66  OD2       22.9160   27.6450   48.2100 O.co2 201  ASP201     -0.2456
     67  N         20.5390   30.0800   45.4150 N.3   206  THR206     -0.1218
     68  CA        19.2380   30.2490   44.7720 C.3   206  THR206      0.1862
     69  C         18.6040   31.6330   45.1080 C.2   206  THR206      0.2287
     70  O         17.8550   32.2030   44.3010 O.2   206  THR206     -0.2866
     71  CB        18.3010   29.0840   45.1860 C.3   206  THR206      0.1770
     72  OG1       18.9350   27.8660   44.8080 O.3   206  THR206     -0.2211
     73  CG2       16.9090   29.1370   44.5530 C.3   206  THR206      0.0375
     74  N         22.9810   22.0920   53.9970 N.3   234  ASP234     -0.1239
     75  CA        22.8830   21.4580   52.6570 C.3   234  ASP234      0.1674
     76  C         24.1200   21.9610   51.8820 C.2   234  ASP234      0.2266
     77  O         24.2020   23.1290   51.5470 O.2   234  ASP234     -0.2867
     78  CB        21.5760   21.8780   52.0090 C.3   234  ASP234      0.1410
     79  CG        21.4020   21.3480   50.5940 C.2   234  ASP234      0.3668
     80  OD1       22.4020   20.9860   49.9700 O.co2 234  ASP234     -0.2456
     81  OD2       20.2410   21.4020   50.0840 O.co2 234  ASP234     -0.2456
     82  N         25.2150   20.7160   48.9870 N.3   236  VAL236     -0.1231
     83  CA        25.2140   20.3180   47.5510 C.3   236  VAL236      0.1692
     84  C         25.8450   21.3710   46.6940 C.2   236  VAL236      0.2591
     85  O         26.6140   20.9710   45.7340 O.2   236  VAL236     -0.2718
     86  CB        23.7560   19.9360   47.0750 C.3   236  VAL236      0.0266
     87  CG1       23.7480   19.6900   45.5820 C.3   236  VAL236      0.0020
     88  CG2       23.2370   18.7580   47.8410 C.3   236  VAL236      0.0020
     89  N         25.6400   22.6420   46.9450 N.am  237  GLN237     -0.1979
     90  CA        26.2560   23.7580   46.1810 C.3   237  GLN237      0.1601
     91  C         27.5980   24.2490   46.7580 C.2   237  GLN237      0.2287
     92  O         28.4710   24.7150   45.9630 O.2   237  GLN237     -0.2864
     93  CB        25.3530   25.0320   46.1020 C.3   237  GLN237      0.0394
     94  CG        24.0320   24.8130   45.4150 C.3   237  GLN237      0.0908
     95  CD        24.1620   24.7030   43.8950 C.2   237  GLN237      0.2608
     96  OE1       25.0790   25.1700   43.2900 O.2   237  GLN237     -0.2717
     97  NE2       23.1980   24.0880   43.3110 N.am  237  GLN237     -0.0878
     98  N         25.6610   16.4510   44.1740 N.3   264  LYS264     -0.1245
     99  CA        26.2390   16.9700   42.8990 C.3   264  LYS264      0.1561
    100  C         27.7080   16.5540   42.6280 C.2   264  LYS264      0.2260
    101  O         27.9420   15.5600   41.8910 O.2   264  LYS264     -0.2867
    102  CB        25.8350   18.4170   42.6870 C.3   264  LYS264      0.0271
    103  CG        24.3710   18.5980   42.2310 C.3   264  LYS264      0.0035
    104  CD        24.0070   20.0760   41.8890 C.3   264  LYS264      0.0206
    105  CE        22.5220   20.3170   41.3690 C.3   264  LYS264      0.1093
    106  NZ        21.7340   20.6640   42.5830 N.3   264  LYS264     -0.1314
@<TRIPOS>BOND
     1   105   104    1
     2   105   106    1
     3   104   103    1
     4   101   100    2
     5    58    56   am
     6   103   102    1
     7   100    99    1
     8   102    99    1
     9    36    35    1
    10    99    98    1
    11    56    55    1
    12    56    57    2
    13    55    52    1
    14    96    95    2
    15    97    95   am
    16    35    34   ar
    17    35    33   ar
    18    34    32   ar
    19    95    94    1
    20    33    31   ar
    21    32    30   ar
    22    54    53    2
    23    70    69    2
    24     5     2    1
    25     5     6    1
    26    31    30   ar
    27    30    29    1
    28    52    53    1
    29    52    51    1
    30    73    71    1
    31    68    69    1
    32    68    71    1
    33    68    67    1
    34    72    71    1
    35     2     1    1
    36     2     3    1
    37    29    26    1
    38    16    15    1
    39    51    49   am
    40    94    93    1
    41    87    86    1
    42    85    84    2
    43    49    50    2
    44    49    48    1
    45    92    91    2
    46     7     3   am
    47     7     8    1
    48    15    12    1
    49    93    90    1
    50    90    91    1
    51    90    89    1
    52    48    47    1
    53     3     4    2
    54    11    12    1
    55    11     9   am
    56    84    89   am
    57    84    83    1
    58    26    27    1
    59    26    25    1
    60    47    39   am
    61     8     9    1
    62    86    83    1
    63    86    88    1
    64    28    27    2
    65    12    13    1
    66    27    37   am
    67     9    10    2
    68    83    82    1
    69    37    38    1
    70    39    40    2
    71    39    38    1
    72    13    14    2
    73    66    64   ar
    74    38    41    1
    75    64    65   ar
    76    64    63    1
    77    80    79   ar
    78    41    42    1
    79    81    79   ar
    80    63    60    1
    81    24    22   am
    82    79    78    1
    83    42    43   ar
    84    42    44   ar
    85    43    45   ar
    86    44    46   ar
    87    45    46   ar
    88    22    21    1
    89    22    23    2
    90    21    18    1
    91    77    76    2
    92    17    18    1
    93    60    61    1
    94    60    59    1
    95    76    75    1
    96    78    75    1
    97    62    61    2
    98    18    19    1
    99    75    74    1
   100    19    20    2
