@<TRIPOS>MOLECULE
tmp/5g4jA00.pdb
 172 164 0 0 0
SMALL
GASTEIGER

@<TRIPOS>ATOM
      1  N         19.7960  -24.2180  -32.8070 N.3    17  PHE17      -0.1241
      2  CA        19.2310  -25.5580  -32.8770 C.3    17  PHE17       0.1605
      3  C         19.3170  -26.1340  -34.2960 C.2    17  PHE17       0.2264
      4  O         19.2070  -25.4000  -35.3100 O.2    17  PHE17      -0.2867
      5  CB        17.7390  -25.5980  -32.4580 C.3    17  PHE17       0.0534
      6  CG        17.4720  -25.2990  -30.9800 C.ar   17  PHE17      -0.0203
      7  CD1       18.2860  -25.8520  -29.9470 C.ar   17  PHE17      -0.0042
      8  CD2       16.3470  -24.5190  -30.6070 C.ar   17  PHE17      -0.0042
      9  CE1       18.0030  -25.5890  -28.5900 C.ar   17  PHE17      -0.0003
     10  CE2       16.0670  -24.2850  -29.2400 C.ar   17  PHE17      -0.0003
     11  CZ        16.8800  -24.8450  -28.2310 C.ar   17  PHE17      -0.0000
     12  N          8.3700  -26.7080  -27.4380 N.3    44  TYR44      -0.1227
     13  CA         9.6520  -26.4550  -26.7650 C.3    44  TYR44       0.1736
     14  C          9.8060  -25.1650  -26.0050 C.2    44  TYR44       0.2595
     15  O         10.5000  -25.1760  -24.9860 O.2    44  TYR44      -0.2718
     16  CB        10.8600  -26.5590  -27.7810 C.3    44  TYR44       0.0548
     17  CG        12.1890  -26.3470  -27.0230 C.ar   44  TYR44      -0.0200
     18  CD1       12.6520  -27.3410  -26.1660 C.ar   44  TYR44      -0.0009
     19  CD2       12.9060  -25.1480  -27.0650 C.ar   44  TYR44      -0.0009
     20  CE1       13.7880  -27.2040  -25.4280 C.ar   44  TYR44       0.0417
     21  CE2       14.1010  -24.9780  -26.2960 C.ar   44  TYR44       0.0417
     22  CZ        14.5490  -26.0430  -25.4620 C.ar   44  TYR44       0.1957
     23  OH        15.7070  -26.1450  -24.6160 O.3    44  TYR44      -0.2866
     24  N          9.2170  -24.0590  -26.4670 N.am   45  ASN45      -0.1960
     25  CA         9.5140  -22.7500  -25.9620 C.3    45  ASN45       0.1819
     26  C          8.6620  -22.3090  -24.8250 C.2    45  ASN45       0.2621
     27  O          7.4590  -22.1710  -24.9700 O.2    45  ASN45      -0.2715
     28  CB         9.4990  -21.7590  -27.1030 C.3    45  ASN45       0.1195
     29  CG        10.6720  -22.0080  -28.0370 C.2    45  ASN45       0.2630
     30  OD1       11.8350  -21.7500  -27.6620 O.2    45  ASN45      -0.2716
     31  ND2       10.4160  -22.5580  -29.2000 N.am   45  ASN45      -0.0877
     32  N          9.3050  -22.0230  -23.7100 N.am   46  ASN46      -0.1958
     33  CA         8.6160  -21.5380  -22.5360 C.3    46  ASN46       0.1819
     34  C          8.6250  -20.0700  -22.3710 C.2    46  ASN46       0.2621
     35  O          7.8680  -19.5610  -21.5690 O.2    46  ASN46      -0.2715
     36  CB         9.1320  -22.2270  -21.2780 C.3    46  ASN46       0.1195
     37  CG        10.5370  -21.8370  -20.9200 C.2    46  ASN46       0.2630
     38  OD1       11.3280  -21.4570  -21.7610 O.2    46  ASN46      -0.2716
     39  ND2       10.8420  -21.9960  -19.6570 N.am   46  ASN46      -0.0877
     40  N          9.4900  -19.3600  -23.0930 N.am   47  VAL47      -0.1977
     41  CA         9.4950  -17.9080  -23.0060 C.3    47  VAL47       0.1596
     42  C          8.1660  -17.2570  -23.4410 C.2    47  VAL47       0.2287
     43  O          7.6060  -16.4240  -22.7040 O.2    47  VAL47      -0.2864
     44  CB        10.7190  -17.3450  -23.7490 C.3    47  VAL47       0.0276
     45  CG1       10.6260  -15.8410  -23.8710 C.3    47  VAL47       0.0022
     46  CG2       11.9880  -17.7390  -23.0310 C.3    47  VAL47       0.0022
     47  N         16.7270  -10.3120  -16.1960 N.3   102  SER102     -0.1202
     48  CA        16.9810  -11.6610  -16.6890 C.3   102  SER102      0.2020
     49  C         17.0620  -12.6200  -15.5130 C.2   102  SER102      0.2619
     50  O         17.2550  -12.2210  -14.3420 O.2   102  SER102     -0.2717
     51  CB        18.3360  -11.7380  -17.4290 C.3   102  SER102      0.2103
     52  OG        19.4300  -11.4820  -16.5440 O.3   102  SER102     -0.2182
     53  N         16.9220  -13.8740  -15.8380 N.am  103  GLY103     -0.1942
     54  CA        17.1560  -14.9480  -14.9230 C.3   103  GLY103      0.2014
     55  C         18.5870  -14.9560  -14.3560 C.2   103  GLY103      0.2639
     56  O         18.7580  -15.2010  -13.1250 O.2   103  GLY103     -0.2714
     57  N         19.6300  -14.7260  -15.1810 N.am  104  SER104     -0.1949
     58  CA        21.0000  -14.6150  -14.6710 C.3   104  SER104      0.1924
     59  C         21.1240  -13.5050  -13.6750 C.2   104  SER104      0.2314
     60  O         21.7280  -13.6930  -12.6330 O.2   104  SER104     -0.2863
     61  CB        22.1200  -14.4900  -15.7550 C.3   104  SER104      0.2116
     62  OG        22.1090  -15.6610  -16.5750 O.3   104  SER104     -0.2180
     63  N         19.5470  -14.7440  -10.3240 N.3   107  ASN107     -0.1240
     64  CA        20.3580  -15.7000   -9.5890 C.3   107  ASN107      0.1653
     65  C         21.6160  -15.0390   -9.0620 C.2   107  ASN107      0.2266
     66  O         22.0510  -15.3660   -7.9600 O.2   107  ASN107     -0.2867
     67  CB        20.7000  -16.8990  -10.4310 C.3   107  ASN107      0.1155
     68  CG        19.5610  -17.9350  -10.4690 C.2   107  ASN107      0.2627
     69  OD1       18.7940  -18.0680   -9.5120 O.2   107  ASN107     -0.2716
     70  ND2       19.4630  -18.6350  -11.5670 N.am  107  ASN107     -0.0877
     71  N         22.6070  -25.5890  -14.5940 N.3   130  TYR130     -0.1227
     72  CA        22.9120  -24.3160  -15.2590 C.3   130  TYR130      0.1736
     73  C         21.9650  -23.2330  -14.7330 C.2   130  TYR130      0.2595
     74  O         20.7500  -23.3570  -14.8300 O.2   130  TYR130     -0.2718
     75  CB        22.7590  -24.3730  -16.7390 C.3   130  TYR130      0.0548
     76  CG        23.0100  -23.0650  -17.3920 C.ar  130  TYR130     -0.0200
     77  CD1       24.2980  -22.5020  -17.4000 C.ar  130  TYR130     -0.0009
     78  CD2       21.9630  -22.3180  -17.9560 C.ar  130  TYR130     -0.0009
     79  CE1       24.5480  -21.2660  -17.9520 C.ar  130  TYR130      0.0417
     80  CE2       22.2240  -21.0210  -18.5080 C.ar  130  TYR130      0.0417
     81  CZ        23.4860  -20.5190  -18.5160 C.ar  130  TYR130      0.1957
     82  OH        23.7940  -19.2750  -19.0260 O.3   130  TYR130     -0.2866
     83  N         22.5460  -22.1970  -14.1120 N.am  131  HIS131     -0.1961
     84  CA        21.7170  -21.1580  -13.4590 C.3   131  HIS131      0.1787
     85  C         22.0050  -19.7710  -14.0060 C.2   131  HIS131      0.2621
     86  O         21.4750  -18.7870  -13.4740 O.2   131  HIS131     -0.2715
     87  CB        21.9540  -21.2200  -11.9670 C.3   131  HIS131      0.0785
     88  CG        21.5150  -22.4890  -11.3690 C.ar  131  HIS131      0.0821
     89  ND1       20.1900  -22.8060  -11.2230 N.ar  131  HIS131     -0.2267
     90  CD2       22.2140  -23.5800  -10.9530 C.ar  131  HIS131      0.1154
     91  CE1       20.0840  -24.0000  -10.6560 C.ar  131  HIS131      0.1986
     92  NE2       21.2970  -24.5180  -10.5540 N.ar  131  HIS131     -0.2212
     93  N         22.8580  -19.6880  -15.0270 N.am  132  GLY132     -0.1940
     94  CA        23.1420  -18.3800  -15.6710 C.3   132  GLY132      0.2014
     95  C         24.5490  -18.1220  -16.0060 C.2   132  GLY132      0.2638
     96  O         25.4390  -18.9770  -15.8200 O.2   132  GLY132     -0.2714
     97  N         24.8100  -16.9280  -16.4670 N.am  133  ASN133     -0.1972
     98  CA        26.0410  -16.6520  -17.2460 C.3   133  ASN133      0.1688
     99  C         26.9850  -15.5650  -16.7360 C.2   133  ASN133      0.2292
    100  O         27.8340  -15.0580  -17.5120 O.2   133  ASN133     -0.2864
    101  CB        25.5920  -16.2790  -18.7040 C.3   133  ASN133      0.1181
    102  CG        24.6680  -15.1100  -18.7170 C.2   133  ASN133      0.2629
    103  OD1       24.8540  -14.1580  -17.9360 O.2   133  ASN133     -0.2716
    104  ND2       23.6580  -15.1510  -19.5860 N.am  133  ASN133     -0.0877
    105  N         16.9200  -26.1240   -9.4590 N.3   201  ASP201     -0.1239
    106  CA        15.7410  -26.1230  -10.3380 C.3   201  ASP201      0.1674
    107  C         14.8420  -27.2580   -9.8520 C.2   201  ASP201      0.2266
    108  O         15.2080  -28.4110   -9.9670 O.2   201  ASP201     -0.2867
    109  CB        16.1490  -26.3120  -11.7970 C.3   201  ASP201      0.1410
    110  CG        15.0040  -26.8100  -12.7390 C.2   201  ASP201      0.3668
    111  OD1       13.7990  -26.6450  -12.3980 O.co2 201  ASP201     -0.2456
    112  OD2       15.3390  -27.4090  -13.7860 O.co2 201  ASP201     -0.2456
    113  N         17.6990  -29.7330  -16.5670 N.3   206  THR206     -0.1218
    114  CA        19.0060  -29.8700  -17.1920 C.3   206  THR206      0.1862
    115  C         19.6990  -31.1970  -16.8260 C.2   206  THR206      0.2287
    116  O         20.3470  -31.7940  -17.6910 O.2   206  THR206     -0.2866
    117  CB        19.9060  -28.6970  -16.7700 C.3   206  THR206      0.1770
    118  OG1       19.2460  -27.5170  -17.2310 O.3   206  THR206     -0.2211
    119  CG2       21.2400  -28.7080  -17.4690 C.3   206  THR206      0.0375
    120  N         15.2470  -21.9040   -8.0160 N.3   234  ASP234     -0.1239
    121  CA        15.3700  -21.2910   -9.3490 C.3   234  ASP234      0.1674
    122  C         14.1570  -21.7860  -10.1410 C.2   234  ASP234      0.2266
    123  O         14.0850  -22.9260  -10.4980 O.2   234  ASP234     -0.2867
    124  CB        16.6740  -21.7310   -9.9810 C.3   234  ASP234      0.1410
    125  CG        16.8630  -21.1970  -11.3960 C.2   234  ASP234      0.3668
    126  OD1       15.8790  -20.7890  -12.0440 O.co2 234  ASP234     -0.2456
    127  OD2       18.0390  -21.1690  -11.8600 O.co2 234  ASP234     -0.2456
    128  N         13.1130  -20.5830  -13.1340 N.3   236  VAL236     -0.1231
    129  CA        13.1550  -20.1630  -14.5220 C.3   236  VAL236      0.1692
    130  C         12.5130  -21.2510  -15.4210 C.2   236  VAL236      0.2591
    131  O         11.8370  -20.9410  -16.3870 O.2   236  VAL236     -0.2718
    132  CB        14.5870  -19.8340  -14.9480 C.3   236  VAL236      0.0266
    133  CG1       14.7070  -19.7190  -16.4000 C.3   236  VAL236      0.0020
    134  CG2       15.0720  -18.5640  -14.2570 C.3   236  VAL236      0.0020
    135  N         12.6980  -22.5200  -15.0880 N.am  237  GLN237     -0.1979
    136  CA        12.1060  -23.6230  -15.8340 C.3   237  GLN237      0.1601
    137  C         10.7660  -24.1000  -15.2400 C.2   237  GLN237      0.2287
    138  O          9.9110  -24.6000  -16.0390 O.2   237  GLN237     -0.2864
    139  CB        13.0350  -24.8630  -15.8530 C.3   237  GLN237      0.0394
    140  CG        14.3490  -24.6190  -16.5230 C.3   237  GLN237      0.0908
    141  CD        14.2560  -24.4220  -17.9960 C.2   237  GLN237      0.2608
    142  OE1       13.3100  -24.8440  -18.6250 O.2   237  GLN237     -0.2717
    143  NE2       15.2240  -23.7120  -18.5660 N.am  237  GLN237     -0.0878
    144  N         12.5880  -16.2640  -17.6140 N.3   264  LYS264     -0.1245
    145  CA        11.8930  -16.7130  -18.8830 C.3   264  LYS264      0.1561
    146  C         10.4910  -16.2060  -19.2380 C.2   264  LYS264      0.2260
    147  O         10.3320  -15.1060  -19.7770 O.2   264  LYS264     -0.2867
    148  CB        12.0920  -18.1990  -19.1010 C.3   264  LYS264      0.0271
    149  CG        13.5160  -18.5050  -19.6050 C.3   264  LYS264      0.0035
    150  CD        13.8270  -19.9980  -19.5810 C.3   264  LYS264      0.0206
    151  CE        15.2970  -20.3040  -19.9390 C.3   264  LYS264      0.1093
    152  NZ        15.8400  -20.0870  -21.3040 N.3   264  LYS264     -0.1314
    153  N         12.8890  -33.2920  -24.3870 N.3   395  LYS395     -0.1245
    154  CA        12.3650  -32.2230  -23.5450 C.3   395  LYS395      0.1561
    155  C         11.2020  -31.5330  -24.3260 C.2   395  LYS395      0.2260
    156  O         11.4400  -30.9240  -25.3810 O.2   395  LYS395     -0.2867
    157  CB        13.4530  -31.1850  -23.2460 C.3   395  LYS395      0.0271
    158  CG        12.9870  -29.7460  -22.8840 C.3   395  LYS395      0.0035
    159  CD        13.9650  -29.0000  -21.9810 C.3   395  LYS395      0.0206
    160  CE        14.6870  -27.7900  -22.4840 C.3   395  LYS395      0.1093
    161  NZ        15.4130  -27.1060  -21.3120 N.3   395  LYS395     -0.1314
    162  N          8.0500  -28.8110  -23.7580 N.3   397  ARG397     -0.1245
    163  CA         7.8640  -27.6750  -22.8230 C.3   397  ARG397      0.1563
    164  C          7.2270  -26.5780  -23.5980 C.2   397  ARG397      0.2260
    165  O          7.8520  -25.5380  -23.8070 O.2   397  ARG397     -0.2867
    166  CB         9.1940  -27.2690  -22.2330 C.3   397  ARG397      0.0307
    167  CG         9.1650  -26.1970  -21.1360 C.3   397  ARG397      0.0489
    168  CD        10.5730  -25.5880  -20.9730 C.3   397  ARG397      0.2205
    169  NE        11.0910  -25.0840  -22.2100 N.pl3 397  ARG397     -0.0865
    170  CZ        12.3210  -24.5790  -22.3510 C.cat 397  ARG397      0.5346
    171  NH1       13.1250  -24.4000  -21.2880 N.pl3 397  ARG397      0.1354
    172  NH2       12.7590  -24.2110  -23.5590 N.pl3 397  ARG397      0.1354
@<TRIPOS>BOND
     1     4     3    2
     2     3     2    1
     3     2     1    1
     4     2     5    1
     5     5     6    1
     6     6     8   ar
     7     6     7   ar
     8     8    10   ar
     9     7     9   ar
    10    10    11   ar
    11    31    29   am
    12     9    11   ar
    13    29    30    2
    14    29    28    1
    15    16    17    1
    16    16    13    1
    17    12    13    1
    18    28    25    1
    19    19    17   ar
    20    19    21   ar
    21    17    18   ar
    22    13    14    1
    23    24    14   am
    24    24    25    1
    25    21    22   ar
    26    18    20   ar
    27    14    15    2
    28    25    26    1
    29    22    20   ar
    30    22    23    1
    31   156   155    2
    32    27    26    2
    33    26    32   am
    34   153   154    1
    35   155   154    1
    36    45    44    1
    37   165   164    2
    38   162   163    1
    39    44    46    1
    40    44    41    1
    41    32    33    1
    42   164   163    1
    43   172   170    1
    44   154   157    1
    45    42    41    1
    46    42    43    2
    47   157   158    1
    48    40    41    1
    49    40    34   am
    50   158   159    1
    51   163   166    1
    52    33    34    1
    53    33    36    1
    54   160   159    1
    55   160   161    1
    56    34    35    2
    57   170   169    2
    58   170   171    1
    59   166   167    1
    60   169   168    1
    61    38    37    2
    62   152   151    1
    63    36    37    1
    64   167   168    1
    65    37    39   am
    66   151   150    1
    67   147   146    2
    68   149   150    1
    69   149   148    1
    70   104   102   am
    71   146   145    1
    72   148   145    1
    73    82    81    1
    74   145   144    1
    75   102   101    1
    76   102   103    2
    77   101    98    1
    78   142   141    2
    79   143   141   am
    80    81    80   ar
    81    81    79   ar
    82    80    78   ar
    83   141   140    1
    84    78    76   ar
    85    79    77   ar
    86   116   115    2
    87   100    99    2
    88   119   117    1
    89    51    48    1
    90    51    52    1
    91    77    76   ar
    92    76    75    1
    93    98    99    1
    94    98    97    1
    95   118   117    1
    96   114   115    1
    97   114   117    1
    98   114   113    1
    99    75    72    1
   100    48    47    1
   101    48    49    1
   102    62    61    1
   103   140   139    1
   104    97    95   am
   105   133   132    1
   106   131   130    2
   107   138   137    2
   108    95    96    2
   109    95    94    1
   110   139   136    1
   111    53    49   am
   112    53    54    1
   113   136   137    1
   114   136   135    1
   115    61    58    1
   116    94    93    1
   117    49    50    2
   118   130   135   am
   119   130   129    1
   120    72    73    1
   121    72    71    1
   122    57    58    1
   123    57    55   am
   124    93    85   am
   125   132   129    1
   126   132   134    1
   127    54    55    1
   128    74    73    2
   129    73    83   am
   130    58    59    1
   131   129   128    1
   132    55    56    2
   133    83    84    1
   134    85    86    2
   135    85    84    1
   136   112   110   ar
   137    59    60    2
   138    84    87    1
   139   110   111   ar
   140   110   109    1
   141   126   125   ar
   142    87    88    1
   143   127   125   ar
   144   109   106    1
   145    70    68   am
   146   125   124    1
   147    88    89   ar
   148    88    90   ar
   149    89    91   ar
   150    90    92   ar
   151    91    92   ar
   152   123   122    2
   153    68    67    1
   154    68    69    2
   155    67    64    1
   156   106   107    1
   157   106   105    1
   158    63    64    1
   159   122   121    1
   160   124   121    1
   161   108   107    2
   162    64    65    1
   163   121   120    1
   164    65    66    2
