@<TRIPOS>MOLECULE
tmp/5g4mB00.pdb
 132 133 0 0 0
SMALL
GASTEIGER

@<TRIPOS>ATOM
      1  N        133.8540  104.6970  -40.9610 N.3    16  PHE16      -0.1241
      2  CA       133.0890  103.7510  -40.1580 C.3    16  PHE16       0.1605
      3  C        133.4850  103.8250  -38.6870 C.2    16  PHE16       0.2264
      4  O        134.6770  103.8090  -38.3540 O.2    16  PHE16      -0.2867
      5  CB       133.3760  102.3450  -40.6770 C.3    16  PHE16       0.0534
      6  CG       132.7400  101.2600  -39.8670 C.ar   16  PHE16      -0.0203
      7  CD1      131.3670  101.0770  -39.9040 C.ar   16  PHE16      -0.0042
      8  CD2      133.5120  100.4130  -39.0780 C.ar   16  PHE16      -0.0042
      9  CE1      130.7630  100.0760  -39.1600 C.ar   16  PHE16      -0.0003
     10  CE2      132.9190   99.4000  -38.3360 C.ar   16  PHE16      -0.0003
     11  CZ       131.5400   99.2370  -38.3760 C.ar   16  PHE16      -0.0000
     12  N        125.9210  101.5830  -35.9900 N.3    52  LEU52      -0.1231
     13  CA       126.9120  101.7120  -37.0460 C.3    52  LEU52       0.1693
     14  C        126.7630  103.0930  -37.6640 C.2    52  LEU52       0.2592
     15  O        125.6700  103.4650  -38.1010 O.2    52  LEU52      -0.2718
     16  CB       126.6950  100.6390  -38.1200 C.3    52  LEU52       0.0284
     17  CG       126.5000   99.1980  -37.6260 C.3    52  LEU52       0.0019
     18  CD1      126.2390   98.2750  -38.8120 C.3    52  LEU52       0.0001
     19  CD2      127.6970   98.7320  -36.8060 C.3    52  LEU52       0.0001
     20  N        127.8600  103.8430  -37.6970 N.am   53  TRP53      -0.1962
     21  CA       127.9070  105.1830  -38.2670 C.3    53  TRP53       0.1771
     22  C        128.9250  105.2180  -39.3990 C.2    53  TRP53       0.2619
     23  O        130.0150  104.6560  -39.2740 O.2    53  TRP53      -0.2715
     24  CB       128.3430  106.1890  -37.1950 C.3    53  TRP53       0.0590
     25  CG       127.3490  106.3610  -36.0850 C.ar   53  TRP53       0.0006
     26  CD1      127.2780  105.6450  -34.9250 C.ar   53  TRP53       0.0946
     27  CD2      126.2820  107.3090  -36.0370 C.ar   53  TRP53       0.0152
     28  NE1      126.2220  106.0910  -34.1510 N.ar   53  TRP53      -0.2442
     29  CE2      125.5970  107.1130  -34.8160 C.ar   53  TRP53       0.0810
     30  CE3      125.8360  108.3050  -36.9110 C.ar   53  TRP53       0.0012
     31  CZ2      124.4910  107.8740  -34.4540 C.ar   53  TRP53       0.0191
     32  CZ3      124.7430  109.0620  -36.5480 C.ar   53  TRP53       0.0001
     33  CH2      124.0790  108.8400  -35.3340 C.ar   53  TRP53       0.0015
     34  N        128.5710  105.8790  -40.5070 N.am   54  VAL54      -0.1963
     35  CA       129.5090  106.1530  -41.5920 C.3    54  VAL54       0.1727
     36  C        129.3160  107.5880  -42.0570 C.2    54  VAL54       0.2616
     37  O        128.2390  108.1700  -41.9050 O.2    54  VAL54      -0.2715
     38  CB       129.3430  105.2050  -42.7970 C.3    54  VAL54       0.0290
     39  CG1      129.8330  103.8150  -42.4470 C.3    54  VAL54       0.0023
     40  CG2      127.9040  105.1720  -43.2250 C.3    54  VAL54       0.0023
     41  N        130.3760  108.1540  -42.6360 N.am   55  ASP55      -0.1957
     42  CA       130.3010  109.4830  -43.2350 C.3    55  ASP55       0.1840
     43  C        129.7910  109.4510  -44.6650 C.2    55  ASP55       0.2623
     44  O        129.3120  110.4760  -45.1660 O.2    55  ASP55      -0.2715
     45  CB       131.6810  110.1360  -43.2470 C.3    55  ASP55       0.1450
     46  CG       132.1870  110.4540  -41.8620 C.2    55  ASP55       0.3671
     47  OD1      131.3670  110.7890  -40.9800 O.co2  55  ASP55      -0.2456
     48  OD2      133.4160  110.3820  -41.6640 O.co2  55  ASP55      -0.2456
     49  N        129.9210  108.3190  -45.3450 N.am   56  SER56      -0.1936
     50  CA       129.4190  108.1890  -46.7000 C.3    56  SER56       0.2055
     51  C        128.8840  106.7770  -46.8870 C.2    56  SER56       0.2644
     52  O        129.2640  105.8440  -46.1760 O.2    56  SER56      -0.2714
     53  CB       130.4830  108.5410  -47.7510 C.3    56  SER56       0.2130
     54  OG       131.6610  107.7820  -47.5670 O.3    56  SER56      -0.2179
     55  N        128.0010  106.6410  -47.8660 N.am   57  THR57      -0.1937
     56  CA       127.2180  105.4280  -48.0470 C.3    57  THR57       0.2013
     57  C        128.0770  104.3340  -48.6740 C.2    57  THR57       0.2484
     58  O        128.5940  104.5250  -49.7800 O.2    57  THR57      -0.2729
     59  CB       126.0390  105.7470  -48.9580 C.3    57  THR57       0.1807
     60  OG1      125.1280  106.6140  -48.2650 O.3    57  THR57      -0.2208
     61  CG2      125.3240  104.4790  -49.4020 C.3    57  THR57       0.0379
     62  N        128.2580  103.1930  -48.0160 N.am   58  PRO58      -0.2726
     63  CA       128.9940  102.0860  -48.6390 C.3    58  PRO58       0.1402
     64  C        128.1470  101.3800  -49.6850 C.2    58  PRO58       0.2269
     65  O        126.9130  101.5060  -49.6940 O.2    58  PRO58      -0.2865
     66  CB       129.3100  101.1630  -47.4520 C.3    58  PRO58       0.0296
     67  CG       128.2420  101.4480  -46.4660 C.3    58  PRO58       0.0237
     68  CD       127.8480  102.8900  -46.6320 C.3    58  PRO58       0.0939
     69  N        124.9470   95.1190  -44.4070 N.3   127  CYS127     -0.1221
     70  CA       124.9880   96.4650  -43.8330 C.3   127  CYS127      0.1808
     71  C        123.9550   97.3160  -44.5580 C.2   127  CYS127      0.2601
     72  O        124.1760   97.7490  -45.6910 O.2   127  CYS127     -0.2717
     73  CB       126.3820   97.0670  -43.9540 C.3   127  CYS127      0.0970
     74  SG       126.6260   98.5100  -42.8940 S.3   127  CYS127     -0.0800
     75  N        122.8270   97.5650  -43.8990 N.am  128  GLU128     -0.1966
     76  CA       121.6990   98.2480  -44.5040 C.3   128  GLU128      0.1718
     77  C        121.7020   99.7230  -44.1230 C.2   128  GLU128      0.2458
     78  O        122.2370  100.0990  -43.0750 O.2   128  GLU128     -0.2730
     79  CB       120.3840   97.6200  -44.0250 C.3   128  GLU128      0.0428
     80  CG       120.1490   96.1910  -44.5000 C.3   128  GLU128      0.1163
     81  CD       119.9140   96.1000  -45.9970 C.2   128  GLU128      0.3649
     82  OE1      119.4540   97.0970  -46.5910 O.co2 128  GLU128     -0.2457
     83  OE2      120.1880   95.0310  -46.5840 O.co2 128  GLU128     -0.2457
     84  N        121.1260  100.5830  -44.9590 N.am  129  PRO129     -0.2716
     85  CA       121.0290  102.0050  -44.6170 C.3   129  PRO129      0.1521
     86  C        120.1070  102.2120  -43.4300 C.2   129  PRO129      0.2440
     87  O        119.2900  101.3360  -43.1050 O.2   129  PRO129     -0.2731
     88  CB       120.4340  102.6290  -45.8890 C.3   129  PRO129      0.0310
     89  CG       120.7900  101.6780  -46.9780 C.3   129  PRO129      0.0237
     90  CD       120.7210  100.3220  -46.3500 C.3   129  PRO129      0.0939
     91  N        120.2130  103.3540  -42.7510 N.am  130  PRO130     -0.2727
     92  CA       119.3220  103.6270  -41.6170 C.3   130  PRO130      0.1402
     93  C        117.8620  103.6250  -42.0420 C.2   130  PRO130      0.2269
     94  O        117.5240  103.9400  -43.1850 O.2   130  PRO130     -0.2865
     95  CB       119.7580  105.0240  -41.1570 C.3   130  PRO130      0.0296
     96  CG       121.1940  105.1120  -41.5670 C.3   130  PRO130      0.0237
     97  CD       121.2800  104.3610  -42.8730 C.3   130  PRO130      0.0939
     98  N        115.9530  107.9400  -38.9340 N.3   134  SER134     -0.1202
     99  CA       117.0770  107.5460  -38.0990 C.3   134  SER134      0.2020
    100  C        118.3650  107.9370  -38.8080 C.2   134  SER134      0.2619
    101  O        118.4270  107.9630  -40.0400 O.2   134  SER134     -0.2717
    102  CB       117.0670  106.0400  -37.8030 C.3   134  SER134      0.2103
    103  OG       118.1460  105.6840  -36.9570 O.3   134  SER134     -0.2182
    104  N        119.3930  108.2550  -38.0180 N.am  135  ASP135     -0.1959
    105  CA       120.6700  108.6960  -38.5620 C.3   135  ASP135      0.1840
    106  C        121.7120  107.5900  -38.6190 C.2   135  ASP135      0.2622
    107  O        122.7870  107.7970  -39.1870 O.2   135  ASP135     -0.2715
    108  CB       121.2260  109.8670  -37.7430 C.3   135  ASP135      0.1450
    109  CG       120.4690  111.1570  -37.9760 C.2   135  ASP135      0.3671
    110  OD1      119.9690  111.3710  -39.1010 O.co2 135  ASP135     -0.2456
    111  OD2      120.3770  111.9560  -37.0250 O.co2 135  ASP135     -0.2456
    112  N        121.4350  106.4310  -38.0420 N.am  136  CYS136     -0.1954
    113  CA       122.3980  105.3460  -38.0490 C.3   136  CYS136      0.1843
    114  C        121.6460  104.0340  -38.1580 C.2   136  CYS136      0.2626
    115  O        120.4180  103.9850  -38.0640 O.2   136  CYS136     -0.2714
    116  CB       123.2740  105.3690  -36.7920 C.3   136  CYS136      0.0997
    117  SG       122.3750  105.0380  -35.2540 S.3   136  CYS136     -0.0797
    118  N        122.4010  102.9660  -38.3590 N.am  137  THR137     -0.1950
    119  CA       121.8550  101.6220  -38.3830 C.3   137  THR137      0.1897
    120  C        122.2420  100.9330  -37.0860 C.2   137  THR137      0.2313
    121  O        123.3500  101.1250  -36.5810 O.2   137  THR137     -0.2863
    122  CB       122.4300  100.8570  -39.5720 C.3   137  THR137      0.1794
    123  OG1      122.0590  101.5420  -40.7750 O.3   137  THR137     -0.2208
    124  CG2      121.9000   99.4300  -39.6060 C.3   137  THR137      0.0378
    125  N        133.5340   96.2280  -40.9570 N.3   164  LEU164     -0.1245
    126  CA       132.7840   96.5140  -42.1690 C.3   164  LEU164      0.1561
    127  C        133.5470   95.8980  -43.3340 C.2   164  LEU164      0.2260
    128  O        134.7600   96.0890  -43.4450 O.2   164  LEU164     -0.2867
    129  CB       132.6930   98.0300  -42.3340 C.3   164  LEU164      0.0270
    130  CG       131.7210   98.5400  -43.3940 C.3   164  LEU164      0.0019
    131  CD1      130.2810   98.2950  -42.9550 C.3   164  LEU164      0.0001
    132  CD2      131.9700  100.0210  -43.7050 C.3   164  LEU164      0.0001
@<TRIPOS>BOND
     1    58    57    2
     2    65    64    2
     3    64    63    1
     4    61    59    1
     5    59    60    1
     6    59    56    1
     7    57    56    1
     8    57    62   am
     9    63    62    1
    10    63    66    1
    11    56    55    1
    12    62    68    1
    13    55    51   am
    14    53    54    1
    15    53    50    1
    16    66    67    1
    17    89    90    1
    18    89    88    1
    19    51    50    1
    20    51    52    2
    21    50    49    1
    22    68    67    1
    23    82    81   ar
    24    83    81   ar
    25    90    84    1
    26    81    80    1
    27    88    85    1
    28    72    71    2
    29    49    43   am
    30    44    43    2
    31    84    85    1
    32    84    77   am
    33    43    42    1
    34    85    86    1
    35    71    75   am
    36    71    70    1
    37    76    77    1
    38    76    79    1
    39    76    75    1
    40    80    79    1
    41    69    70    1
    42    77    78    2
    43    73    70    1
    44    73    74    1
    45   132   130    1
    46   128   127    2
    47    86    87    2
    48    86    91   am
    49   130   131    1
    50   130   129    1
    51   127   126    1
    52    45    42    1
    53    45    46    1
    54    42    41    1
    55    40    38    1
    56    94    93    2
    57    97    91    1
    58    97    96    1
    59    38    39    1
    60    38    35    1
    61    91    92    1
    62    41    36   am
    63   129   126    1
    64   126   125    1
    65    36    37    2
    66    36    35    1
    67    93    92    1
    68    46    48   ar
    69    46    47   ar
    70    92    95    1
    71    35    34    1
    72    96    95    1
    73     1     2    1
    74   123   122    1
    75     5     2    1
    76     5     6    1
    77    34    22   am
    78     2     3    1
    79   101   100    2
    80     7     6   ar
    81     7     9   ar
    82     6     8   ar
    83   124   122    1
    84   122   119    1
    85    22    23    2
    86    22    21    1
    87   107   106    2
    88     9    11   ar
    89   110   109   ar
    90     8    10   ar
    91    98    99    1
    92    18    17    1
    93   100    99    1
    94   100   104   am
    95     3     4    2
    96   106   105    1
    97   106   112   am
    98   105   104    1
    99   105   108    1
   100   119   118    1
   101   119   120    1
   102    11    10   ar
   103   118   114   am
   104    21    20    1
   105    21    24    1
   106   114   115    2
   107   114   113    1
   108    16    17    1
   109    16    13    1
   110    15    14    2
   111    99   102    1
   112   113   112    1
   113   113   116    1
   114   109   108    1
   115   109   111   ar
   116   102   103    1
   117    20    14   am
   118    14    13    1
   119    17    19    1
   120    24    25    1
   121   120   121    2
   122    13    12    1
   123    30    32   ar
   124    30    27   ar
   125   116   117    1
   126    32    33   ar
   127    25    27   ar
   128    25    26   ar
   129    27    29   ar
   130    33    31   ar
   131    26    28   ar
   132    29    31   ar
   133    29    28   ar
