@<TRIPOS>MOLECULE
tmp/5g4nB00.pdb
 113 115 0 0 0
SMALL
GASTEIGER

@<TRIPOS>ATOM
      1  N        125.9330  101.6540  -35.9890 N.3    52  LEU52      -0.1231
      2  CA       126.9270  101.7660  -37.0430 C.3    52  LEU52       0.1693
      3  C        126.7860  103.1380  -37.6790 C.2    52  LEU52       0.2592
      4  O        125.6950  103.5050  -38.1270 O.2    52  LEU52      -0.2718
      5  CB       126.7150  100.6820  -38.1030 C.3    52  LEU52       0.0284
      6  CG       126.5300   99.2490  -37.5950 C.3    52  LEU52       0.0019
      7  CD1      126.2330   98.3350  -38.7700 C.3    52  LEU52       0.0001
      8  CD2      127.7500   98.7710  -36.8200 C.3    52  LEU52       0.0001
      9  N        127.8880  103.8750  -37.7220 N.am   53  TRP53      -0.1962
     10  CA       127.9320  105.2170  -38.2840 C.3    53  TRP53       0.1771
     11  C        128.9440  105.2530  -39.4210 C.2    53  TRP53       0.2619
     12  O        130.0300  104.6780  -39.3120 O.2    53  TRP53      -0.2715
     13  CB       128.3590  106.2270  -37.2000 C.3    53  TRP53       0.0590
     14  CG       127.3610  106.4050  -36.0920 C.ar   53  TRP53       0.0006
     15  CD1      127.2860  105.6910  -34.9230 C.ar   53  TRP53       0.0946
     16  CD2      126.2880  107.3520  -36.0520 C.ar   53  TRP53       0.0152
     17  NE1      126.2330  106.1530  -34.1520 N.ar   53  TRP53      -0.2442
     18  CE2      125.6030  107.1650  -34.8290 C.ar   53  TRP53       0.0810
     19  CE3      125.8330  108.3360  -36.9370 C.ar   53  TRP53       0.0012
     20  CZ2      124.4910  107.9240  -34.4740 C.ar   53  TRP53       0.0191
     21  CZ3      124.7370  109.0920  -36.5790 C.ar   53  TRP53       0.0001
     22  CH2      124.0730  108.8770  -35.3610 C.ar   53  TRP53       0.0015
     23  N        128.5900  105.9390  -40.5150 N.am   54  VAL54      -0.1963
     24  CA       129.5230  106.2210  -41.6010 C.3    54  VAL54       0.1727
     25  C        129.3230  107.6570  -42.0630 C.2    54  VAL54       0.2616
     26  O        128.2470  108.2390  -41.9110 O.2    54  VAL54      -0.2715
     27  CB       129.3840  105.2780  -42.8160 C.3    54  VAL54       0.0290
     28  CG1      129.9000  103.8850  -42.4770 C.3    54  VAL54       0.0023
     29  CG2      127.9430  105.2300  -43.2710 C.3    54  VAL54       0.0023
     30  N        130.3840  108.2240  -42.6450 N.am   55  ASP55      -0.1957
     31  CA       130.3060  109.5500  -43.2530 C.3    55  ASP55       0.1840
     32  C        129.7900  109.5160  -44.6820 C.2    55  ASP55       0.2623
     33  O        129.2960  110.5360  -45.1750 O.2    55  ASP55      -0.2715
     34  CB       131.6860  110.2060  -43.2750 C.3    55  ASP55       0.1450
     35  CG       132.2090  110.5120  -41.8910 C.2    55  ASP55       0.3671
     36  OD1      131.4020  110.8800  -41.0080 O.co2  55  ASP55      -0.2456
     37  OD2      133.4380  110.4040  -41.6960 O.co2  55  ASP55      -0.2456
     38  N        129.9290  108.3890  -45.3690 N.am   56  SER56      -0.1936
     39  CA       129.4340  108.2480  -46.7280 C.3    56  SER56       0.2055
     40  C        128.8970  106.8380  -46.9120 C.2    56  SER56       0.2644
     41  O        129.2760  105.9060  -46.1980 O.2    56  SER56      -0.2714
     42  CB       130.5060  108.5900  -47.7740 C.3    56  SER56       0.2130
     43  OG       131.6870  107.8420  -47.5650 O.3    56  SER56      -0.2179
     44  N        128.0120  106.7020  -47.8890 N.am   57  THR57      -0.1937
     45  CA       127.2390  105.4820  -48.0900 C.3    57  THR57       0.2013
     46  C        128.1110  104.3860  -48.6930 C.2    57  THR57       0.2484
     47  O        128.6430  104.5700  -49.7930 O.2    57  THR57      -0.2729
     48  CB       126.0880  105.7960  -49.0430 C.3    57  THR57       0.1807
     49  OG1      125.1720  106.6980  -48.4020 O.3    57  THR57      -0.2208
     50  CG2      125.3600  104.5280  -49.4730 C.3    57  THR57       0.0379
     51  N        128.2760  103.2440  -48.0280 N.am   58  PRO58      -0.2726
     52  CA       129.0030  102.1220  -48.6420 C.3    58  PRO58       0.1402
     53  C        128.1520  101.4260  -49.6920 C.2    58  PRO58       0.2269
     54  O        126.9200  101.5580  -49.6960 O.2    58  PRO58      -0.2865
     55  CB       129.2820  101.1950  -47.4500 C.3    58  PRO58       0.0296
     56  CG       128.1780  101.4720  -46.5050 C.3    58  PRO58       0.0237
     57  CD       127.8340  102.9340  -46.6550 C.3    58  PRO58       0.0939
     58  N        124.9650   95.0920  -44.4450 N.3   127  CYS127     -0.1221
     59  CA       124.9530   96.4760  -43.9990 C.3   127  CYS127      0.1808
     60  C        123.7820   97.1730  -44.6750 C.2   127  CYS127      0.2601
     61  O        123.7500   97.2900  -45.9060 O.2   127  CYS127     -0.2717
     62  CB       126.2690   97.1360  -44.4080 C.3   127  CYS127      0.0970
     63  SG       126.4700   98.8380  -43.9130 S.3   127  CYS127     -0.0800
     64  N        122.8100   97.5950  -43.8850 N.am  128  GLU128     -0.1966
     65  CA       121.6340   98.2700  -44.4100 C.3   128  GLU128      0.1718
     66  C        121.6830   99.7560  -44.0770 C.2   128  GLU128      0.2458
     67  O        122.2540  100.1470  -43.0570 O.2   128  GLU128     -0.2730
     68  CB       120.3700   97.6840  -43.7790 C.3   128  GLU128      0.0428
     69  CG       120.0590   96.2620  -44.1920 C.3   128  GLU128      0.1163
     70  CD       119.5120   96.1880  -45.5970 C.2   128  GLU128      0.3649
     71  OE1      118.5670   96.9460  -45.9020 O.co2 128  GLU128     -0.2457
     72  OE2      120.0280   95.3790  -46.3990 O.co2 128  GLU128     -0.2457
     73  N        121.0900  100.6070  -44.9090 N.am  129  PRO129     -0.2716
     74  CA       120.9860  102.0280  -44.5630 C.3   129  PRO129      0.1521
     75  C        120.0580  102.2330  -43.3790 C.2   129  PRO129      0.2440
     76  O        119.2410  101.3580  -43.0540 O.2   129  PRO129     -0.2731
     77  CB       120.4030  102.6650  -45.8360 C.3   129  PRO129      0.0310
     78  CG       119.8040  101.5460  -46.5950 C.3   129  PRO129      0.0237
     79  CD       120.6200  100.3370  -46.2780 C.3   129  PRO129      0.0939
     80  N        120.1670  103.3730  -42.7000 N.am  130  PRO130     -0.2727
     81  CA       119.2800  103.6460  -41.5650 C.3   130  PRO130      0.1402
     82  C        117.8170  103.6490  -41.9800 C.2   130  PRO130      0.2269
     83  O        117.4730  103.9400  -43.1270 O.2   130  PRO130     -0.2865
     84  CB       119.7210  105.0410  -41.1060 C.3   130  PRO130      0.0296
     85  CG       121.1560  105.1330  -41.5230 C.3   130  PRO130      0.0237
     86  CD       121.2430  104.3720  -42.8220 C.3   130  PRO130      0.0939
     87  N        115.9560  107.9520  -38.8950 N.3   134  SER134     -0.1202
     88  CA       117.0890  107.5650  -38.0710 C.3   134  SER134      0.2020
     89  C        118.3720  107.9650  -38.7840 C.2   134  SER134      0.2619
     90  O        118.4280  108.0060  -40.0160 O.2   134  SER134     -0.2717
     91  CB       117.0940  106.0560  -37.7800 C.3   134  SER134      0.2103
     92  OG       118.2320  105.6900  -37.0200 O.3   134  SER134     -0.2182
     93  N        119.4060  108.2690  -37.9970 N.am  135  ASP135     -0.1959
     94  CA       120.6760  108.7210  -38.5450 C.3   135  ASP135      0.1840
     95  C        121.7260  107.6230  -38.6110 C.2   135  ASP135      0.2622
     96  O        122.8030  107.8460  -39.1690 O.2   135  ASP135     -0.2715
     97  CB       121.2300  109.8910  -37.7220 C.3   135  ASP135      0.1450
     98  CG       120.4860  111.1860  -37.9680 C.2   135  ASP135      0.3671
     99  OD1      119.9560  111.3700  -39.0820 O.co2 135  ASP135     -0.2456
    100  OD2      120.4390  112.0220  -37.0420 O.co2 135  ASP135     -0.2456
    101  N        121.4520  106.4540  -38.0490 N.am  136  CYS136     -0.1954
    102  CA       122.4250  105.3770  -38.0590 C.3   136  CYS136      0.1843
    103  C        121.6710  104.0670  -38.1670 C.2   136  CYS136      0.2626
    104  O        120.4440  104.0170  -38.0690 O.2   136  CYS136     -0.2714
    105  CB       123.2980  105.4010  -36.8020 C.3   136  CYS136      0.0997
    106  SG       122.3950  105.0910  -35.2620 S.3   136  CYS136     -0.0797
    107  N        122.4260  103.0050  -38.3790 N.am  137  THR137     -0.1950
    108  CA       121.8830  101.6590  -38.3990 C.3   137  THR137      0.1897
    109  C        122.2550  100.9870  -37.0890 C.2   137  THR137      0.2313
    110  O        123.3440  101.2120  -36.5580 O.2   137  THR137     -0.2863
    111  CB       122.4770  100.8960  -39.5800 C.3   137  THR137      0.1794
    112  OG1      122.1250  101.5920  -40.7840 O.3   137  THR137     -0.2208
    113  CG2      121.9380   99.4770  -39.6490 C.3   137  THR137      0.0378
@<TRIPOS>BOND
     1    47    46    2
     2    54    53    2
     3    53    52    1
     4    50    48    1
     5    48    49    1
     6    48    45    1
     7    46    45    1
     8    46    51   am
     9    52    51    1
    10    52    55    1
    11    45    44    1
    12    51    57    1
    13    44    40   am
    14    42    43    1
    15    42    39    1
    16    55    56    1
    17    40    39    1
    18    40    41    2
    19    39    38    1
    20    57    56    1
    21    78    79    1
    22    78    77    1
    23    72    70   ar
    24    79    73    1
    25    61    60    2
    26    71    70   ar
    27    77    74    1
    28    70    69    1
    29    38    32   am
    30    33    32    2
    31    73    74    1
    32    73    66   am
    33    32    31    1
    34    60    59    1
    35    60    64   am
    36    74    75    1
    37    58    59    1
    38    65    66    1
    39    65    64    1
    40    65    68    1
    41    62    59    1
    42    62    63    1
    43    69    68    1
    44    66    67    2
    45    75    76    2
    46    75    80   am
    47    34    31    1
    48    34    35    1
    49    29    27    1
    50    31    30    1
    51    83    82    2
    52    86    80    1
    53    86    85    1
    54    27    28    1
    55    27    24    1
    56    80    81    1
    57    30    25   am
    58    25    26    2
    59    25    24    1
    60    82    81    1
    61    35    37   ar
    62    35    36   ar
    63    24    23    1
    64    81    84    1
    65    85    84    1
    66   112   111    1
    67    23    11   am
    68    90    89    2
    69   113   111    1
    70   111   108    1
    71    11    12    2
    72    11    10    1
    73    96    95    2
    74    99    98   ar
    75    87    88    1
    76    89    88    1
    77    89    93   am
    78     7     6    1
    79    95    94    1
    80    95   101   am
    81    94    93    1
    82    94    97    1
    83   108   107    1
    84   108   109    1
    85   107   103   am
    86    10     9    1
    87    10    13    1
    88   103   104    2
    89   103   102    1
    90     4     3    2
    91     5     6    1
    92     5     2    1
    93    88    91    1
    94   102   101    1
    95   102   105    1
    96    98    97    1
    97    98   100   ar
    98    91    92    1
    99     9     3   am
   100     3     2    1
   101     6     8    1
   102    13    14    1
   103   109   110    2
   104     2     1    1
   105    19    21   ar
   106    19    16   ar
   107   105   106    1
   108    21    22   ar
   109    14    16   ar
   110    14    15   ar
   111    16    18   ar
   112    22    20   ar
   113    15    17   ar
   114    18    20   ar
   115    18    17   ar
