@<TRIPOS>MOLECULE
tmp/5g4oB00.pdb
 133 135 0 0 0
SMALL
GASTEIGER

@<TRIPOS>ATOM
      1  N        133.9880  105.3350  -41.0380 N.3    16  PHE16      -0.1241
      2  CA       133.2330  104.3790  -40.2350 C.3    16  PHE16       0.1605
      3  C        133.6330  104.4550  -38.7640 C.2    16  PHE16       0.2264
      4  O        134.8260  104.4540  -38.4340 O.2    16  PHE16      -0.2867
      5  CB       133.5020  102.9690  -40.7680 C.3    16  PHE16       0.0534
      6  CG       132.8750  101.8800  -39.9440 C.ar   16  PHE16      -0.0203
      7  CD1      131.5000  101.7100  -39.9420 C.ar   16  PHE16      -0.0042
      8  CD2      133.6580  101.0270  -39.1720 C.ar   16  PHE16      -0.0042
      9  CE1      130.9060  100.7240  -39.1820 C.ar   16  PHE16      -0.0003
     10  CE2      133.0750  100.0240  -38.4140 C.ar   16  PHE16      -0.0003
     11  CZ       131.6960   99.8640  -38.4210 C.ar   16  PHE16      -0.0000
     12  N        126.0870  102.2430  -35.9790 N.3    52  LEU52      -0.1231
     13  CA       127.0730  102.3320  -37.0490 C.3    52  LEU52       0.1693
     14  C        126.9240  103.6920  -37.7150 C.2    52  LEU52       0.2592
     15  O        125.8350  104.0290  -38.1930 O.2    52  LEU52      -0.2718
     16  CB       126.8430  101.2250  -38.0820 C.3    52  LEU52       0.0284
     17  CG       126.6690   99.8100  -37.5210 C.3    52  LEU52       0.0019
     18  CD1      126.3430   98.8250  -38.6530 C.3    52  LEU52       0.0001
     19  CD2      127.9220   99.3840  -36.7960 C.3    52  LEU52       0.0001
     20  N        128.0160  104.4580  -37.7580 N.am   53  TRP53      -0.1962
     21  CA       128.0540  105.7950  -38.3400 C.3    53  TRP53       0.1771
     22  C        129.0670  105.8310  -39.4770 C.2    53  TRP53       0.2619
     23  O        130.1460  105.2370  -39.3720 O.2    53  TRP53      -0.2715
     24  CB       128.4980  106.8130  -37.2780 C.3    53  TRP53       0.0590
     25  CG       127.5180  106.9770  -36.1540 C.ar   53  TRP53       0.0006
     26  CD1      127.4480  106.2390  -35.0040 C.ar   53  TRP53       0.0946
     27  CD2      126.4700  107.9480  -36.0700 C.ar   53  TRP53       0.0152
     28  NE1      126.4090  106.6890  -34.2160 N.ar   53  TRP53      -0.2442
     29  CE2      125.7950  107.7350  -34.8500 C.ar   53  TRP53       0.0810
     30  CE3      126.0330  108.9740  -36.9110 C.ar   53  TRP53       0.0012
     31  CZ2      124.7120  108.5130  -34.4530 C.ar   53  TRP53       0.0191
     32  CZ3      124.9560  109.7390  -36.5160 C.ar   53  TRP53       0.0001
     33  CH2      124.3060  109.5040  -35.3040 C.ar   53  TRP53       0.0015
     34  N        128.7180  106.5290  -40.5650 N.am   54  VAL54      -0.1963
     35  CA       129.6520  106.8090  -41.6540 C.3    54  VAL54       0.1727
     36  C        129.4540  108.2460  -42.1090 C.2    54  VAL54       0.2616
     37  O        128.3770  108.8210  -41.9390 O.2    54  VAL54      -0.2715
     38  CB       129.4890  105.8600  -42.8680 C.3    54  VAL54       0.0290
     39  CG1      130.0290  104.4770  -42.5440 C.3    54  VAL54       0.0023
     40  CG2      128.0310  105.7880  -43.2850 C.3    54  VAL54       0.0023
     41  N        130.5070  108.8230  -42.7010 N.am   55  ASP55      -0.1957
     42  CA       130.4010  110.1490  -43.3080 C.3    55  ASP55       0.1840
     43  C        129.8560  110.0840  -44.7280 C.2    55  ASP55       0.2623
     44  O        129.2620  111.0610  -45.2060 O.2    55  ASP55      -0.2715
     45  CB       131.7690  110.8280  -43.3490 C.3    55  ASP55       0.1450
     46  CG       132.3130  111.1370  -41.9750 C.2    55  ASP55       0.3671
     47  OD1      131.5160  111.4860  -41.0760 O.co2  55  ASP55      -0.2456
     48  OD2      133.5470  111.0360  -41.8000 O.co2  55  ASP55      -0.2456
     49  N        130.0770  108.9720  -45.4230 N.am   56  SER56      -0.1936
     50  CA       129.5530  108.7980  -46.7690 C.3    56  SER56       0.2055
     51  C        129.0200  107.3800  -46.9320 C.2    56  SER56       0.2644
     52  O        129.4110  106.4560  -46.2120 O.2    56  SER56      -0.2714
     53  CB       130.5900  109.1440  -47.8500 C.3    56  SER56       0.2130
     54  OG       131.7810  108.3990  -47.6800 O.3    56  SER56      -0.2179
     55  N        128.1320  107.2260  -47.9120 N.am   57  THR57      -0.1937
     56  CA       127.3480  106.0060  -48.0850 C.3    57  THR57       0.2013
     57  C        128.2000  104.9130  -48.7240 C.2    57  THR57       0.2484
     58  O        128.7340  105.1220  -49.8210 O.2    57  THR57      -0.2729
     59  CB       126.1630  106.3190  -48.9960 C.3    57  THR57       0.1807
     60  OG1      125.2390  107.1720  -48.3040 O.3    57  THR57      -0.2208
     61  CG2      125.4590  105.0420  -49.4270 C.3    57  THR57       0.0379
     62  N        128.3460  103.7480  -48.0950 N.am   58  PRO58      -0.2715
     63  CA       129.0970  102.6520  -48.7220 C.3    58  PRO58       0.1521
     64  C        128.2440  101.9400  -49.7590 C.2    58  PRO58       0.2440
     65  O        127.0120  102.0910  -49.7680 O.2    58  PRO58      -0.2731
     66  CB       129.4010  101.7210  -47.5380 C.3    58  PRO58       0.0310
     67  CG       128.2680  101.9460  -46.6070 C.3    58  PRO58       0.0237
     68  CD       127.8890  103.4030  -46.7370 C.3    58  PRO58       0.0939
     69  N        128.8600  101.1410  -50.6310 N.am   59  PRO59      -0.2727
     70  CA       128.1370  100.5360  -51.7670 C.3    59  PRO59       0.1402
     71  C        127.1720   99.4480  -51.3270 C.2    59  PRO59       0.2269
     72  O        127.3620   98.8190  -50.2740 O.2    59  PRO59      -0.2865
     73  CB       129.2710   99.9270  -52.6040 C.3    59  PRO59       0.0296
     74  CG       130.4860  100.6800  -52.2190 C.3    59  PRO59       0.0237
     75  CD       130.3190  100.9970  -50.7680 C.3    59  PRO59       0.0939
     76  N        125.0490   95.5050  -44.4730 N.3   127  CYS127     -0.1221
     77  CA       125.0580   96.8870  -44.0170 C.3   127  CYS127      0.1808
     78  C        123.9160   97.6130  -44.7140 C.2   127  CYS127      0.2601
     79  O        123.9120   97.7330  -45.9450 O.2   127  CYS127     -0.2717
     80  CB       126.4040   97.5140  -44.3790 C.3   127  CYS127      0.0970
     81  SG       126.6380   99.2460  -43.9460 S.3   127  CYS127     -0.0800
     82  N        122.9380   98.0620  -43.9390 N.am  128  GLU128     -0.1966
     83  CA       121.7740   98.7530  -44.4650 C.3   128  GLU128      0.1718
     84  C        121.7890  100.2240  -44.0590 C.2   128  GLU128      0.2458
     85  O        122.3690  100.5870  -43.0280 O.2   128  GLU128     -0.2730
     86  CB       120.4910   98.1180  -43.9130 C.3   128  GLU128      0.0428
     87  CG       120.2150   96.7010  -44.3910 C.3   128  GLU128      0.1163
     88  CD       119.6820   96.6660  -45.8070 C.2   128  GLU128      0.3649
     89  OE1      118.8630   97.5460  -46.1500 O.co2 128  GLU128     -0.2457
     90  OE2      120.0840   95.7690  -46.5800 O.co2 128  GLU128     -0.2457
     91  N        121.1570  101.0910  -44.8440 N.am  129  PRO129     -0.2716
     92  CA       121.0680  102.5020  -44.4680 C.3   129  PRO129      0.1521
     93  C        120.1300  102.6920  -43.2900 C.2   129  PRO129      0.2440
     94  O        119.3290  101.8000  -42.9660 O.2   129  PRO129     -0.2731
     95  CB       120.5030  103.1690  -45.7320 C.3   129  PRO129      0.0310
     96  CG       119.7960  102.0920  -46.4390 C.3   129  PRO129      0.0237
     97  CD       120.5720  100.8390  -46.1720 C.3   129  PRO129      0.0939
     98  N        120.2060  103.8440  -42.6210 N.am  130  PRO130     -0.2727
     99  CA       119.3270  104.0950  -41.4750 C.3   130  PRO130      0.1402
    100  C        117.8600  104.0840  -41.8770 C.2   130  PRO130      0.2269
    101  O        117.5020  104.3630  -43.0240 O.2   130  PRO130     -0.2865
    102  CB       119.7560  105.4900  -41.0030 C.3   130  PRO130      0.0296
    103  CG       121.1780  105.6140  -41.4570 C.3   130  PRO130      0.0237
    104  CD       121.2160  104.9020  -42.7840 C.3   130  PRO130      0.0939
    105  N        119.6050  108.8450  -37.9910 N.3   135  ASP135     -0.1225
    106  CA       120.8720  109.2780  -38.5600 C.3   135  ASP135      0.1805
    107  C        121.9240  108.1760  -38.6030 C.2   135  ASP135      0.2598
    108  O        123.0050  108.3930  -39.1590 O.2   135  ASP135     -0.2718
    109  CB       121.4310  110.4740  -37.7770 C.3   135  ASP135      0.1424
    110  CG       120.6930  111.7610  -38.0660 C.2   135  ASP135      0.3668
    111  OD1      120.1660  111.9160  -39.1860 O.co2 135  ASP135     -0.2456
    112  OD2      120.6540  112.6240  -37.1670 O.co2 135  ASP135     -0.2456
    113  N        121.6500  107.0120  -38.0240 N.am  136  CYS136     -0.1956
    114  CA       122.6220  105.9310  -38.0110 C.3   136  CYS136      0.1843
    115  C        121.8780  104.6110  -38.1200 C.2   136  CYS136      0.2626
    116  O        120.6520  104.5530  -38.0140 O.2   136  CYS136     -0.2714
    117  CB       123.4770  105.9540  -36.7400 C.3   136  CYS136      0.0997
    118  SG       122.5400  105.6690  -35.2070 S.3   136  CYS136     -0.0797
    119  N        122.6350  103.5460  -38.3310 N.am  137  THR137     -0.1950
    120  CA       122.0830  102.2040  -38.3560 C.3   137  THR137      0.1897
    121  C        122.4420  101.5180  -37.0480 C.2   137  THR137      0.2313
    122  O        123.5330  101.7230  -36.5100 O.2   137  THR137     -0.2863
    123  CB       122.6590  101.4280  -39.5420 C.3   137  THR137      0.1794
    124  OG1      122.3410  102.1380  -40.7500 O.3   137  THR137     -0.2208
    125  CG2      122.0620  100.0280  -39.6130 C.3   137  THR137      0.0378
    126  N        133.7250   96.8230  -41.0110 N.3   164  LEU164     -0.1245
    127  CA       132.9640   97.1110  -42.2120 C.3   164  LEU164      0.1561
    128  C        133.7110   96.4670  -43.3740 C.2   164  LEU164      0.2260
    129  O        134.9240   96.6590  -43.5110 O.2   164  LEU164     -0.2867
    130  CB       132.8980   98.6300  -42.3990 C.3   164  LEU164      0.0270
    131  CG       131.8950   99.1610  -43.4220 C.3   164  LEU164      0.0019
    132  CD1      130.4640   98.8930  -42.9500 C.3   164  LEU164      0.0001
    133  CD2      132.1250  100.6560  -43.6860 C.3   164  LEU164      0.0001
@<TRIPOS>BOND
     1    73    74    1
     2    73    70    1
     3    74    75    1
     4    70    71    1
     5    70    69    1
     6    71    72    2
     7    75    69    1
     8    69    64   am
     9    58    57    2
    10    65    64    2
    11    64    63    1
    12    61    59    1
    13    59    60    1
    14    59    56    1
    15    57    62   am
    16    57    56    1
    17    63    62    1
    18    63    66    1
    19    62    68    1
    20    56    55    1
    21    55    51   am
    22    53    54    1
    23    53    50    1
    24    66    67    1
    25    51    50    1
    26    51    52    2
    27    50    49    1
    28    68    67    1
    29    90    88   ar
    30    96    97    1
    31    96    95    1
    32    97    91    1
    33    89    88   ar
    34    79    78    2
    35    88    87    1
    36    95    92    1
    37    49    43   am
    38    44    43    2
    39    91    92    1
    40    91    84   am
    41    43    42    1
    42    78    77    1
    43    78    82   am
    44    76    77    1
    45    92    93    1
    46    83    84    1
    47    83    82    1
    48    83    86    1
    49    87    86    1
    50    80    77    1
    51    80    81    1
    52    84    85    2
    53   133   131    1
    54   129   128    2
    55   131   132    1
    56   131   130    1
    57   128   127    1
    58    45    42    1
    59    45    46    1
    60    42    41    1
    61    93    94    2
    62    93    98   am
    63    40    38    1
    64   101   100    2
    65    38    39    1
    66    38    35    1
    67   104    98    1
    68   104   103    1
    69    41    36   am
    70    98    99    1
    71   130   127    1
    72   127   126    1
    73    36    37    2
    74    36    35    1
    75    46    48   ar
    76    46    47   ar
    77   100    99    1
    78    35    34    1
    79    99   102    1
    80   103   102    1
    81     1     2    1
    82     5     2    1
    83     5     6    1
    84   124   123    1
    85    34    22   am
    86     2     3    1
    87     6     7   ar
    88     6     8   ar
    89     7     9   ar
    90   125   123    1
    91   123   120    1
    92    22    23    2
    93    22    21    1
    94   111   110   ar
    95     9    11   ar
    96     8    10   ar
    97   108   107    2
    98     3     4    2
    99    18    17    1
   100   107   106    1
   101   107   113   am
   102   106   105    1
   103   106   109    1
   104    11    10   ar
   105   120   119    1
   106   120   121    1
   107    21    20    1
   108    21    24    1
   109   119   115   am
   110    15    14    2
   111   115   116    2
   112   115   114    1
   113    16    17    1
   114    16    13    1
   115   110   109    1
   116   110   112   ar
   117   113   114    1
   118   114   117    1
   119    20    14   am
   120    14    13    1
   121    17    19    1
   122    24    25    1
   123    13    12    1
   124   121   122    2
   125    30    32   ar
   126    30    27   ar
   127   117   118    1
   128    32    33   ar
   129    25    27   ar
   130    25    26   ar
   131    27    29   ar
   132    33    31   ar
   133    26    28   ar
   134    29    31   ar
   135    29    28   ar
