@<TRIPOS>MOLECULE
tmp/5g4qB00.pdb
 89 86 0 0 0
SMALL
GASTEIGER

@<TRIPOS>ATOM
      1  N        -34.1090    7.4300   41.2500 N.3   168  THR168     -0.1203
      2  CA       -35.0250    8.1960   42.0670 C.3   168  THR168      0.1994
      3  C        -35.5930    9.3800   41.3250 C.2   168  THR168      0.2618
      4  O        -34.9430    9.9060   40.4220 O.2   168  THR168     -0.2717
      5  CB       -34.3560    8.7050   43.3500 C.3   168  THR168      0.1784
      6  OG1      -35.3550    9.2720   44.1990 O.3   168  THR168     -0.2211
      7  CG2      -33.2960    9.7240   43.0720 C.3   168  THR168      0.0376
      8  N        -36.8260    9.7480   41.6940 N.am  169  ASP169     -0.1959
      9  CA       -37.4080   11.0600   41.4230 C.3   169  ASP169      0.1840
     10  C        -37.5530   11.7120   42.8190 C.2   169  ASP169      0.2623
     11  O        -36.8670   11.2950   43.7490 O.2   169  ASP169     -0.2715
     12  CB       -38.7010   10.9640   40.5860 C.3   169  ASP169      0.1450
     13  CG       -39.7380    9.9540   41.1400 C.2   169  ASP169      0.3671
     14  OD1      -39.7110    9.6720   42.3550 O.co2 169  ASP169     -0.2456
     15  OD2      -40.5910    9.4560   40.3480 O.co2 169  ASP169     -0.2456
     16  N        -38.3570   12.7470   43.0200 N.am  170  THR170     -0.1937
     17  CA       -38.3520   13.3730   44.3840 C.3   170  THR170      0.2028
     18  C        -38.9420   12.4120   45.4460 C.2   170  THR170      0.2642
     19  O        -38.5780   12.4320   46.6120 O.2   170  THR170     -0.2714
     20  CB       -39.2000   14.6710   44.4620 C.3   170  THR170      0.1808
     21  OG1      -39.1310   15.4180   43.2350 O.3   170  THR170     -0.2208
     22  CG2      -38.7650   15.5410   45.6690 C.3   170  THR170      0.0379
     23  N        -39.8840   11.6030   44.9910 N.am  171  LYS171     -0.1963
     24  CA       -40.8540   10.9590   45.8170 C.3   171  LYS171      0.1728
     25  C        -40.5220    9.5120   46.1200 C.2   171  LYS171      0.2616
     26  O        -41.1120    8.9110   47.0510 O.2   171  LYS171     -0.2715
     27  CB       -42.2110   11.0130   45.0910 C.3   171  LYS171      0.0311
     28  CG       -42.7270   12.4110   44.7710 C.3   171  LYS171      0.0038
     29  CD       -42.9040   13.2440   46.0340 C.3   171  LYS171      0.0206
     30  CE       -43.7350   14.4890   45.7860 C.3   171  LYS171      0.1093
     31  NZ       -43.6040   15.4580   46.9180 N.3   171  LYS171     -0.1314
     32  N        -39.6450    8.9160   45.3210 N.am  172  ARG172     -0.1963
     33  CA       -39.3080    7.5110   45.5530 C.3   172  ARG172      0.1729
     34  C        -37.9250    7.2220   45.0710 C.2   172  ARG172      0.2616
     35  O        -37.3580    8.0130   44.3570 O.2   172  ARG172     -0.2715
     36  CB       -40.3210    6.5770   44.8690 C.3   172  ARG172      0.0348
     37  CG       -40.4160    6.7320   43.3450 C.3   172  ARG172      0.0492
     38  CD       -41.8010    6.4100   42.8020 C.3   172  ARG172      0.2205
     39  NE       -41.9750    6.7620   41.3790 N.pl3 172  ARG172     -0.0865
     40  CZ       -42.4470    5.9640   40.4320 C.cat 172  ARG172      0.5346
     41  NH1      -42.7520    4.6510   40.6560 N.pl3 172  ARG172      0.1354
     42  NH2      -42.5680    6.4540   39.2160 N.pl3 172  ARG172      0.1354
     43  N        -37.4280    6.0550   45.4620 N.am  173  LEU173     -0.1977
     44  CA       -36.0560    5.7100   45.3240 C.3   173  LEU173      0.1596
     45  C        -35.9760    4.1890   45.2890 C.2   173  LEU173      0.2287
     46  O        -36.3500    3.5550   46.2440 O.2   173  LEU173     -0.2864
     47  CB       -35.2790    6.2360   46.5460 C.3   173  LEU173      0.0297
     48  CG       -33.7550    6.1970   46.4360 C.3   173  LEU173      0.0022
     49  CD1      -33.1130    7.3160   47.2460 C.3   173  LEU173      0.0001
     50  CD2      -33.2100    4.8540   46.9020 C.3   173  LEU173      0.0001
     51  N        -30.2410    8.8820   53.0370 N.3   243  ILE243     -0.1245
     52  CA       -31.6890    9.0540   53.0420 C.3   243  ILE243      0.1561
     53  C        -32.4290    7.8380   53.6540 C.2   243  ILE243      0.2260
     54  O        -33.5530    7.9610   54.1570 O.2   243  ILE243     -0.2867
     55  CB       -32.1790    9.2860   51.5920 C.3   243  ILE243      0.0252
     56  CG1      -31.4040   10.4550   50.9310 C.3   243  ILE243      0.0019
     57  CG2      -33.6870    9.5530   51.5620 C.3   243  ILE243      0.0019
     58  CD1      -31.3930   10.4560   49.4140 C.3   243  ILE243      0.0001
     59  N        -41.3190    8.0000   55.4550 N.3   342  PRO342     -0.2116
     60  CA       -40.9920    7.0420   54.4250 C.3   342  PRO342      0.1372
     61  C        -41.0840    5.5850   54.8010 C.2   342  PRO342      0.2244
     62  O        -40.7940    5.1960   55.9420 O.2   342  PRO342     -0.2868
     63  CB       -39.5390    7.3640   54.1300 C.3   342  PRO342      0.0268
     64  CG       -39.3140    8.7690   54.6240 C.3   342  PRO342      0.0207
     65  CD       -40.5990    9.2540   55.1760 C.3   342  PRO342      0.0892
     66  N        -37.9300    2.7920   48.3770 N.3   363  LEU363     -0.1231
     67  CA       -38.2970    3.6510   49.5000 C.3   363  LEU363      0.1693
     68  C        -39.1970    4.7430   48.9930 C.2   363  LEU363      0.2592
     69  O        -38.8590    5.4310   48.0420 O.2   363  LEU363     -0.2718
     70  CB       -37.0340    4.2290   50.1360 C.3   363  LEU363      0.0284
     71  CG       -37.2700    5.1990   51.2850 C.3   363  LEU363      0.0019
     72  CD1      -37.5440    4.4380   52.5720 C.3   363  LEU363      0.0001
     73  CD2      -36.0950    6.1710   51.3720 C.3   363  LEU363      0.0001
     74  N        -40.3270    4.9240   49.6570 N.am  364  MET364     -0.1965
     75  CA       -41.3680    5.8360   49.2310 C.3   364  MET364      0.1736
     76  C        -41.8130    6.7700   50.3880 C.2   364  MET364      0.2616
     77  O        -41.8570    6.3400   51.5360 O.2   364  MET364     -0.2715
     78  CB       -42.6000    5.0200   48.8080 C.3   364  MET364      0.0427
     79  CG       -42.7260    4.6900   47.3410 C.3   364  MET364      0.0599
     80  SD       -44.1310    3.5650   47.0590 S.3   364  MET364     -0.1393
     81  CE       -43.3620    2.0270   47.5190 C.3   364  MET364      0.0692
     82  N        -42.2020    7.9960   50.0290 N.am  365  MET365     -0.1977
     83  CA       -42.7760    8.9920   50.9120 C.3   365  MET365      0.1605
     84  C        -44.2920    8.7820   50.9480 C.2   365  MET365      0.2287
     85  O        -44.9240    8.7770   49.9090 O.2   365  MET365     -0.2864
     86  CB       -42.5440   10.4090   50.3460 C.3   365  MET365      0.0413
     87  CG       -41.1870   11.0750   50.6090 C.3   365  MET365      0.0598
     88  SD       -40.8760   12.5220   49.5200 S.3   365  MET365     -0.1393
     89  CE       -42.4220   13.4420   49.6160 C.3   365  MET365      0.0692
@<TRIPOS>BOND
     1    42    40    1
     2    15    13   ar
     3     4     3    2
     4    40    41    1
     5    40    39    2
     6    12    13    1
     7    12     9    1
     8    13    14   ar
     9     1     2    1
    10     3     8   am
    11     3     2    1
    12    39    38    1
    13     9     8    1
    14     9    10    1
    15     2     5    1
    16    38    37    1
    17    10    16   am
    18    10    11    2
    19    16    17    1
    20     7     5    1
    21    21    20    1
    22    37    36    1
    23     5     6    1
    24    35    34    2
    25    17    20    1
    26    17    18    1
    27    20    22    1
    28    28    27    1
    29    28    29    1
    30    36    33    1
    31    23    18   am
    32    23    24    1
    33    34    43   am
    34    34    33    1
    35    27    24    1
    36    45    44    1
    37    45    46    2
    38    32    33    1
    39    32    25   am
    40    44    43    1
    41    44    47    1
    42    18    19    2
    43    30    29    1
    44    30    31    1
    45    24    25    1
    46    25    26    2
    47    48    47    1
    48    48    50    1
    49    48    49    1
    50    80    79    1
    51    80    81    1
    52    79    78    1
    53    69    68    2
    54    66    67    1
    55    78    75    1
    56    68    67    1
    57    68    74   am
    58    75    74    1
    59    75    76    1
    60    58    56    1
    61    67    70    1
    62    88    89    1
    63    88    87    1
    64    85    84    2
    65    82    76   am
    66    82    83    1
    67    70    71    1
    68    86    87    1
    69    86    83    1
    70    76    77    2
    71    83    84    1
    72    56    55    1
    73    71    73    1
    74    71    72    1
    75    57    55    1
    76    55    52    1
    77    51    52    1
    78    52    53    1
    79    53    54    2
    80    63    60    1
    81    63    64    1
    82    60    61    1
    83    60    59    1
    84    64    65    1
    85    61    62    2
    86    65    59    1
