@<TRIPOS>MOLECULE
tmp/5g4sA00.pdb
 126 125 0 0 0
SMALL
GASTEIGER

@<TRIPOS>ATOM
      1  N         19.6450   20.6900   35.0660 N.3    28  GLY28      -0.1210
      2  CA        21.0730   20.4940   35.3280 C.3    28  GLY28       0.1956
      3  C         21.7270   21.4330   36.3440 C.2    28  GLY28       0.2612
      4  O         22.9180   21.3200   36.6040 O.2    28  GLY28      -0.2717
      5  N         20.9610   22.3750   36.8960 N.am   29  ASN29      -0.1960
      6  CA        21.4890   23.3760   37.8380 C.3    29  ASN29       0.1819
      7  C         22.7140   24.1370   37.3050 C.2    29  ASN29       0.2621
      8  O         23.7380   24.2930   37.9870 O.2    29  ASN29      -0.2715
      9  CB        21.8150   22.7280   39.1970 C.3    29  ASN29       0.1195
     10  CG        22.0630   23.7610   40.2920 C.2    29  ASN29       0.2630
     11  OD1       21.2830   24.7040   40.4490 O.2    29  ASN29      -0.2716
     12  ND2       23.1510   23.5900   41.0510 N.am   29  ASN29      -0.0877
     13  N         22.5950   24.6020   36.0690 N.am   30  ILE30      -0.1963
     14  CA        23.6570   25.3200   35.3700 C.3    30  ILE30       0.1727
     15  C         23.4240   26.8300   35.4100 C.2    30  ILE30       0.2616
     16  O         24.3710   27.6060   35.3850 O.2    30  ILE30      -0.2715
     17  CB        23.7240   24.8500   33.8950 C.3    30  ILE30       0.0290
     18  CG1       24.0640   23.3570   33.8300 C.3    30  ILE30       0.0022
     19  CG2       24.7350   25.6440   33.0760 C.3    30  ILE30       0.0023
     20  CD1       23.8380   22.7490   32.4600 C.3    30  ILE30       0.0001
     21  N         22.1570   27.2340   35.4810 N.am   31  PHE31      -0.1974
     22  CA        21.7510   28.6270   35.2460 C.3    31  PHE31       0.1639
     23  C         21.1130   29.3250   36.4500 C.2    31  PHE31       0.2290
     24  O         20.5560   30.4190   36.3030 O.2    31  PHE31      -0.2864
     25  CB        20.7430   28.6570   34.0810 C.3    31  PHE31       0.0560
     26  CG        21.2720   28.0520   32.8080 C.ar   31  PHE31      -0.0200
     27  CD1       22.3070   28.6680   32.1220 C.ar   31  PHE31      -0.0042
     28  CD2       20.7490   26.8710   32.2880 C.ar   31  PHE31      -0.0042
     29  CE1       22.7980   28.1270   30.9480 C.ar   31  PHE31      -0.0003
     30  CE2       21.2550   26.3180   31.1210 C.ar   31  PHE31      -0.0003
     31  CZ        22.2920   26.9480   30.4520 C.ar   31  PHE31      -0.0000
     32  N         22.4070   30.2110   39.5680 N.3    33  GLU33      -0.1231
     33  CA        23.1990   31.1570   40.3320 C.3    33  GLU33       0.1684
     34  C         24.2250   31.7910   39.3950 C.2    33  GLU33       0.2434
     35  O         24.5280   31.2290   38.3370 O.2    33  GLU33      -0.2733
     36  CB        23.9030   30.4580   41.5010 C.3    33  GLU33       0.0402
     37  CG        24.8750   29.3450   41.1100 C.3    33  GLU33       0.1161
     38  CD        25.4270   28.6070   42.3250 C.2    33  GLU33       0.3649
     39  OE1       26.2740   29.1790   43.0480 O.co2  33  GLU33      -0.2457
     40  OE2       25.0140   27.4580   42.5650 O.co2  33  GLU33      -0.2457
     41  N         24.7700   32.9550   39.7760 N.am   34  PRO34      -0.2718
     42  CA        25.7470   33.5820   38.8900 C.3    34  PRO34       0.1535
     43  C         26.9610   32.7030   38.6300 C.2    34  PRO34       0.2598
     44  O         27.4510   32.0280   39.5460 O.2    34  PRO34      -0.2715
     45  CB        26.1770   34.8460   39.6540 C.3    34  PRO34       0.0310
     46  CG        25.1070   35.0920   40.6510 C.3    34  PRO34       0.0237
     47  CD        24.4910   33.7680   40.9730 C.3    34  PRO34       0.0939
     48  N         27.4570   32.7240   37.3950 N.am   35  VAL35      -0.1964
     49  CA        28.7530   32.1110   37.0950 C.3    35  VAL35       0.1712
     50  C         29.8110   32.7920   37.9720 C.2    35  VAL35       0.2458
     51  O         29.9880   34.0100   37.8950 O.2    35  VAL35      -0.2730
     52  CB        29.1320   32.2700   35.5980 C.3    35  VAL35       0.0289
     53  CG1       30.5110   31.6880   35.3220 C.3    35  VAL35       0.0023
     54  CG2       28.0720   31.6160   34.7170 C.3    35  VAL35       0.0023
     55  N         30.5000   32.0160   38.8290 N.am   36  PRO36      -0.2727
     56  CA        31.4060   32.6440   39.7750 C.3    36  PRO36       0.1402
     57  C         32.7240   33.0600   39.1320 C.2    36  PRO36       0.2269
     58  O         33.4650   32.2380   38.6020 O.2    36  PRO36      -0.2865
     59  CB        31.6060   31.5690   40.8380 C.3    36  PRO36       0.0296
     60  CG        31.4240   30.2820   40.1100 C.3    36  PRO36       0.0237
     61  CD        30.4590   30.5530   38.9820 C.3    36  PRO36       0.0939
     62  N         36.0190   31.4000   40.0650 N.3    39  GLU39      -0.1231
     63  CA        36.2900   30.0660   39.5050 C.3    39  GLU39       0.1699
     64  C         36.3720   30.0580   37.9720 C.2    39  GLU39       0.2592
     65  O         36.8640   29.0930   37.3850 O.2    39  GLU39      -0.2718
     66  CB        35.2390   29.0480   39.9810 C.3    39  GLU39       0.0402
     67  CG        35.4430   28.5560   41.4100 C.3    39  GLU39       0.1161
     68  CD        35.1990   29.6330   42.4540 C.2    39  GLU39       0.3649
     69  OE1       34.0650   30.1520   42.5190 O.co2  39  GLU39      -0.2457
     70  OE2       36.1430   29.9730   43.2030 O.co2  39  GLU39      -0.2457
     71  N         35.8870   31.1240   37.3330 N.am   40  VAL40      -0.1980
     72  CA        35.9610   31.2720   35.8740 C.3    40  VAL40       0.1595
     73  C         36.5660   32.6550   35.5820 C.2    40  VAL40       0.2287
     74  O         35.8470   33.5980   35.2480 O.2    40  VAL40      -0.2864
     75  CB        34.5700   31.0970   35.2190 C.3    40  VAL40       0.0276
     76  CG1       34.6860   31.0730   33.6980 C.3    40  VAL40       0.0022
     77  CG2       33.9140   29.8140   35.7120 C.3    40  VAL40       0.0022
     78  N         35.7660   34.9910   32.5270 N.3    43  TYR43      -0.1241
     79  CA        34.3610   35.0880   32.1180 C.3    43  TYR43       0.1605
     80  C         33.9870   36.5170   31.6930 C.2    43  TYR43       0.2264
     81  O         33.3670   36.7100   30.6460 O.2    43  TYR43      -0.2867
     82  CB        33.4240   34.5850   33.2190 C.3    43  TYR43       0.0534
     83  CG        31.9910   34.3740   32.7560 C.ar   43  TYR43      -0.0201
     84  CD1       31.6580   33.3300   31.8940 C.ar   43  TYR43      -0.0009
     85  CD2       30.9740   35.2120   33.1990 C.ar   43  TYR43      -0.0009
     86  CE1       30.3490   33.1400   31.4800 C.ar   43  TYR43       0.0417
     87  CE2       29.6660   35.0390   32.7890 C.ar   43  TYR43       0.0417
     88  CZ        29.3550   34.0070   31.9280 C.ar   43  TYR43       0.1957
     89  OH        28.0420   33.8590   31.5380 O.3    43  TYR43      -0.2866
     90  N         25.7520   31.8710   27.5640 N.3    82  CYS82      -0.1235
     91  CA        26.2170   30.4970   27.6090 C.3    82  CYS82       0.1677
     92  C         26.6380   29.9720   26.2240 C.2    82  CYS82       0.2270
     93  O         27.6260   29.2470   26.1100 O.2    82  CYS82      -0.2867
     94  CB        25.1140   29.6180   28.2220 C.3    82  CYS82       0.0956
     95  SG        25.6320   27.9260   28.6310 S.3    82  CYS82      -0.0801
     96  N         30.1670   31.8550   25.4980 N.3    85  TYR85      -0.1227
     97  CA        31.3160   31.4850   26.3060 C.3    85  TYR85       0.1736
     98  C         31.7180   30.0220   26.0780 C.2    85  TYR85       0.2595
     99  O         32.9020   29.7050   26.0200 O.2    85  TYR85      -0.2718
    100  CB        31.0950   31.7530   27.8000 C.3    85  TYR85       0.0548
    101  CG        32.3410   31.4580   28.5960 C.ar   85  TYR85      -0.0200
    102  CD1       33.3300   32.4230   28.7710 C.ar   85  TYR85      -0.0009
    103  CD2       32.5680   30.1890   29.1190 C.ar   85  TYR85      -0.0009
    104  CE1       34.4950   32.1300   29.4710 C.ar   85  TYR85       0.0417
    105  CE2       33.7200   29.8930   29.8040 C.ar   85  TYR85       0.0417
    106  CZ        34.6850   30.8640   29.9830 C.ar   85  TYR85       0.1957
    107  OH        35.8340   30.5320   30.6770 O.3    85  TYR85      -0.2866
    108  N         30.7310   29.1420   25.9460 N.am   86  ASN86      -0.1974
    109  CA        30.9840   27.7080   25.7940 C.3    86  ASN86       0.1688
    110  C         30.9040   27.2420   24.3450 C.2    86  ASN86       0.2292
    111  O         30.1020   27.7650   23.5630 O.2    86  ASN86      -0.2864
    112  CB        29.9900   26.9260   26.6620 C.3    86  ASN86       0.1181
    113  CG        30.0330   27.3550   28.1130 C.2    86  ASN86       0.2629
    114  OD1       30.9580   27.0010   28.8600 O.2    86  ASN86      -0.2716
    115  ND2       29.0300   28.1010   28.5330 N.am   86  ASN86      -0.0877
    116  N         27.2530   22.2390   28.2540 N.3    92  PHE92      -0.1241
    117  CA        26.6930   23.5330   28.6980 C.3    92  PHE92       0.1605
    118  C         26.0600   24.3170   27.5430 C.2    92  PHE92       0.2264
    119  O         24.9860   24.9020   27.6820 O.2    92  PHE92      -0.2867
    120  CB        27.7450   24.3810   29.4210 C.3    92  PHE92       0.0534
    121  CG        27.9500   24.0070   30.8780 C.ar   92  PHE92      -0.0203
    122  CD1       27.5640   22.7610   31.3810 C.ar   92  PHE92      -0.0042
    123  CD2       28.5560   24.9040   31.7440 C.ar   92  PHE92      -0.0042
    124  CE1       27.7690   22.4440   32.7140 C.ar   92  PHE92      -0.0003
    125  CE2       28.7680   24.5840   33.0750 C.ar   92  PHE92      -0.0003
    126  CZ        28.3670   23.3540   33.5610 C.ar   92  PHE92      -0.0000
@<TRIPOS>BOND
     1   111   110    2
     2   110   109    1
     3    96    97    1
     4   109   108    1
     5   109   112    1
     6   108    98   am
     7    99    98    2
     8    98    97    1
     9    93    92    2
    10    92    91    1
    11    97   100    1
    12   112   113    1
    13   118   119    2
    14   118   117    1
    15    90    91    1
    16    91    94    1
    17   100   101    1
    18   113   115   am
    19   113   114    2
    20    94    95    1
    21   116   117    1
    22   101   102   ar
    23   101   103   ar
    24   117   120    1
    25   102   104   ar
    26   103   105   ar
    27   120   121    1
    28   104   106   ar
    29   105   106   ar
    30   106   107    1
    31    31    29   ar
    32    31    30   ar
    33    81    80    2
    34   121   122   ar
    35   121   123   ar
    36    29    27   ar
    37    30    28   ar
    38   122   124   ar
    39    86    84   ar
    40    86    88   ar
    41    89    88    1
    42    80    79    1
    43   123   125   ar
    44    84    83   ar
    45    88    87   ar
    46    79    78    1
    47    79    82    1
    48    27    26   ar
    49    28    26   ar
    50    20    18    1
    51   124   126   ar
    52    83    85   ar
    53    83    82    1
    54    87    85   ar
    55    26    25    1
    56   125   126   ar
    57    19    17    1
    58    76    75    1
    59    18    17    1
    60    17    14    1
    61    25    22    1
    62    54    52    1
    63     1     2    1
    64    75    77    1
    65    75    72    1
    66    22    21    1
    67    22    23    1
    68    74    73    2
    69    53    52    1
    70     2     3    1
    71    14    15    1
    72    14    13    1
    73    16    15    2
    74    15    21   am
    75    73    72    1
    76    52    49    1
    77    72    71    1
    78    13     7   am
    79    24    23    2
    80     3     4    2
    81     3     5   am
    82     5     6    1
    83    49    48    1
    84    49    50    1
    85     7     6    1
    86     7     8    2
    87    71    64   am
    88    65    64    2
    89    48    43   am
    90     6     9    1
    91    51    50    2
    92    50    55   am
    93    64    63    1
    94    35    34    2
    95    58    57    2
    96    43    42    1
    97    43    44    2
    98    55    61    1
    99    55    56    1
   100    42    45    1
   101    42    41    1
   102    61    60    1
   103    57    56    1
   104     9    10    1
   105    34    41   am
   106    34    33    1
   107    63    66    1
   108    63    62    1
   109    32    33    1
   110    45    46    1
   111    56    59    1
   112    41    47    1
   113    66    67    1
   114    60    59    1
   115    10    11    2
   116    10    12   am
   117    33    36    1
   118    46    47    1
   119    37    36    1
   120    37    38    1
   121    67    68    1
   122    38    40   ar
   123    38    39   ar
   124    68    69   ar
   125    68    70   ar
