@<TRIPOS>MOLECULE
tmp/5g53A01.pdb
 90 87 0 0 0
SMALL
GASTEIGER

@<TRIPOS>ATOM
      1  N        -11.9610  -24.4070   27.2780 N.3    18  GLY18      -0.1225
      2  CA       -11.1840  -23.5840   26.3540 C.3    18  GLY18       0.1811
      3  C        -11.7300  -23.5130   24.9350 C.2    18  GLY18       0.2280
      4  O        -11.6720  -22.4540   24.3010 O.2    18  GLY18      -0.2866
      5  N        -15.1390  -21.7980   24.7350 N.3    21  LEU21      -0.1231
      6  CA       -14.8130  -20.3700   24.7970 C.3    21  LEU21       0.1693
      7  C        -14.3720  -19.8260   23.4320 C.2    21  LEU21       0.2591
      8  O        -14.7960  -18.7480   23.0350 O.2    21  LEU21      -0.2718
      9  CB       -13.7500  -20.0760   25.8640 C.3    21  LEU21       0.0284
     10  CG       -13.6000  -18.5930   26.2650 C.3    21  LEU21       0.0019
     11  CD1      -14.8370  -18.0420   26.9900 C.3    21  LEU21       0.0001
     12  CD2      -12.3490  -18.4020   27.1160 C.3    21  LEU21       0.0001
     13  N        -13.5530  -20.5860   22.7090 N.am   22  VAL22      -0.1980
     14  CA       -13.1390  -20.2180   21.3440 C.3    22  VAL22       0.1595
     15  C        -14.3440  -20.1320   20.3990 C.2    22  VAL22       0.2287
     16  O        -14.4790  -19.1620   19.6600 O.2    22  VAL22      -0.2864
     17  CB       -12.0740  -21.2080   20.7860 C.3    22  VAL22       0.0276
     18  CG1      -11.8930  -21.0780   19.2740 C.3    22  VAL22       0.0022
     19  CG2      -10.7360  -21.0040   21.4870 C.3    22  VAL22       0.0022
     20  N         -6.6490  -24.7520   21.4650 N.3   256  PRO256     -0.2102
     21  CA        -7.2010  -23.4460   21.7360 C.3   256  PRO256      0.1504
     22  C         -6.1500  -22.3710   21.8950 C.2   256  PRO256      0.2575
     23  O         -6.1750  -21.4280   21.1220 O.2   256  PRO256     -0.2718
     24  CB        -7.9520  -23.6440   23.0500 C.3   256  PRO256      0.0282
     25  CG        -8.4200  -25.0310   22.9680 C.3   256  PRO256      0.0208
     26  CD        -7.3870  -25.8030   22.1850 C.3   256  PRO256      0.0893
     27  N         -5.2520  -22.5080   22.8690 N.am  257  PHE257     -0.1977
     28  CA        -4.3860  -21.3800   23.2570 C.3   257  PHE257      0.1639
     29  C         -3.5760  -20.8900   22.0640 C.2   257  PHE257      0.2290
     30  O         -3.8550  -19.8260   21.5160 O.2   257  PHE257     -0.2864
     31  CB        -3.4440  -21.7350   24.4220 C.3   257  PHE257      0.0560
     32  CG        -4.0440  -21.5210   25.7900 C.ar  257  PHE257     -0.0200
     33  CD1       -4.1160  -20.2440   26.3470 C.ar  257  PHE257     -0.0042
     34  CD2       -4.5180  -22.6000   26.5350 C.ar  257  PHE257     -0.0042
     35  CE1       -4.6620  -20.0510   27.6080 C.ar  257  PHE257     -0.0003
     36  CE2       -5.0620  -22.4140   27.7990 C.ar  257  PHE257     -0.0003
     37  CZ        -5.1310  -21.1380   28.3370 C.ar  257  PHE257     -0.0000
     38  N         -5.6170  -17.8760   20.8630 N.3   261  TYR261     -0.1241
     39  CA        -5.0350  -16.8780   21.7670 C.3   261  TYR261      0.1605
     40  C         -3.8920  -16.0860   21.1000 C.2   261  TYR261      0.2264
     41  O         -3.4810  -15.0640   21.6430 O.2   261  TYR261     -0.2867
     42  CB        -4.5570  -17.5460   23.0720 C.3   261  TYR261      0.0534
     43  CG        -4.4750  -16.6590   24.2930 C.ar  261  TYR261     -0.0201
     44  CD1       -5.5740  -16.4930   25.1260 C.ar  261  TYR261     -0.0009
     45  CD2       -3.2800  -16.0320   24.6510 C.ar  261  TYR261     -0.0009
     46  CE1       -5.4910  -15.6990   26.2620 C.ar  261  TYR261      0.0417
     47  CE2       -3.1980  -15.2320   25.7770 C.ar  261  TYR261      0.0417
     48  CZ        -4.3030  -15.0730   26.5790 C.ar  261  TYR261      0.1957
     49  OH        -4.2190  -14.2900   27.6990 O.3   261  TYR261     -0.2866
     50  N         -8.3550  -12.4750   21.7410 N.3   267  ARG267     -0.1245
     51  CA        -7.9160  -12.0540   23.0810 C.3   267  ARG267      0.1563
     52  C         -8.8130  -10.9890   23.7290 C.2   267  ARG267      0.2260
     53  O         -9.1500  -11.0880   24.9290 O.2   267  ARG267     -0.2867
     54  CB        -6.4610  -11.5510   23.0590 C.3   267  ARG267      0.0307
     55  CG        -5.4060  -12.6520   23.0690 C.3   267  ARG267      0.0489
     56  CD        -4.1000  -12.1680   22.4510 C.3   267  ARG267      0.2205
     57  NE        -3.6300  -10.9070   23.0190 N.pl3 267  ARG267     -0.0865
     58  CZ        -2.5810  -10.2120   22.5680 C.cat 267  ARG267      0.5346
     59  NH1       -1.8590  -10.6430   21.5280 N.pl3 267  ARG267      0.1354
     60  NH2       -2.2400   -9.0700   23.1710 N.pl3 267  ARG267      0.1354
     61  N        -12.2640  -12.4910   24.5560 N.3   270  PHE270     -0.1227
     62  CA       -12.2200  -13.2550   25.8050 C.3   270  PHE270      0.1736
     63  C        -12.3770  -12.3700   27.0430 C.2   270  PHE270      0.2595
     64  O        -13.0320  -12.7860   28.0190 O.2   270  PHE270     -0.2718
     65  CB       -10.9370  -14.0840   25.9380 C.3   270  PHE270      0.0547
     66  CG       -10.7850  -15.1670   24.8970 C.ar  270  PHE270     -0.0202
     67  CD1      -11.8720  -15.9520   24.5010 C.ar  270  PHE270     -0.0042
     68  CD2       -9.5360  -15.4270   24.3320 C.ar  270  PHE270     -0.0042
     69  CE1      -11.7220  -16.9480   23.5570 C.ar  270  PHE270     -0.0003
     70  CE2       -9.3810  -16.4230   23.3850 C.ar  270  PHE270     -0.0003
     71  CZ       -10.4780  -17.1830   22.9930 C.ar  270  PHE270     -0.0000
     72  N        -11.7960  -11.1640   27.0020 N.am  271  ARG271     -0.1980
     73  CA       -11.9430  -10.1940   28.1050 C.3   271  ARG271      0.1597
     74  C        -13.3980   -9.8070   28.3290 C.2   271  ARG271      0.2287
     75  O        -13.9230   -9.9040   29.4470 O.2   271  ARG271     -0.2864
     76  CB       -11.1430   -8.9060   27.8410 C.3   271  ARG271      0.0334
     77  CG        -9.7660   -8.8690   28.4900 C.3   271  ARG271      0.0492
     78  CD        -9.7560   -8.1360   29.8250 C.3   271  ARG271      0.2205
     79  NE        -8.3950   -8.0160   30.3410 N.pl3 271  ARG271     -0.0865
     80  CZ        -7.4610   -7.1850   29.8670 C.cat 271  ARG271      0.5346
     81  NH1       -7.7140   -6.3450   28.8570 N.pl3 271  ARG271      0.1354
     82  NH2       -6.2530   -7.1820   30.4230 N.pl3 271  ARG271      0.1354
     83  N        -15.6210  -12.8070   29.8620 N.3   274  ILE274     -0.1245
     84  CA       -15.3770  -13.0670   31.2900 C.3   274  ILE274      0.1561
     85  C        -15.8240  -11.8740   32.1530 C.2   274  ILE274      0.2260
     86  O        -16.4150  -12.0550   33.2410 O.2   274  ILE274     -0.2867
     87  CB       -13.8830  -13.3980   31.5520 C.3   274  ILE274      0.0252
     88  CG1      -13.4960  -14.7270   30.8710 C.3   274  ILE274      0.0019
     89  CG2      -13.5710  -13.4480   33.0500 C.3   274  ILE274      0.0019
     90  CD1      -14.3490  -15.9250   31.2580 C.3   274  ILE274      0.0001
@<TRIPOS>BOND
     1    18    17    1
     2    16    15    2
     3    15    14    1
     4    17    14    1
     5    17    19    1
     6    38    39    1
     7    40    41    2
     8    40    39    1
     9    23    22    2
    10    14    13    1
    11    20    21    1
    12    20    26    1
    13    30    29    2
    14    59    58    1
    15    21    22    1
    16    21    24    1
    17    50    51    1
    18    39    42    1
    19    22    27   am
    20    29    28    1
    21    26    25    1
    22    56    57    1
    23    56    55    1
    24    58    57    2
    25    58    60    1
    26    13     7   am
    27    27    28    1
    28    25    24    1
    29    71    70   ar
    30    71    69   ar
    31     8     7    2
    32    54    55    1
    33    54    51    1
    34    42    43    1
    35    51    52    1
    36    28    31    1
    37    70    68   ar
    38     7     6    1
    39    69    67   ar
    40    52    53    2
    41    43    45   ar
    42    43    44   ar
    43     4     3    2
    44    68    66   ar
    45    31    32    1
    46    67    66   ar
    47    61    62    1
    48    45    47   ar
    49     5     6    1
    50     6     9    1
    51    66    65    1
    52     3     2    1
    53    44    46   ar
    54    47    48   ar
    55    32    33   ar
    56    32    34   ar
    57    62    65    1
    58    62    63    1
    59     9    10    1
    60    46    48   ar
    61    10    11    1
    62    10    12    1
    63    33    35   ar
    64     2     1    1
    65    34    36   ar
    66    48    49    1
    67    72    63   am
    68    72    73    1
    69    63    64    2
    70    35    37   ar
    71    36    37   ar
    72    76    73    1
    73    76    77    1
    74    73    74    1
    75    74    75    2
    76    77    78    1
    77    81    80    1
    78    78    79    1
    79    83    84    1
    80    80    79    2
    81    80    82    1
    82    88    90    1
    83    88    87    1
    84    84    87    1
    85    84    85    1
    86    87    89    1
    87    85    86    2
