@<TRIPOS>MOLECULE
tmp/5g54A07.pdb
 168 164 0 0 0
SMALL
GASTEIGER

@<TRIPOS>ATOM
      1  N         12.8260   -4.8110    8.3960 N.3    99  TYR99      -0.1241
      2  CA        13.1640   -6.0700    7.7190 C.3    99  TYR99       0.1605
      3  C         11.8960   -6.7490    7.2680 C.2    99  TYR99       0.2264
      4  O         11.7910   -7.2380    6.1200 O.2    99  TYR99      -0.2867
      5  CB        13.9510   -7.0410    8.6680 C.3    99  TYR99       0.0534
      6  CG        15.3640   -6.6660    8.8630 C.ar   99  TYR99      -0.0201
      7  CD1       15.6940   -5.5930    9.6460 C.ar   99  TYR99      -0.0009
      8  CD2       16.4080   -7.4360    8.3320 C.ar   99  TYR99      -0.0009
      9  CE1       16.9810   -5.2210    9.8150 C.ar   99  TYR99       0.0417
     10  CE2       17.7370   -7.0910    8.5460 C.ar   99  TYR99       0.0417
     11  CZ        18.0080   -6.0020    9.2540 C.ar   99  TYR99       0.1957
     12  OH        19.2910   -5.5880    9.4300 O.3    99  TYR99      -0.2866
     13  N         10.5360   -5.0590    4.1960 N.3   102  TRP102     -0.1241
     14  CA        11.2160   -5.3830    2.9530 C.3   102  TRP102      0.1605
     15  C         10.6370   -6.5610    2.1720 C.2   102  TRP102      0.2264
     16  O         10.7870   -6.6470    0.9330 O.2   102  TRP102     -0.2867
     17  CB        12.6890   -5.6250    3.2450 C.3   102  TRP102      0.0550
     18  CG        13.4050   -4.4450    3.8160 C.ar  102  TRP102      0.0003
     19  CD1       13.0790   -3.1180    3.7200 C.ar  102  TRP102      0.0946
     20  CD2       14.6230   -4.5180    4.4910 C.ar  102  TRP102      0.0152
     21  NE1       14.0010   -2.3560    4.4030 N.ar  102  TRP102     -0.2442
     22  CE2       14.9700   -3.1870    4.8890 C.ar  102  TRP102      0.0810
     23  CE3       15.4660   -5.5910    4.8630 C.ar  102  TRP102      0.0012
     24  CZ2       16.1100   -2.9170    5.5730 C.ar  102  TRP102      0.0191
     25  CZ3       16.5900   -5.3070    5.5310 C.ar  102  TRP102      0.0001
     26  CH2       16.8970   -3.9830    5.9200 C.ar  102  TRP102      0.0015
     27  N          8.2610   -4.5110    0.0580 N.3   105  THR105     -0.1203
     28  CA         8.8510   -3.4610   -0.7450 C.3   105  THR105      0.1994
     29  C          9.9830   -3.8950   -1.7110 C.2   105  THR105      0.2617
     30  O         10.0980   -3.3600   -2.7900 O.2   105  THR105     -0.2717
     31  CB         9.3160   -2.2310    0.0870 C.3   105  THR105      0.1784
     32  OG1       10.1750   -2.6470    1.1090 O.3   105  THR105     -0.2211
     33  CG2        8.1060   -1.5780    0.7350 C.3   105  THR105      0.0376
     34  N         10.7890   -4.8680   -1.3490 N.am  106  ILE106     -0.1979
     35  CA        11.8830   -5.2800   -2.2520 C.3   106  ILE106      0.1595
     36  C         11.2450   -5.9010   -3.5200 C.2   106  ILE106      0.2287
     37  O         11.5830   -5.5090   -4.6480 O.2   106  ILE106     -0.2864
     38  CB        12.9450   -6.1410   -1.5150 C.3   106  ILE106      0.0276
     39  CG1       13.7290   -5.2610   -0.5270 C.3   106  ILE106      0.0022
     40  CG2       13.8450   -6.8470   -2.5240 C.3   106  ILE106      0.0022
     41  CD1       14.9640   -5.9040    0.0750 C.3   106  ILE106      0.0001
     42  N         10.0260   -3.1120   -5.7280 N.3   109  LEU109     -0.1245
     43  CA        11.1650   -2.4700   -6.4380 C.3   109  LEU109      0.1561
     44  C         11.6490   -3.2820   -7.6240 C.2   109  LEU109      0.2260
     45  O         11.9210   -2.7450   -8.7150 O.2   109  LEU109     -0.2867
     46  CB        12.3140   -2.1780   -5.5120 C.3   109  LEU109      0.0270
     47  CG        12.0010   -1.1610   -4.4040 C.3   109  LEU109      0.0019
     48  CD1       13.0470   -1.2510   -3.3060 C.3   109  LEU109      0.0001
     49  CD2       11.7790    0.2390   -4.9590 C.3   109  LEU109      0.0001
     50  N         17.2090  -13.6250    1.4130 N.3   138  MET138     -0.1230
     51  CA        18.1300  -12.6030    1.9770 C.3   138  MET138      0.1702
     52  C         17.5350  -11.8970    3.2180 C.2   138  MET138      0.2592
     53  O         18.2070  -11.7230    4.2180 O.2   138  MET138     -0.2718
     54  CB        18.4690  -11.5550    0.9010 C.3   138  MET138      0.0401
     55  CG        19.3160  -10.3550    1.3120 C.3   138  MET138      0.0596
     56  SD        19.3640   -9.1220   -0.0260 S.3   138  MET138     -0.1393
     57  CE        17.6960   -8.3620    0.0700 C.3   138  MET138      0.0692
     58  N         16.2780  -11.4630    3.1020 N.am  139  ILE139     -0.1980
     59  CA        15.6400  -10.6720    4.1620 C.3   139  ILE139      0.1595
     60  C         15.4200  -11.5540    5.3970 C.2   139  ILE139      0.2287
     61  O         15.6940  -11.1270    6.5220 O.2   139  ILE139     -0.2864
     62  CB        14.3060  -10.1530    3.6410 C.3   139  ILE139      0.0276
     63  CG1       14.5450   -9.1920    2.4600 C.3   139  ILE139      0.0022
     64  CG2       13.4150   -9.5440    4.7440 C.3   139  ILE139      0.0022
     65  CD1       13.2800   -8.9770    1.7130 C.3   139  ILE139      0.0001
     66  N         18.5630  -12.2990    7.1070 N.3   142  GLY142     -0.1225
     67  CA        19.0990  -11.1010    7.7570 C.3   142  GLY142      0.1811
     68  C         18.3150  -10.7100    8.9800 C.2   142  GLY142      0.2280
     69  O         18.8620  -10.2240    9.9250 O.2   142  GLY142     -0.2866
     70  N         24.4460  -13.2170    8.2860 N.3   160  GLY160     -0.1225
     71  CA        24.8510  -12.2000    7.3580 C.3   160  GLY160      0.1811
     72  C         25.5110  -12.7300    6.1100 C.2   160  GLY160      0.2280
     73  O         25.2730  -12.2080    5.0120 O.2   160  GLY160     -0.2866
     74  N         22.8200  -14.4630    4.1720 N.3   163  SER163     -0.1202
     75  CA        22.0200  -13.4110    3.5260 C.3   163  SER163      0.2020
     76  C         22.6990  -12.7780    2.2980 C.2   163  SER163      0.2619
     77  O         22.0560  -12.5550    1.2880 O.2   163  SER163     -0.2717
     78  CB        21.7020  -12.3290    4.5810 C.3   163  SER163      0.2103
     79  OG        20.8130  -11.3750    4.0010 O.3   163  SER163     -0.2182
     80  N         23.9890  -12.4910    2.4360 N.am  164  THR164     -0.1952
     81  CA        24.8810  -12.0250    1.3740 C.3   164  THR164      0.1897
     82  C         24.9160  -12.9570    0.1300 C.2   164  THR164      0.2313
     83  O         24.9110  -12.4780   -1.0080 O.2   164  THR164     -0.2863
     84  CB        26.2630  -11.6750    1.9610 C.3   164  THR164      0.1794
     85  OG1       26.1220  -10.6180    2.9210 O.3   164  THR164     -0.2208
     86  CG2       27.2820  -11.1880    0.9350 C.3   164  THR164      0.0378
     87  N         21.7530  -12.1900   -1.5530 N.3   167  PHE167     -0.1241
     88  CA        21.9230  -10.8720   -2.1820 C.3   167  PHE167      0.1605
     89  C         22.7180  -10.9990   -3.4640 C.2   167  PHE167      0.2264
     90  O         22.3470  -10.4190   -4.4680 O.2   167  PHE167     -0.2867
     91  CB        22.6870  -10.0080   -1.1920 C.3   167  PHE167      0.0534
     92  CG        22.9140   -8.5980   -1.5870 C.ar  167  PHE167     -0.0203
     93  CD1       21.8950   -7.7730   -1.9790 C.ar  167  PHE167     -0.0042
     94  CD2       24.1510   -8.0470   -1.4200 C.ar  167  PHE167     -0.0042
     95  CE1       22.1280   -6.4390   -2.2570 C.ar  167  PHE167     -0.0003
     96  CE2       24.3930   -6.7180   -1.7040 C.ar  167  PHE167     -0.0003
     97  CZ        23.3790   -5.9170   -2.1370 C.ar  167  PHE167     -0.0000
     98  N         21.7040   -0.4610   -2.3920 N.3   204  TRP204     -0.1241
     99  CA        21.3700   -1.6930   -1.6820 C.3   204  TRP204      0.1605
    100  C         22.5080   -2.2110   -0.8030 C.2   204  TRP204      0.2264
    101  O         22.2650   -2.8030    0.2460 O.2   204  TRP204     -0.2867
    102  CB        20.8860   -2.8050   -2.6340 C.3   204  TRP204      0.0550
    103  CG        19.5730   -2.5300   -3.2380 C.ar  204  TRP204      0.0003
    104  CD1       19.1250   -1.3010   -3.7430 C.ar  204  TRP204      0.0946
    105  CD2       18.5170   -3.4720   -3.5750 C.ar  204  TRP204      0.0152
    106  NE1       17.8960   -1.4400   -4.3050 N.ar  204  TRP204     -0.2442
    107  CE2       17.5150   -2.7470   -4.2550 C.ar  204  TRP204      0.0810
    108  CE3       18.3210   -4.8380   -3.3500 C.ar  204  TRP204      0.0012
    109  CZ2       16.3090   -3.3250   -4.6710 C.ar  204  TRP204      0.0191
    110  CZ3       17.1040   -5.4250   -3.7920 C.ar  204  TRP204      0.0001
    111  CH2       16.1330   -4.6640   -4.4560 C.ar  204  TRP204      0.0015
    112  N         22.7560   -1.3350    3.1160 N.3   207  TYR207     -0.1228
    113  CA        21.9470   -2.0280    4.0970 C.3   207  TYR207      0.1721
    114  C         22.8110   -3.0730    4.8140 C.2   207  TYR207      0.2437
    115  O         22.8250   -3.0570    6.0410 O.2   207  TYR207     -0.2733
    116  CB        20.6350   -2.5980    3.5310 C.3   207  TYR207      0.0547
    117  CG        19.6310   -1.5790    3.0620 C.ar  207  TYR207     -0.0200
    118  CD1       18.7060   -1.0210    3.9460 C.ar  207  TYR207     -0.0009
    119  CD2       19.5470   -1.2320    1.7300 C.ar  207  TYR207     -0.0009
    120  CE1       17.7640   -0.1040    3.5090 C.ar  207  TYR207      0.0417
    121  CE2       18.6240   -0.2830    1.3040 C.ar  207  TYR207      0.0417
    122  CZ        17.7350    0.2560    2.2070 C.ar  207  TYR207      0.1957
    123  OH        16.8180    1.1780    1.8040 O.3   207  TYR207     -0.2866
    124  N         23.5910   -3.8790    4.0870 N.am  208  PRO208     -0.2729
    125  CA        24.5610   -4.7630    4.8390 C.3   208  PRO208      0.1401
    126  C         25.5960   -4.0380    5.6970 C.2   208  PRO208      0.2269
    127  O         25.9320   -4.4790    6.8250 O.2   208  PRO208     -0.2865
    128  CB        25.2350   -5.5890    3.7430 C.3   208  PRO208      0.0296
    129  CG        24.8660   -4.9450    2.4430 C.3   208  PRO208      0.0237
    130  CD        23.5090   -4.3040    2.6840 C.3   208  PRO208      0.0939
    131  N         23.7030   -3.1280    8.8190 N.3   211  TYR211     -0.1241
    132  CA        23.6050   -4.3690    9.5260 C.3   211  TYR211      0.1605
    133  C         24.8020   -4.7040   10.3570 C.2   211  TYR211      0.2264
    134  O         24.6210   -5.2700   11.4460 O.2   211  TYR211     -0.2867
    135  CB        23.2930   -5.5010    8.4840 C.3   211  TYR211      0.0534
    136  CG        23.2320   -6.8940    9.0160 C.ar  211  TYR211     -0.0201
    137  CD1       22.0330   -7.4360    9.4740 C.ar  211  TYR211     -0.0009
    138  CD2       24.3840   -7.7070    9.0220 C.ar  211  TYR211     -0.0009
    139  CE1       21.9890   -8.7490    9.9290 C.ar  211  TYR211      0.0417
    140  CE2       24.3430   -9.0280    9.4560 C.ar  211  TYR211      0.0417
    141  CZ        23.1280   -9.5470    9.8930 C.ar  211  TYR211      0.1957
    142  OH        23.0560  -10.8290   10.3360 O.3   211  TYR211     -0.2866
    143  N         20.5500    3.9250    6.8670 N.3   230  PHE230     -0.1241
    144  CA        19.1910    3.5880    6.4120 C.3   230  PHE230      0.1605
    145  C         18.5130    4.7200    5.6870 C.2   230  PHE230      0.2264
    146  O         17.8800    4.5250    4.6560 O.2   230  PHE230     -0.2867
    147  CB        18.2770    3.1740    7.5730 C.3   230  PHE230      0.0534
    148  CG        18.5550    1.8070    8.1800 C.ar  230  PHE230     -0.0203
    149  CD1       18.8570    0.7090    7.3960 C.ar  230  PHE230     -0.0042
    150  CD2       18.3360    1.5920    9.5160 C.ar  230  PHE230     -0.0042
    151  CE1       19.0870   -0.5220    7.9470 C.ar  230  PHE230     -0.0003
    152  CE2       18.5620    0.3380   10.0910 C.ar  230  PHE230     -0.0003
    153  CZ        18.8980   -0.7270    9.2950 C.ar  230  PHE230     -0.0000
    154  N         17.4020    4.0800   -2.7490 N.3   237  SER237     -0.1202
    155  CA        16.8500    2.8280   -3.2900 C.3   237  SER237      0.2020
    156  C         15.3590    2.9080   -3.5890 C.2   237  SER237      0.2618
    157  O         14.8010    2.0880   -4.3610 O.2   237  SER237     -0.2717
    158  CB        17.1610    1.6520   -2.3450 C.3   237  SER237      0.2103
    159  OG        16.3130    1.7180   -1.2160 O.3   237  SER237     -0.2182
    160  N         14.6800    3.8750   -3.0160 N.am  238  LYS238     -0.1979
    161  CA        13.2510    3.9430   -3.2220 C.3   238  LYS238      0.1596
    162  C         12.8050    5.1880   -3.9860 C.2   238  LYS238      0.2287
    163  O         12.1190    5.0500   -5.0220 O.2   238  LYS238     -0.2864
    164  CB        12.5210    3.8520   -1.9040 C.3   238  LYS238      0.0298
    165  CG        12.6780    2.5120   -1.2450 C.3   238  LYS238      0.0038
    166  CD        11.9340    2.5230    0.0330 C.3   238  LYS238      0.0206
    167  CE        12.7310    1.9010    1.1370 C.3   238  LYS238      0.1093
    168  NZ        12.8220    0.4270    0.9030 N.3   238  LYS238     -0.1314
@<TRIPOS>BOND
     1    45    44    2
     2    44    43    1
     3    43    42    1
     4    43    46    1
     5    46    47    1
     6   163   162    2
     7    49    47    1
     8   109   111   ar
     9   109   107   ar
    10    37    36    2
    11    90    89    2
    12   111   110   ar
    13    47    48    1
    14   157   156    2
    15   106   107   ar
    16   106   104   ar
    17   107   105   ar
    18   162   161    1
    19   110   108   ar
    20   104   103   ar
    21   156   155    1
    22   156   160   am
    23   105   108   ar
    24   105   103   ar
    25    36    35    1
    26    89    88    1
    27   155   154    1
    28   155   158    1
    29   103   102    1
    30   161   160    1
    31   161   164    1
    32    30    29    2
    33   102    99    1
    34    40    38    1
    35    98    99    1
    36   158   159    1
    37    95    97   ar
    38    95    93   ar
    39    35    38    1
    40    35    34    1
    41    88    87    1
    42    88    91    1
    43    97    96   ar
    44    93    92   ar
    45   164   165    1
    46    29    34   am
    47    29    28    1
    48    96    94   ar
    49    99   100    1
    50    92    94   ar
    51    92    91    1
    52    38    39    1
    53   165   166    1
    54    83    82    2
    55   100   101    2
    56    28    27    1
    57    28    31    1
    58    39    41    1
    59    56    57    1
    60    56    55    1
    61   166   167    1
    62    31    33    1
    63    31    32    1
    64    82    81    1
    65    54    55    1
    66    54    51    1
    67   168   167    1
    68    16    15    2
    69    86    84    1
    70    77    76    2
    71   121   119   ar
    72   121   122   ar
    73    81    84    1
    74    81    80    1
    75    50    51    1
    76    65    63    1
    77   119   117   ar
    78   123   122    1
    79    84    85    1
    80    51    52    1
    81    15    14    1
    82   122   120   ar
    83    76    80   am
    84    76    75    1
    85   129   130    1
    86   129   128    1
    87    63    62    1
    88   130   124    1
    89    14    17    1
    90    14    13    1
    91   117   116    1
    92   117   118   ar
    93    58    52   am
    94    58    59    1
    95   112   113    1
    96    52    53    2
    97    17    18    1
    98   120   118   ar
    99    75    74    1
   100    75    78    1
   101   116   113    1
   102    62    59    1
   103    62    64    1
   104    19    18   ar
   105    19    21   ar
   106   128   125    1
   107    18    20   ar
   108    79    78    1
   109   124   114   am
   110   124   125    1
   111   113   114    1
   112    59    60    1
   113    21    22   ar
   114    20    23   ar
   115    20    22   ar
   116   146   145    2
   117   114   115    2
   118   125   126    1
   119    23    25   ar
   120    22    24   ar
   121    73    72    2
   122    60    61    2
   123    25    26   ar
   124    24    26   ar
   125   145   144    1
   126   126   127    2
   127    72    71    1
   128     4     3    2
   129   144   143    1
   130   144   147    1
   131    66    67    1
   132     3     2    1
   133    71    70    1
   134   149   151   ar
   135   149   148   ar
   136   147   148    1
   137     2     1    1
   138     2     5    1
   139    67    68    1
   140   151   153   ar
   141   148   150   ar
   142     8    10   ar
   143     8     6   ar
   144   135   136    1
   145   135   132    1
   146    10    11   ar
   147     5     6    1
   148   131   132    1
   149     6     7   ar
   150    68    69    2
   151   136   138   ar
   152   136   137   ar
   153   138   140   ar
   154    11    12    1
   155    11     9   ar
   156   153   152   ar
   157   140   141   ar
   158   137   139   ar
   159   150   152   ar
   160   132   133    1
   161     7     9   ar
   162   141   139   ar
   163   141   142    1
   164   133   134    2
