@<TRIPOS>MOLECULE
tmp/5g54A05.pdb
 106 96 0 0 0
SMALL
GASTEIGER

@<TRIPOS>ATOM
      1  N         21.9030   11.3660   24.3600 N.3    14  SER14      -0.1217
      2  CA        21.8290   12.8030   24.5060 C.3    14  SER14       0.1889
      3  C         20.6330   13.2950   23.7170 C.2    14  SER14       0.2288
      4  O         20.1720   12.6450   22.7160 O.2    14  SER14      -0.2866
      5  CB        23.1140   13.4490   24.0010 C.3    14  SER14       0.2089
      6  OG        23.2510   13.4050   22.5810 O.3    14  SER14      -0.2183
      7  N         20.7720   15.5890   21.6080 N.3    16  GLY16      -0.1210
      8  CA        21.2570   15.7390   20.2520 C.3    16  GLY16       0.1956
      9  C         21.1060   14.4650   19.4480 C.2    16  GLY16       0.2611
     10  O         20.5760   14.5190   18.3600 O.2    16  GLY16      -0.2717
     11  N         21.6190   13.3430   19.9790 N.am   17  GLN17      -0.1979
     12  CA        21.5480   12.0620   19.3090 C.3    17  GLN17       0.1601
     13  C         20.0940   11.6210   19.0940 C.2    17  GLN17       0.2287
     14  O         19.6780   11.1990   17.9850 O.2    17  GLN17      -0.2864
     15  CB        22.2520   10.9850   20.1360 C.3    17  GLN17       0.0394
     16  CG        23.7620   11.1270   20.2670 C.3    17  GLN17       0.0908
     17  CD        24.2970   10.2100   21.3040 C.2    17  GLN17       0.2608
     18  OE1       23.6370    9.8850   22.3470 O.2    17  GLN17      -0.2717
     19  NE2       25.4930    9.7540   21.0540 N.am   17  GLN17      -0.0878
     20  N         18.1180   14.0740   16.5430 N.3    20  PHE20      -0.1241
     21  CA        18.6310   13.8220   15.2030 C.3    20  PHE20       0.1605
     22  C         17.9990   12.5410   14.5790 C.2    20  PHE20       0.2264
     23  O         17.5560   12.5630   13.4470 O.2    20  PHE20      -0.2867
     24  CB        20.1710   13.7440   15.2030 C.3    20  PHE20       0.0534
     25  CG        20.7600   13.6460   13.8270 C.ar   20  PHE20      -0.0203
     26  CD1       20.4620   14.5870   12.8660 C.ar   20  PHE20      -0.0042
     27  CD2       21.5530   12.5890   13.4780 C.ar   20  PHE20      -0.0042
     28  CE1       21.0060   14.4690   11.5880 C.ar   20  PHE20      -0.0003
     29  CE2       22.0790   12.4420   12.2180 C.ar   20  PHE20      -0.0003
     30  CZ        21.8120   13.3750   11.2720 C.ar   20  PHE20      -0.0000
     31  N         15.6580   12.5630   11.3220 N.3    24  LEU24      -0.1245
     32  CA        15.9790   11.7320   10.1730 C.3    24  LEU24       0.1561
     33  C         14.7770   10.9110    9.7180 C.2    24  LEU24       0.2260
     34  O         14.3530   10.9080    8.5150 O.2    24  LEU24      -0.2867
     35  CB        17.1020   10.7500   10.5120 C.3    24  LEU24       0.0270
     36  CG        18.5040   11.2830   10.4090 C.3    24  LEU24       0.0019
     37  CD1       19.4120   10.1980   10.9400 C.3    24  LEU24       0.0001
     38  CD2       18.8580   11.7020    8.9710 C.3    24  LEU24       0.0001
     39  N         12.0380   13.3730    8.4280 N.3    27  MET27      -0.1245
     40  CA        12.3370   13.8970    7.1160 C.3    27  MET27       0.1570
     41  C         12.0970   12.8100    6.0450 C.2    27  MET27       0.2261
     42  O         11.5710   13.0850    4.9810 O.2    27  MET27      -0.2867
     43  CB        13.7490   14.3980    7.1040 C.3    27  MET27       0.0387
     44  CG        14.2120   15.2090    5.9120 C.3    27  MET27       0.0595
     45  SD        15.7800   14.5090    5.3650 S.3    27  MET27      -0.1393
     46  CE        15.0820   13.0870    4.5750 C.3    27  MET27       0.0692
     47  N         26.5600    6.4350   19.1390 N.3   221  ASP221     -0.1239
     48  CA        26.8140    7.1180   17.8440 C.3   221  ASP221      0.1674
     49  C         26.7140    6.1560   16.6610 C.2   221  ASP221      0.2266
     50  O         26.3620    6.5470   15.5790 O.2   221  ASP221     -0.2867
     51  CB        28.1650    7.8630   17.9150 C.3   221  ASP221      0.1410
     52  CG        28.0840    9.0620   18.8520 C.2   221  ASP221      0.3668
     53  OD1       27.2640   10.0060   18.6510 O.co2 221  ASP221     -0.2456
     54  OD2       28.7300    9.0230   19.8780 O.co2 221  ASP221     -0.2456
     55  N         23.1240    6.1320   15.7490 N.3   224  VAL224     -0.1245
     56  CA        22.8520    7.2590   14.8660 C.3   224  VAL224      0.1561
     57  C         23.3150    6.9650   13.4400 C.2   224  VAL224      0.2260
     58  O         22.6020    7.3150   12.4890 O.2   224  VAL224     -0.2867
     59  CB        23.5430    8.5620   15.3570 C.3   224  VAL224      0.0252
     60  CG1       23.3730    9.7090   14.3440 C.3   224  VAL224      0.0019
     61  CG2       22.9670    8.9960   16.7060 C.3   224  VAL224      0.0019
     62  N         21.2850    6.8930    9.8870 N.3   228  LEU228     -0.1245
     63  CA        21.6830    7.7440    8.8420 C.3   228  LEU228      0.1561
     64  C         21.8700    6.9350    7.5650 C.2   228  LEU228      0.2260
     65  O         21.4740    7.3530    6.5050 O.2   228  LEU228     -0.2867
     66  CB        22.9840    8.3770    9.2480 C.3   228  LEU228      0.0270
     67  CG        23.5780    9.4460    8.3580 C.3   228  LEU228      0.0019
     68  CD1       22.6760   10.6640    8.3710 C.3   228  LEU228      0.0001
     69  CD2       24.9420    9.8290    8.9420 C.3   228  LEU228      0.0001
     70  N         18.6240    5.9350    6.2050 N.3   231  THR231     -0.1203
     71  CA        18.0230    7.0880    5.5530 C.3   231  THR231      0.1994
     72  C         18.5600    7.4130    4.1470 C.2   231  THR231      0.2617
     73  O         17.7730    7.6280    3.1960 O.2   231  THR231     -0.2717
     74  CB        18.1880    8.3010    6.4840 C.3   231  THR231      0.1784
     75  OG1       17.5860    7.9510    7.7430 O.3   231  THR231     -0.2211
     76  CG2       17.5220    9.5230    5.8900 C.3   231  THR231      0.0376
     77  N         19.8830    7.4550    3.9990 N.am  232  ILE232     -0.1979
     78  CA        20.5180    7.5970    2.7140 C.3   232  ILE232      0.1595
     79  C         20.0870    6.4660    1.7800 C.2   232  ILE232      0.2287
     80  O         19.7970    6.7050    0.5950 O.2   232  ILE232     -0.2864
     81  CB        22.0930    7.5200    2.8210 C.3   232  ILE232      0.0276
     82  CG1       22.6670    8.6800    3.6340 C.3   232  ILE232      0.0022
     83  CG2       22.7130    7.5030    1.4460 C.3   232  ILE232      0.0022
     84  CD1       24.1080    8.4230    4.1170 C.3   232  ILE232      0.0001
     85  N         16.1090    6.6880    0.7240 N.3   235  ILE235     -0.1231
     86  CA        15.8910    7.6320   -0.2950 C.3   235  ILE235      0.1692
     87  C         16.5480    7.2720   -1.6390 C.2   235  ILE235      0.2592
     88  O         15.9340    7.4890   -2.6810 O.2   235  ILE235     -0.2718
     89  CB        16.0260    9.1160    0.1120 C.3   235  ILE235      0.0266
     90  CG1       17.3380    9.6810   -0.2350 C.3   235  ILE235      0.0019
     91  CG2       15.5290    9.4720    1.5400 C.3   235  ILE235      0.0020
     92  CD1       17.1860   10.4700   -1.4870 C.3   235  ILE235      0.0001
     93  N         17.7530    6.6930   -1.6300 N.am  236  SER236     -0.1952
     94  CA        18.3850    6.2700   -2.8720 C.3   236  SER236      0.1924
     95  C         17.6850    5.1050   -3.5410 C.2   236  SER236      0.2314
     96  O         17.4220    5.1320   -4.7750 O.2   236  SER236     -0.2863
     97  CB        19.8630    5.9380   -2.6160 C.3   236  SER236      0.2116
     98  OG        20.4920    7.0890   -2.1230 O.3   236  SER236     -0.2180
     99  N         14.9190    7.9560   -5.3670 N.3   240  ILE240     -0.1245
    100  CA        15.7460    8.2730   -6.5320 C.3   240  ILE240      0.1561
    101  C         15.5520    7.2030   -7.5720 C.2   240  ILE240      0.2260
    102  O         15.3310    7.4950   -8.7310 O.2   240  ILE240     -0.2867
    103  CB        17.2160    8.5140   -6.1410 C.3   240  ILE240      0.0252
    104  CG1       17.3040    9.7770   -5.2310 C.3   240  ILE240      0.0019
    105  CG2       18.1030    8.6990   -7.3840 C.3   240  ILE240      0.0019
    106  CD1       18.7040   10.0490   -4.7800 C.3   240  ILE240      0.0001
@<TRIPOS>BOND
     1   102   101    2
     2   101   100    1
     3   105   103    1
     4   100   103    1
     5   100    99    1
     6   103   104    1
     7   104   106    1
     8    96    95    2
     9    95    94    1
    10    94    97    1
    11    94    93    1
    12    88    87    2
    13    97    98    1
    14    87    93   am
    15    87    86    1
    16    92    90    1
    17    86    89    1
    18    86    85    1
    19    90    89    1
    20    89    91    1
    21    80    79    2
    22    83    81    1
    23    79    78    1
    24    78    81    1
    25    78    77    1
    26    81    82    1
    27    73    72    2
    28    82    84    1
    29    77    72   am
    30    72    71    1
    31    46    45    1
    32    42    41    2
    33    45    44    1
    34    71    70    1
    35    71    74    1
    36    76    74    1
    37    44    43    1
    38    41    40    1
    39    74    75    1
    40    65    64    2
    41    43    40    1
    42    40    39    1
    43    64    63    1
    44    67    68    1
    45    67    69    1
    46    67    66    1
    47    34    33    2
    48    63    66    1
    49    63    62    1
    50    38    36    1
    51    33    32    1
    52    32    35    1
    53    32    31    1
    54    36    35    1
    55    36    37    1
    56    30    28   ar
    57    30    29   ar
    58    28    26   ar
    59    29    27   ar
    60    58    57    2
    61    26    25   ar
    62    57    56    1
    63    23    22    2
    64    27    25   ar
    65    25    24    1
    66    60    59    1
    67    22    21    1
    68    56    59    1
    69    56    55    1
    70    24    21    1
    71    21    20    1
    72    59    61    1
    73    50    49    2
    74    49    48    1
    75    48    51    1
    76    48    47    1
    77    51    52    1
    78    14    13    2
    79    10     9    2
    80    53    52   ar
    81    52    54   ar
    82    13    12    1
    83    12    11    1
    84    12    15    1
    85     9    11   am
    86     9     8    1
    87    15    16    1
    88     8     7    1
    89    16    17    1
    90    19    17   am
    91    17    18    2
    92     6     5    1
    93     4     3    2
    94     3     2    1
    95     5     2    1
    96     1     2    1
