@<TRIPOS>MOLECULE
tmp/5g54A01.pdb
 96 91 0 0 0
SMALL
GASTEIGER

@<TRIPOS>ATOM
      1  N          4.0420   13.1610   -6.4180 N.3    38  PHE38      -0.1241
      2  CA         4.6440   13.2270   -7.7310 C.3    38  PHE38       0.1605
      3  C          4.3400   11.9680   -8.5930 C.2    38  PHE38       0.2264
      4  O          3.8520   12.0750   -9.7130 O.2    38  PHE38      -0.2867
      5  CB         6.1630   13.5300   -7.6400 C.3    38  PHE38       0.0534
      6  CG         6.8500   13.4790   -8.9550 C.ar   38  PHE38      -0.0203
      7  CD1        6.8720   14.5890   -9.7650 C.ar   38  PHE38      -0.0042
      8  CD2        7.4330   12.3090   -9.4070 C.ar   38  PHE38      -0.0042
      9  CE1        7.4700   14.5380  -11.0040 C.ar   38  PHE38      -0.0003
     10  CE2        8.0450   12.2590  -10.6510 C.ar   38  PHE38      -0.0003
     11  CZ         8.0770   13.3700  -11.4430 C.ar   38  PHE38      -0.0000
     12  N          2.0270   11.9460  -12.0850 N.3    42  VAL42      -0.1245
     13  CA         2.7380   11.6900  -13.3130 C.3    42  VAL42       0.1561
     14  C          2.2700   10.3890  -13.9830 C.2    42  VAL42       0.2260
     15  O          2.5070   10.1970  -15.1650 O.2    42  VAL42      -0.2867
     16  CB         4.2730   11.7870  -13.0210 C.3    42  VAL42       0.0252
     17  CG1        5.0990   11.0630  -14.0110 C.3    42  VAL42       0.0019
     18  CG2        4.6810   13.2670  -12.9510 C.3    42  VAL42       0.0019
     19  N          0.6080   10.0830  -17.5270 N.3    45  PHE45      -0.1241
     20  CA         1.4960   10.2590  -18.6840 C.3    45  PHE45       0.1605
     21  C          2.2930    9.0090  -19.0230 C.2    45  PHE45       0.2264
     22  O          3.1200    9.0440  -19.9100 O.2    45  PHE45      -0.2867
     23  CB         2.4810   11.4140  -18.4130 C.3    45  PHE45       0.0534
     24  CG         1.8100   12.6450  -17.9090 C.ar   45  PHE45      -0.0203
     25  CD1        0.8320   13.2570  -18.6680 C.ar   45  PHE45      -0.0042
     26  CD2        2.1490   13.1880  -16.6790 C.ar   45  PHE45      -0.0042
     27  CE1        0.2050   14.3950  -18.2180 C.ar   45  PHE45      -0.0003
     28  CE2        1.5090   14.3360  -16.2250 C.ar   45  PHE45      -0.0003
     29  CZ         0.5270   14.9140  -16.9650 C.ar   45  PHE45      -0.0000
     30  N         12.0790    7.6100   -9.1480 N.3   243  LEU243     -0.1245
     31  CA        12.1290    8.6920  -10.1440 C.3   243  LEU243      0.1561
     32  C         12.8220    8.2540  -11.4370 C.2   243  LEU243      0.2260
     33  O         12.3830    8.6600  -12.5200 O.2   243  LEU243     -0.2867
     34  CB        12.8740    9.9170   -9.5550 C.3   243  LEU243      0.0270
     35  CG        12.1670   10.5920   -8.3820 C.3   243  LEU243      0.0019
     36  CD1       13.1080   11.6470   -7.7610 C.3   243  LEU243      0.0001
     37  CD2       10.8240   11.1910   -8.8400 C.3   243  LEU243      0.0001
     38  N         10.4540    5.8990  -13.1970 N.3   246  THR246     -0.1203
     39  CA         9.3800    6.7030  -13.7890 C.3   246  THR246      0.1994
     40  C          9.8440    7.4830  -15.0150 C.2   246  THR246      0.2617
     41  O          9.1810    7.4200  -16.0120 O.2   246  THR246     -0.2717
     42  CB         8.5890    7.5290  -12.7360 C.3   246  THR246      0.1784
     43  OG1        7.8120    6.6080  -11.9470 O.3   246  THR246     -0.2211
     44  CG2        7.5860    8.4770  -13.3790 C.3   246  THR246      0.0376
     45  N         10.9990    8.1120  -14.9740 N.am  247  TYR247     -0.1975
     46  CA        11.5890    8.6780  -16.1610 C.3   247  TYR247      0.1639
     47  C         11.6050    7.6440  -17.3110 C.2   247  TYR247      0.2290
     48  O         11.2310    7.9590  -18.4270 O.2   247  TYR247     -0.2864
     49  CB        13.0120    9.2250  -15.8620 C.3   247  TYR247      0.0560
     50  CG        13.6750    9.6700  -17.1220 C.ar  247  TYR247     -0.0198
     51  CD1       13.2720   10.8570  -17.7400 C.ar  247  TYR247     -0.0009
     52  CD2       14.6030    8.8500  -17.7720 C.ar  247  TYR247     -0.0009
     53  CE1       13.8020   11.2320  -18.9800 C.ar  247  TYR247      0.0417
     54  CE2       15.1560    9.2240  -18.9960 C.ar  247  TYR247      0.0417
     55  CZ        14.7540   10.4240  -19.5920 C.ar  247  TYR247      0.1957
     56  OH        15.2800   10.8140  -20.8160 O.3   247  TYR247     -0.2866
     57  N          8.1880    6.8870  -18.6810 N.3   250  ILE250     -0.1245
     58  CA         7.5420    7.9660  -19.4980 C.3   250  ILE250      0.1561
     59  C          8.2180    8.0680  -20.8790 C.2   250  ILE250      0.2260
     60  O          7.5490    8.1270  -21.9020 O.2   250  ILE250     -0.2867
     61  CB         7.6050    9.3540  -18.8240 C.3   250  ILE250      0.0252
     62  CG1        6.9700    9.3630  -17.4480 C.3   250  ILE250      0.0019
     63  CG2        6.9480   10.4380  -19.6800 C.3   250  ILE250      0.0019
     64  CD1        5.4940    9.1820  -17.4670 C.3   250  ILE250      0.0001
     65  N          3.7030   15.4050  -22.2290 N.3   264  ALA264     -0.1231
     66  CA         4.3250   15.7200  -20.9730 C.3   264  ALA264      0.1694
     67  C          5.8030   16.0610  -21.1240 C.2   264  ALA264      0.2591
     68  O          6.2940   16.9910  -20.4700 O.2   264  ALA264     -0.2718
     69  CB         4.1620   14.5720  -19.9870 C.3   264  ALA264      0.0304
     70  N          6.5190   15.2950  -21.9380 N.am  265  LEU265     -0.1980
     71  CA         7.9370   15.5380  -22.1140 C.3   265  LEU265      0.1596
     72  C          8.1300   16.7980  -22.9680 C.2   265  LEU265      0.2287
     73  O          9.1020   17.5440  -22.7650 O.2   265  LEU265     -0.2864
     74  CB         8.6350   14.3160  -22.7410 C.3   265  LEU265      0.0297
     75  CG         8.7710   13.1010  -21.8210 C.3   265  LEU265      0.0022
     76  CD1        9.4000   11.9680  -22.5930 C.3   265  LEU265      0.0001
     77  CD2        9.5650   13.3680  -20.5650 C.3   265  LEU265      0.0001
     78  N          6.3230   19.4560  -23.0580 N.3   267  ARG267     -0.1231
     79  CA         6.0090   20.6590  -22.3000 C.3   267  ARG267      0.1694
     80  C          6.9360   20.8820  -21.0900 C.2   267  ARG267      0.2591
     81  O          6.6690   21.7680  -20.2800 O.2   267  ARG267     -0.2718
     82  CB         4.5350   20.6480  -21.8790 C.3   267  ARG267      0.0321
     83  CG         4.3350   20.2170  -20.4500 C.3   267  ARG267      0.0489
     84  CD         3.0650   19.4570  -20.2000 C.3   267  ARG267      0.2205
     85  NE         3.1020   18.9820  -18.8150 N.pl3 267  ARG267     -0.0865
     86  CZ         2.1720   18.2300  -18.2540 C.cat 267  ARG267      0.5346
     87  NH1        1.1050   17.8440  -18.9590 N.pl3 267  ARG267      0.1354
     88  NH2        2.3280   17.8530  -16.9850 N.pl3 267  ARG267      0.1354
     89  N          7.9770   20.0580  -20.9400 N.am  268  ILE268     -0.1980
     90  CA         9.1360   20.3990  -20.0890 C.3   268  ILE268      0.1595
     91  C         10.4090   20.6850  -20.9300 C.2   268  ILE268      0.2287
     92  O         11.4090   21.1100  -20.3710 O.2   268  ILE268     -0.2864
     93  CB         9.4060   19.3250  -18.9830 C.3   268  ILE268      0.0276
     94  CG1        9.8020   17.9580  -19.5720 C.3   268  ILE268      0.0022
     95  CG2        8.1840   19.1490  -18.0800 C.3   268  ILE268      0.0022
     96  CD1       10.5050   17.0500  -18.5790 C.3   268  ILE268      0.0001
@<TRIPOS>BOND
     1    78    79    1
     2    72    73    2
     3    72    71    1
     4    74    71    1
     5    74    75    1
     6    76    75    1
     7    79    82    1
     8    79    80    1
     9    65    66    1
    10    71    70    1
    11    70    67   am
    12    60    59    2
    13    82    83    1
    14    75    77    1
    15    67    66    1
    16    67    68    2
    17    80    89   am
    18    80    81    2
    19    66    69    1
    20    89    90    1
    21    91    92    2
    22    91    90    1
    23    59    58    1
    24    56    55    1
    25    83    84    1
    26    84    85    1
    27    90    93    1
    28    22    21    2
    29    63    61    1
    30    55    54   ar
    31    55    53   ar
    32    94    93    1
    33    94    96    1
    34    58    61    1
    35    58    57    1
    36    21    20    1
    37    54    52   ar
    38    93    95    1
    39    53    51   ar
    40    87    86    1
    41    61    62    1
    42    85    86    2
    43    20    23    1
    44    20    19    1
    45    25    27   ar
    46    25    24   ar
    47    48    47    2
    48    23    24    1
    49    86    88    1
    50    27    29   ar
    51    24    26   ar
    52    52    50   ar
    53    51    50   ar
    54    64    62    1
    55    47    46    1
    56    50    49    1
    57    29    28   ar
    58    26    28   ar
    59    46    49    1
    60    46    45    1
    61    41    40    2
    62    15    14    2
    63    40    45   am
    64    40    39    1
    65    17    16    1
    66    14    13    1
    67    39    38    1
    68    39    42    1
    69    44    42    1
    70    13    16    1
    71    13    12    1
    72    16    18    1
    73    42    43    1
    74    33    32    2
    75    11     9   ar
    76    11    10   ar
    77    32    31    1
    78     9     7   ar
    79    10     8   ar
    80    31    34    1
    81    31    30    1
    82     7     6   ar
    83     4     3    2
    84    34    35    1
    85     8     6   ar
    86     6     5    1
    87    37    35    1
    88     3     2    1
    89    35    36    1
    90     2     5    1
    91     2     1    1
