@<TRIPOS>MOLECULE
tmp/5g55A00.pdb
 175 165 0 0 0
SMALL
GASTEIGER

@<TRIPOS>ATOM
      1  N         47.0810   16.9160   41.1790 N.3   566  MET566     -0.1245
      2  CA        46.8200   17.7940   40.0380 C.3   566  MET566      0.1570
      3  C         46.0010   19.0300   40.3140 C.2   566  MET566      0.2261
      4  O         45.0280   18.9950   41.0630 O.2   566  MET566     -0.2867
      5  CB        46.2260   17.0090   38.8700 C.3   566  MET566      0.0387
      6  CG        47.0710   15.8180   38.4300 C.3   566  MET566      0.0595
      7  SD        46.7200   15.3080   36.7370 S.3   566  MET566     -0.1393
      8  CE        47.2870   16.7310   35.8080 C.3   566  MET566      0.0692
      9  N         43.5640   20.7860   38.9760 N.3   568  SER568     -0.1217
     10  CA        42.0880   20.6490   38.8660 C.3   568  SER568      0.1889
     11  C         41.2640   20.3720   40.1460 C.2   568  SER568      0.2288
     12  O         41.8000   19.9660   41.1720 O.2   568  SER568     -0.2866
     13  CB        41.7540   19.6010   37.7860 C.3   568  SER568      0.2089
     14  OG        42.3740   18.3500   38.0730 O.3   568  SER568     -0.2183
     15  N         42.6970   14.8110   41.2340 N.3   572  PRO572     -0.2116
     16  CA        43.2140   13.5200   40.8030 C.3   572  PRO572      0.1372
     17  C         44.6910   13.4000   41.1590 C.2   572  PRO572      0.2244
     18  O         45.3730   14.4070   41.2910 O.2   572  PRO572     -0.2868
     19  CB        43.0530   13.5820   39.2800 C.3   572  PRO572      0.0268
     20  CG        43.0620   15.0320   38.9520 C.3   572  PRO572      0.0207
     21  CD        42.3620   15.6780   40.0850 C.3   572  PRO572      0.0892
     22  N         48.5430   12.3940   40.2230 N.3   574  TRP574     -0.1241
     23  CA        49.4730   12.2390   39.1070 C.3   574  TRP574      0.1605
     24  C         50.5230   11.2380   39.5800 C.2   574  TRP574      0.2264
     25  O         51.4780   11.5780   40.2790 O.2   574  TRP574     -0.2867
     26  CB        50.0900   13.6020   38.7200 C.3   574  TRP574      0.0550
     27  CG        51.1680   13.5680   37.6470 C.ar  574  TRP574      0.0003
     28  CD1       52.4460   13.1670   37.8060 C.ar  574  TRP574      0.0946
     29  CD2       51.0520   13.9920   36.2800 C.ar  574  TRP574      0.0152
     30  NE1       53.1390   13.2780   36.6300 N.ar  574  TRP574     -0.2442
     31  CE2       52.3050   13.7860   35.6730 C.ar  574  TRP574      0.0810
     32  CE3       50.0000   14.5000   35.5030 C.ar  574  TRP574      0.0012
     33  CZ2       52.5500   14.0740   34.3320 C.ar  574  TRP574      0.0191
     34  CZ3       50.2480   14.7990   34.1670 C.ar  574  TRP574      0.0001
     35  CH2       51.5180   14.5850   33.5980 C.ar  574  TRP574      0.0015
     36  N         47.0130    8.6940   35.8010 N.3   593  ILE593     -0.1245
     37  CA        46.2140    9.6490   36.5410 C.3   593  ILE593      0.1561
     38  C         45.1260    8.8450   37.2080 C.2   593  ILE593      0.2260
     39  O         44.2680    8.2680   36.5240 O.2   593  ILE593     -0.2867
     40  CB        45.5240   10.6800   35.6300 C.3   593  ILE593      0.0252
     41  CG1       46.5530   11.6240   35.0020 C.3   593  ILE593      0.0019
     42  CG2       44.5140   11.4720   36.4240 C.3   593  ILE593      0.0019
     43  CD1       46.0240   12.4250   33.8470 C.3   593  ILE593      0.0001
     44  N         41.9480    8.9660   39.4470 N.3   595  LYS595     -0.1245
     45  CA        40.9150    9.8870   39.8760 C.3   595  LYS595      0.1561
     46  C         39.8800    9.1230   40.6670 C.2   595  LYS595      0.2260
     47  O         39.6790    7.9410   40.4350 O.2   595  LYS595     -0.2867
     48  CB        40.2680   10.5360   38.6510 C.3   595  LYS595      0.0271
     49  CG        39.2930   11.6800   38.9270 C.3   595  LYS595      0.0035
     50  CD        38.8130   12.2750   37.6010 C.3   595  LYS595      0.0206
     51  CE        38.0660   13.5830   37.8080 C.3   595  LYS595      0.1093
     52  NZ        37.4820   14.1420   36.5440 N.3   595  LYS595     -0.1314
     53  N         33.1930    7.8280   29.9190 N.3   603  ASP603     -0.1239
     54  CA        34.4320    7.9990   29.1320 C.3   603  ASP603      0.1674
     55  C         34.8150    6.7470   28.3250 C.2   603  ASP603      0.2266
     56  O         35.1420    6.8560   27.1570 O.2   603  ASP603     -0.2867
     57  CB        35.6340    8.4160   29.9650 C.3   603  ASP603      0.1410
     58  CG        35.5210    9.8200   30.5410 C.2   603  ASP603      0.3668
     59  OD1       34.5750   10.0590   31.3250 O.co2 603  ASP603     -0.2456
     60  OD2       36.4200   10.6710   30.2440 O.co2 603  ASP603     -0.2456
     61  N         43.2090    7.3070   24.4810 N.3   629  TYR629     -0.1241
     62  CA        44.0630    6.9440   25.6100 C.3   629  TYR629      0.1605
     63  C         43.4000    6.0000   26.6160 C.2   629  TYR629      0.2264
     64  O         42.1940    5.9790   26.7500 O.2   629  TYR629     -0.2867
     65  CB        44.4940    8.2210   26.3380 C.3   629  TYR629      0.0534
     66  CG        43.3020    9.0680   26.6970 C.ar  629  TYR629     -0.0201
     67  CD1       42.5220    8.7870   27.8250 C.ar  629  TYR629     -0.0009
     68  CD2       42.9410   10.1610   25.8950 C.ar  629  TYR629     -0.0009
     69  CE1       41.3990    9.5780   28.1410 C.ar  629  TYR629      0.0417
     70  CE2       41.8070   10.9640   26.2130 C.ar  629  TYR629      0.0417
     71  CZ        41.0540   10.6720   27.3240 C.ar  629  TYR629      0.1957
     72  OH        39.9590   11.4840   27.6080 O.3   629  TYR629     -0.2866
     73  N         43.4090    6.6270   34.3170 N.3   641  ILE641     -0.1231
     74  CA        43.5120    7.3200   33.0340 C.3   641  ILE641      0.1692
     75  C         44.9870    7.3870   32.6390 C.2   641  ILE641      0.2592
     76  O         45.8600    7.6800   33.4490 O.2   641  ILE641     -0.2718
     77  CB        42.9070    8.7470   33.1130 C.3   641  ILE641      0.0266
     78  CG1       41.3990    8.6590   33.2610 C.3   641  ILE641      0.0019
     79  CG2       43.2170    9.5590   31.8570 C.3   641  ILE641      0.0020
     80  CD1       40.7400    9.9350   33.6330 C.3   641  ILE641      0.0001
     81  N         45.2640    7.0960   31.3830 N.am  642  GLU642     -0.1966
     82  CA        46.6240    7.1270   30.8880 C.3   642  GLU642      0.1733
     83  C         47.1040    8.5590   30.6550 C.2   642  GLU642      0.2616
     84  O         46.3410    9.4000   30.1730 O.2   642  GLU642     -0.2715
     85  CB        46.6730    6.3650   29.5790 C.3   642  GLU642      0.0429
     86  CG        47.9750    6.4630   28.8050 C.3   642  GLU642      0.1163
     87  CD        47.8780    5.7330   27.4720 C.2   642  GLU642      0.3649
     88  OE1       46.7400    5.6100   26.9380 O.co2 642  GLU642     -0.2457
     89  OE2       48.9310    5.2590   26.9840 O.co2 642  GLU642     -0.2457
     90  N         48.3550    8.8250   31.0300 N.am  643  ILE643     -0.1963
     91  CA        48.9970   10.1150   30.7790 C.3   643  ILE643      0.1727
     92  C         49.7780    9.9650   29.4580 C.2   643  ILE643      0.2616
     93  O         50.6350    9.0780   29.3090 O.2   643  ILE643     -0.2715
     94  CB        50.0290   10.5220   31.8910 C.3   643  ILE643      0.0290
     95  CG1       49.4100   10.5630   33.2910 C.3   643  ILE643      0.0022
     96  CG2       50.6690   11.8690   31.5530 C.3   643  ILE643      0.0023
     97  CD1       50.4420   10.8300   34.4540 C.3   643  ILE643      0.0001
     98  N         49.4640   10.8080   28.4910 N.am  644  VAL644     -0.1977
     99  CA        50.2020   10.7820   27.2340 C.3   644  VAL644      0.1596
    100  C         51.5070   11.5670   27.4460 C.2   644  VAL644      0.2287
    101  O         51.4810   12.7080   27.8900 O.2   644  VAL644     -0.2864
    102  CB        49.3680   11.3770   26.0990 C.3   644  VAL644      0.0276
    103  CG1       50.0920   11.2240   24.7660 C.3   644  VAL644      0.0022
    104  CG2       47.9920   10.6960   26.0830 C.3   644  VAL644      0.0022
    105  N         52.4930   15.9860   26.2740 N.3   647  ALA647     -0.1231
    106  CA        51.3170   16.7030   25.8850 C.3   647  ALA647      0.1694
    107  C         50.9320   17.7790   26.8730 C.2   647  ALA647      0.2593
    108  O         51.2260   17.6950   28.0690 O.2   647  ALA647     -0.2718
    109  CB        50.1610   15.7080   25.7310 C.3   647  ALA647      0.0304
    110  N         50.2570   18.7870   26.3460 N.am  648  THR648     -0.1939
    111  CA        49.6870   19.8640   27.1360 C.3   648  THR648      0.2028
    112  C         48.3690   20.1580   26.4600 C.2   648  THR648      0.2642
    113  O         48.1420   19.7150   25.3350 O.2   648  THR648     -0.2714
    114  CB        50.5940   21.1490   27.2420 C.3   648  THR648      0.1808
    115  OG1       49.8830   22.1810   27.9540 O.3   648  THR648     -0.2208
    116  CG2       51.0090   21.6700   25.8700 C.3   648  THR648      0.0379
    117  N         47.5080   20.8860   27.1530 N.am  649  THR649     -0.1950
    118  CA        46.2060   21.2170   26.6320 C.3   649  THR649      0.1897
    119  C         46.3530   22.4190   25.7200 C.2   649  THR649      0.2313
    120  O         47.3130   23.1900   25.8640 O.2   649  THR649     -0.2863
    121  CB        45.2560   21.5970   27.7590 C.3   649  THR649      0.1794
    122  OG1       45.5660   22.9140   28.2060 O.3   649  THR649     -0.2208
    123  CG2       45.3590   20.6120   28.9340 C.3   649  THR649      0.0378
    124  N         46.6300   25.9110   27.5490 N.3   652  LYS652     -0.1245
    125  CA        47.8970   26.2800   28.1810 C.3   652  LYS652      0.1561
    126  C         48.9870   26.7170   27.2060 C.2   652  LYS652      0.2260
    127  O         49.9760   27.3310   27.6230 O.2   652  LYS652     -0.2867
    128  CB        48.4080   25.1790   29.1190 C.3   652  LYS652      0.0271
    129  CG        47.5960   25.0470   30.4040 C.3   652  LYS652      0.0035
    130  CD        48.1900   24.0030   31.3620 C.3   652  LYS652      0.0206
    131  CE        47.4360   23.9970   32.6950 C.3   652  LYS652      0.1093
    132  NZ        48.0750   23.1070   33.7100 N.3   652  LYS652     -0.1314
    133  N         40.4040   23.7320   26.9020 N.3   712  ASP712     -0.1239
    134  CA        41.1620   23.1480   28.0060 C.3   712  ASP712      0.1674
    135  C         40.9010   21.6280   27.9520 C.2   712  ASP712      0.2266
    136  O         41.6830   20.8390   28.4650 O.2   712  ASP712     -0.2867
    137  CB        40.7980   23.7380   29.3780 C.3   712  ASP712      0.1410
    138  CG        41.9630   23.6310   30.3980 C.2   712  ASP712      0.3668
    139  OD1       43.1530   23.5100   29.9870 O.co2 712  ASP712     -0.2456
    140  OD2       41.6870   23.6860   31.6170 O.co2 712  ASP712     -0.2456
    141  N         43.9470   18.5640   23.7940 N.3   715  MET715     -0.1245
    142  CA        45.3670   18.4680   24.0240 C.3   715  MET715      0.1570
    143  C         46.1620   18.0700   22.7850 C.2   715  MET715      0.2261
    144  O         45.5880   17.5370   21.8110 O.2   715  MET715     -0.2867
    145  CB        45.6090   17.4420   25.1380 C.3   715  MET715      0.0387
    146  CG        44.9270   17.7820   26.4800 C.3   715  MET715      0.0595
    147  SD        45.4270   16.6890   27.8440 S.3   715  MET715     -0.1393
    148  CE        47.1470   17.1460   28.1160 C.3   715  MET715      0.0692
    149  N         44.2290   15.6440   20.3760 N.3   723  PHE723     -0.1241
    150  CA        43.3010   14.6760   20.9880 C.3   723  PHE723      0.1605
    151  C         42.4320   15.2790   22.0750 C.2   723  PHE723      0.2264
    152  O         42.9240   16.0470   22.9010 O.2   723  PHE723     -0.2867
    153  CB        44.0240   13.4130   21.4910 C.3   723  PHE723      0.0534
    154  CG        44.9190   13.6280   22.6830 C.ar  723  PHE723     -0.0203
    155  CD1       46.2460   14.0180   22.5200 C.ar  723  PHE723     -0.0042
    156  CD2       44.4510   13.3900   23.9690 C.ar  723  PHE723     -0.0042
    157  CE1       47.0870   14.1980   23.6330 C.ar  723  PHE723     -0.0003
    158  CE2       45.2810   13.5520   25.0770 C.ar  723  PHE723     -0.0003
    159  CZ        46.5980   13.9570   24.9150 C.ar  723  PHE723     -0.0000
    160  N         39.8100   15.1320   25.4620 N.3   725  ILE725     -0.1231
    161  CA        39.9080   14.4850   26.7940 C.3   725  ILE725      0.1692
    162  C         38.6860   14.8440   27.6320 C.2   725  ILE725      0.2592
    163  O         37.8760   15.6340   27.1820 O.2   725  ILE725     -0.2718
    164  CB        41.2140   14.8930   27.5520 C.3   725  ILE725      0.0266
    165  CG1       41.2440   16.3870   27.9030 C.3   725  ILE725      0.0019
    166  CG2       42.4870   14.5020   26.8040 C.3   725  ILE725      0.0020
    167  CD1       40.8160   16.7070   29.3360 C.3   725  ILE725      0.0001
    168  N         38.5620   14.2820   28.8410 N.am  726  ASP726     -0.1974
    169  CA        37.4260   14.5380   29.7610 C.3   726  ASP726      0.1709
    170  C         36.0500   14.5900   29.1620 C.2   726  ASP726      0.2293
    171  O         35.3980   15.6390   29.1770 O.2   726  ASP726     -0.2864
    172  CB        37.5870   15.8310   30.5570 C.3   726  ASP726      0.1436
    173  CG        38.2940   15.6240   31.8590 C.2   726  ASP726      0.3671
    174  OD1       39.3780   15.0090   31.8480 O.co2 726  ASP726     -0.2456
    175  OD2       37.7440   16.0450   32.8950 O.co2 726  ASP726     -0.2456
@<TRIPOS>BOND
     1   149   150    1
     2   150   153    1
     3   150   151    1
     4   153   154    1
     5   144   143    2
     6   151   152    2
     7   155   154   ar
     8   155   157   ar
     9   154   156   ar
    10   143   142    1
    11   157   159   ar
    12   141   142    1
    13   156   158   ar
    14   142   145    1
    15    61    62    1
    16   103   102    1
    17   159   158   ar
    18   145   146    1
    19   113   112    2
    20   160   161    1
    21    62    65    1
    22    62    63    1
    23   119   120    2
    24   119   118    1
    25   109   106    1
    26   116   114    1
    27   106   105    1
    28   106   107    1
    29    68    70   ar
    30    68    66   ar
    31   104   102    1
    32   102    99    1
    33    70    71   ar
    34    65    66    1
    35   110   107   am
    36   110   111    1
    37   112   111    1
    38   112   117   am
    39   146   147    1
    40    63    64    2
    41   118   117    1
    42   118   121    1
    43    66    67   ar
    44   161   164    1
    45   161   162    1
    46   166   164    1
    47   107   108    2
    48   133   134    1
    49    88    87   ar
    50    89    87   ar
    51   111   114    1
    52    56    55    2
    53   163   162    2
    54   126   127    2
    55   126   125    1
    56    99   100    1
    57    99    98    1
    58   114   115    1
    59    71    72    1
    60    71    69   ar
    61   100   101    2
    62    87    86    1
    63   124   125    1
    64   164   165    1
    65   162   168   am
    66   121   122    1
    67   121   123    1
    68    67    69   ar
    69   147   148    1
    70   165   167    1
    71   135   134    1
    72   135   136    2
    73   134   137    1
    74   125   128    1
    75    55    54    1
    76    98    92   am
    77    86    85    1
    78   168   169    1
    79   128   129    1
    80    54    53    1
    81    54    57    1
    82   170   171    2
    83   170   169    1
    84    93    92    2
    85   137   138    1
    86    92    91    1
    87    85    82    1
    88   169   172    1
    89    57    58    1
    90   139   138   ar
    91    84    83    2
    92    60    58   ar
    93   138   140   ar
    94   129   130    1
    95    58    59   ar
    96   172   173    1
    97    83    82    1
    98    83    90   am
    99    91    90    1
   100    91    94    1
   101    82    81    1
   102   130   131    1
   103    81    75   am
   104    96    94    1
   105   174   173   ar
   106    79    77    1
   107   173   175   ar
   108    94    95    1
   109    75    74    1
   110    75    76    2
   111   131   132    1
   112    74    77    1
   113    74    73    1
   114    77    78    1
   115    78    80    1
   116    95    97    1
   117    35    34   ar
   118    35    33   ar
   119    43    41    1
   120    34    32   ar
   121    33    31   ar
   122    41    40    1
   123    32    29   ar
   124    40    42    1
   125    40    37    1
   126    31    29   ar
   127    31    30   ar
   128    36    37    1
   129     8     7    1
   130    29    27   ar
   131    39    38    2
   132    37    38    1
   133    52    51    1
   134    30    28   ar
   135     7     6    1
   136    50    51    1
   137    50    49    1
   138    27    28   ar
   139    27    26    1
   140    13    14    1
   141    13    10    1
   142     6     5    1
   143    48    49    1
   144    48    45    1
   145    26    23    1
   146    10     9    1
   147    10    11    1
   148     5     2    1
   149    20    19    1
   150    20    21    1
   151    23    24    1
   152    23    22    1
   153    19    16    1
   154    44    45    1
   155    24    25    2
   156    45    46    1
   157     2     3    1
   158     2     1    1
   159    21    15    1
   160    11    12    2
   161     3     4    2
   162    47    46    2
   163    16    17    1
   164    16    15    1
   165    17    18    2
