@<TRIPOS>MOLECULE
tmp/5g57B00.pdb
 200 191 0 0 0
SMALL
GASTEIGER

@<TRIPOS>ATOM
      1  N         28.1410   25.6090   23.8450 N.3    83  TYR83      -0.1227
      2  CA        28.4410   26.3470   25.1170 C.3    83  TYR83       0.1736
      3  C         27.9660   27.7860   25.1500 C.2    83  TYR83       0.2595
      4  O         27.2190   28.1670   26.0310 O.2    83  TYR83      -0.2718
      5  CB        29.9230   26.2500   25.4520 C.3    83  TYR83       0.0548
      6  CG        30.2650   26.9110   26.7750 C.ar   83  TYR83      -0.0200
      7  CD1       30.1990   26.2010   27.9700 C.ar   83  TYR83      -0.0009
      8  CD2       30.6600   28.2490   26.8330 C.ar   83  TYR83      -0.0009
      9  CE1       30.5260   26.8010   29.1900 C.ar   83  TYR83       0.0417
     10  CE2       30.9800   28.8660   28.0450 C.ar   83  TYR83       0.0417
     11  CZ        30.8920   28.1370   29.2290 C.ar   83  TYR83       0.1957
     12  OH        31.2200   28.7180   30.4300 O.3    83  TYR83      -0.2866
     13  N         28.3610   28.5940   24.1680 N.am   84  HIS84      -0.1975
     14  CA        28.0220   30.0300   24.1570 C.3    84  HIS84       0.1656
     15  C         26.6150   30.3300   23.6350 C.2    84  HIS84       0.2291
     16  O         26.4200   31.0820   22.6750 O.2    84  HIS84      -0.2864
     17  CB        29.0870   30.8290   23.3840 C.3    84  HIS84       0.0771
     18  CG        30.3800   30.9530   24.1190 C.ar   84  HIS84       0.0820
     19  ND1       31.4670   30.1450   23.8800 N.ar   84  HIS84      -0.2267
     20  CD2       30.7310   31.7520   25.1490 C.ar   84  HIS84       0.1154
     21  CE1       32.4490   30.4700   24.6970 C.ar   84  HIS84       0.1986
     22  NE2       32.0190   31.4330   25.4860 N.ar   84  HIS84      -0.2212
     23  N         27.3210   34.9040   19.5480 N.3   128  HIS128     -0.1241
     24  CA        28.4810   34.0460   19.5190 C.3   128  HIS128      0.1621
     25  C         28.2220   32.8240   18.5990 C.2   128  HIS128      0.2264
     26  O         27.1400   32.2270   18.6260 O.2   128  HIS128     -0.2867
     27  CB        28.8270   33.5570   20.9480 C.3   128  HIS128      0.0745
     28  CG        30.2770   33.2920   21.1960 C.ar  128  HIS128      0.0817
     29  ND1       30.9420   32.2160   20.6580 N.ar  128  HIS128     -0.2268
     30  CD2       31.1590   33.8890   22.0340 C.ar  128  HIS128      0.1154
     31  CE1       32.1900   32.1970   21.0850 C.ar  128  HIS128      0.1986
     32  NE2       32.3440   33.2050   21.9330 N.ar  128  HIS128     -0.2212
     33  N         36.3910   31.4930   18.7810 N.3   132  ASN132     -0.1240
     34  CA        37.0980   32.5660   19.5620 C.3   132  ASN132      0.1653
     35  C         37.7120   33.6690   18.6990 C.2   132  ASN132      0.2266
     36  O         37.6570   33.6300   17.4590 O.2   132  ASN132     -0.2867
     37  CB        38.0990   31.9260   20.5410 C.3   132  ASN132      0.1155
     38  CG        39.3160   31.3410   19.8840 C.2   132  ASN132      0.2627
     39  OD1       39.5690   31.4760   18.7020 O.2   132  ASN132     -0.2716
     40  ND2       40.1200   30.6700   20.6950 N.am  132  ASN132     -0.0877
     41  N         40.7350   34.5250   18.1230 N.3   134  SER134     -0.1217
     42  CA        41.8330   34.0150   17.3360 C.3   134  SER134      0.1889
     43  C         41.3900   33.4070   15.9910 C.2   134  SER134      0.2288
     44  O         42.0460   33.5910   14.9520 O.2   134  SER134     -0.2866
     45  CB        42.6030   32.9780   18.1690 C.3   134  SER134      0.2089
     46  OG        43.6720   32.4960   17.4090 O.3   134  SER134     -0.2183
     47  N         35.5710   41.1710   29.3120 N.3   198  THR198     -0.1218
     48  CA        35.4390   39.7010   29.2730 C.3   198  THR198      0.1862
     49  C         36.3600   39.0170   28.2590 C.2   198  THR198      0.2287
     50  O         36.4770   37.8140   28.3010 O.2   198  THR198     -0.2866
     51  CB        34.0090   39.2050   29.0520 C.3   198  THR198      0.1770
     52  OG1       33.5170   39.6340   27.7770 O.3   198  THR198     -0.2211
     53  CG2       33.0940   39.7210   30.1670 C.3   198  THR198      0.0375
     54  N         39.3810   37.3030   27.3600 N.3   200  MET200     -0.1245
     55  CA        40.4110   36.6620   28.2260 C.3   200  MET200      0.1570
     56  C         41.8520   37.0150   27.8690 C.2   200  MET200      0.2261
     57  O         42.7780   36.7920   28.6820 O.2   200  MET200     -0.2867
     58  CB        40.2450   35.1440   28.2950 C.3   200  MET200      0.0387
     59  CG        39.0330   34.6850   29.1090 C.3   200  MET200      0.0595
     60  SD        39.1330   35.2150   30.8450 S.3   200  MET200     -0.1393
     61  CE        40.3920   34.1100   31.4560 C.3   200  MET200      0.0692
     62  N         31.7570   34.7170   34.4070 N.3   237  ASP237     -0.1225
     63  CA        32.1450   34.0850   33.1590 C.3   237  ASP237      0.1805
     64  C         33.0250   32.8610   33.3670 C.2   237  ASP237      0.2597
     65  O         32.9670   31.9350   32.5760 O.2   237  ASP237     -0.2718
     66  CB        32.8990   35.0930   32.2540 C.3   237  ASP237      0.1424
     67  CG        32.5050   35.0110   30.7870 C.2   237  ASP237      0.3668
     68  OD1       31.5270   34.3120   30.4240 O.co2 237  ASP237     -0.2456
     69  OD2       33.2040   35.7080   29.9990 O.co2 237  ASP237     -0.2456
     70  N         33.8940   32.8670   34.3870 N.am  238  ILE238     -0.1980
     71  CA        34.7170   31.7040   34.6520 C.3   238  ILE238      0.1595
     72  C         34.2800   30.9170   35.9060 C.2   238  ILE238      0.2287
     73  O         35.0800   30.1850   36.5080 O.2   238  ILE238     -0.2864
     74  CB        36.2170   32.0570   34.6780 C.3   238  ILE238      0.0276
     75  CG1       36.5490   33.0540   35.7800 C.3   238  ILE238      0.0022
     76  CG2       36.6650   32.6100   33.3320 C.3   238  ILE238      0.0022
     77  CD1       38.0510   33.1450   36.0270 C.3   238  ILE238      0.0001
     78  N         32.2120   28.3020   36.1860 N.3   240  ASN240     -0.1225
     79  CA        31.7320   26.9090   36.0350 C.3   240  ASN240      0.1785
     80  C         32.4550   25.9680   37.0320 C.2   240  ASN240      0.2597
     81  O         31.8670   25.0380   37.5750 O.2   240  ASN240     -0.2718
     82  CB        31.9740   26.3570   34.6240 C.3   240  ASN240      0.1169
     83  CG        31.1410   27.0290   33.5170 C.2   240  ASN240      0.2627
     84  OD1       31.5340   26.9330   32.3530 O.2   240  ASN240     -0.2716
     85  ND2       30.0440   27.7020   33.8430 N.am  240  ASN240     -0.0877
     86  N         33.7310   26.2290   37.2660 N.am  241  VAL241     -0.1980
     87  CA        34.5100   25.4250   38.1880 C.3   241  VAL241      0.1595
     88  C         34.1810   25.6720   39.6780 C.2   241  VAL241      0.2287
     89  O         34.7950   25.0340   40.5240 O.2   241  VAL241     -0.2864
     90  CB        36.0150   25.6120   37.9850 C.3   241  VAL241      0.0276
     91  CG1       36.4680   25.1140   36.6080 C.3   241  VAL241      0.0022
     92  CG2       36.4300   27.0380   38.2130 C.3   241  VAL241      0.0022
     93  N         29.4570   21.2380   37.2480 N.3   248  SER248     -0.1217
     94  CA        30.7320   21.6860   36.7250 C.3   248  SER248      0.1889
     95  C         31.2040   20.7780   35.5620 C.2   248  SER248      0.2288
     96  O         31.6790   21.2530   34.5270 O.2   248  SER248     -0.2866
     97  CB        31.7240   21.7690   37.8560 C.3   248  SER248      0.2089
     98  OG        32.9600   22.3160   37.4390 O.3   248  SER248     -0.2183
     99  N         29.1950   21.5300   32.3340 N.3   251  TRP251     -0.1227
    100  CA        29.7720   22.7230   31.6400 C.3   251  TRP251      0.1737
    101  C         31.0480   22.3450   30.9000 C.2   251  TRP251      0.2595
    102  O         31.2750   22.7840   29.7630 O.2   251  TRP251     -0.2718
    103  CB        30.0360   23.8910   32.6150 C.3   251  TRP251      0.0564
    104  CG        28.8340   24.5440   33.1670 C.ar  251  TRP251      0.0003
    105  CD1       28.4850   24.6290   34.5040 C.ar  251  TRP251      0.0946
    106  CD2       27.7880   25.2050   32.4470 C.ar  251  TRP251      0.0152
    107  NE1       27.2960   25.3040   34.6390 N.ar  251  TRP251     -0.2442
    108  CE2       26.8490   25.6750   33.4070 C.ar  251  TRP251      0.0810
    109  CE3       27.5630   25.4830   31.0890 C.ar  251  TRP251      0.0012
    110  CZ2       25.7290   26.3780   33.0560 C.ar  251  TRP251      0.0191
    111  CZ3       26.4180   26.1580   30.7360 C.ar  251  TRP251      0.0001
    112  CH2       25.5100   26.5990   31.6970 C.ar  251  TRP251      0.0015
    113  N         31.9070   21.5530   31.5480 N.am  252  ALA252     -0.1980
    114  CA        33.1850   21.1570   30.9680 C.3   252  ALA252      0.1597
    115  C         33.0130   20.3320   29.6530 C.2   252  ALA252      0.2287
    116  O         33.7400   20.5350   28.6690 O.2   252  ALA252     -0.2864
    117  CB        34.0010   20.3810   31.9850 C.3   252  ALA252      0.0319
    118  N         31.8190   22.9740   26.9150 N.3   255  VAL255     -0.1231
    119  CA        32.8910   23.8070   26.3810 C.3   255  VAL255      0.1692
    120  C         33.8680   23.0110   25.5160 C.2   255  VAL255      0.2592
    121  O         34.3540   23.5100   24.4930 O.2   255  VAL255     -0.2718
    122  CB        33.6120   24.6370   27.4660 C.3   255  VAL255      0.0266
    123  CG1       34.7010   23.8600   28.1920 C.3   255  VAL255      0.0020
    124  CG2       34.2590   25.8660   26.8400 C.3   255  VAL255      0.0020
    125  N         34.1500   21.7680   25.9130 N.am  256  THR256     -0.1953
    126  CA        35.0620   20.9030   25.1860 C.3   256  THR256      0.1897
    127  C         34.5680   20.6360   23.7520 C.2   256  THR256      0.2313
    128  O         35.3230   20.7070   22.7830 O.2   256  THR256     -0.2863
    129  CB        35.2960   19.5790   25.9920 C.3   256  THR256      0.1794
    130  OG1       35.9880   19.8890   27.2150 O.3   256  THR256     -0.2208
    131  CG2       36.1600   18.5980   25.2050 C.3   256  THR256      0.0378
    132  N         35.0420   23.7820   21.6590 N.3   259  PHE259     -0.1241
    133  CA        36.4150   23.9090   21.2370 C.3   259  PHE259      0.1605
    134  C         36.7650   22.9650   20.0960 C.2   259  PHE259      0.2264
    135  O         37.4580   23.3440   19.1540 O.2   259  PHE259     -0.2867
    136  CB        37.3860   23.6730   22.3880 C.3   259  PHE259      0.0534
    137  CG        37.4050   24.7890   23.4490 C.ar  259  PHE259     -0.0203
    138  CD1       36.6580   25.9610   23.3150 C.ar  259  PHE259     -0.0042
    139  CD2       38.1900   24.6330   24.5770 C.ar  259  PHE259     -0.0042
    140  CE1       36.7080   26.9750   24.2810 C.ar  259  PHE259     -0.0003
    141  CE2       38.2570   25.6410   25.5380 C.ar  259  PHE259     -0.0003
    142  CZ        37.5200   26.8070   25.3790 C.ar  259  PHE259     -0.0000
    143  N         45.4080   24.2020   17.4530 N.3   274  LEU274     -0.1245
    144  CA        46.1170   23.9560   18.7290 C.3   274  LEU274      0.1561
    145  C         45.6360   22.6230   19.3100 C.2   274  LEU274      0.2260
    146  O         44.4900   22.2430   19.1040 O.2   274  LEU274     -0.2867
    147  CB        45.8850   25.1040   19.7070 C.3   274  LEU274      0.0270
    148  CG        46.4090   26.4760   19.2890 C.3   274  LEU274      0.0019
    149  CD1       45.9340   27.5490   20.2620 C.3   274  LEU274      0.0001
    150  CD2       47.9360   26.4650   19.2000 C.3   274  LEU274      0.0001
    151  N         44.5310   21.3700   22.1220 N.3   276  MET276     -0.1230
    152  CA        43.2930   21.3560   22.9270 C.3   276  MET276      0.1702
    153  C         42.0150   21.6690   22.1350 C.2   276  MET276      0.2592
    154  O         40.9340   21.5230   22.6570 O.2   276  MET276     -0.2718
    155  CB        43.3940   22.3060   24.1240 C.3   276  MET276      0.0401
    156  CG        43.7060   23.7430   23.8080 C.3   276  MET276      0.0596
    157  SD        45.3220   24.1060   23.0790 S.3   276  MET276     -0.1393
    158  CE        46.4860   23.3500   24.2010 C.3   276  MET276      0.0692
    159  N         42.1630   22.1190   20.8910 N.am  277  PHE277     -0.1976
    160  CA        41.0370   22.2250   19.9700 C.3   277  PHE277      0.1639
    161  C         40.9580   21.0270   19.0170 C.2   277  PHE277      0.2290
    162  O         40.0330   20.9830   18.1960 O.2   277  PHE277     -0.2864
    163  CB        41.1200   23.5300   19.1610 C.3   277  PHE277      0.0560
    164  CG        40.9820   24.7920   19.9870 C.ar  277  PHE277     -0.0200
    165  CD1       42.0560   25.2750   20.7470 C.ar  277  PHE277     -0.0042
    166  CD2       39.8120   25.5290   19.9670 C.ar  277  PHE277     -0.0042
    167  CE1       41.9410   26.4590   21.4730 C.ar  277  PHE277     -0.0003
    168  CE2       39.6830   26.7070   20.6910 C.ar  277  PHE277     -0.0003
    169  CZ        40.7520   27.1810   21.4440 C.ar  277  PHE277     -0.0000
    170  N         42.1990   18.8790   31.3130 N.3   288  GLY288     -0.1210
    171  CA        41.9180   20.2410   30.9270 C.3   288  GLY288      0.1956
    172  C         41.3690   21.0580   32.1060 C.2   288  GLY288      0.2611
    173  O         41.7690   22.1920   32.2980 O.2   288  GLY288     -0.2717
    174  N         40.4540   20.4750   32.8700 N.am  289  GLN289     -0.1979
    175  CA        39.8440   21.1670   34.0120 C.3   289  GLN289      0.1601
    176  C         40.8500   21.4630   35.1190 C.2   289  GLN289      0.2287
    177  O         40.8720   22.5760   35.6500 O.2   289  GLN289     -0.2864
    178  CB        38.6570   20.4030   34.5570 C.3   289  GLN289      0.0394
    179  CG        37.4570   20.4080   33.6230 C.3   289  GLN289      0.0908
    180  CD        36.9690   21.8210   33.2910 C.2   289  GLN289      0.2608
    181  OE1       36.3360   22.4810   34.1060 O.2   289  GLN289     -0.2717
    182  NE2       37.2680   22.2790   32.0710 N.am  289  GLN289     -0.0878
    183  N         42.9760   24.3310   33.8190 N.3   292  PHE292     -0.1241
    184  CA        42.2660   25.6070   33.8760 C.3   292  PHE292      0.1605
    185  C         42.1900   26.0870   35.3530 C.2   292  PHE292      0.2264
    186  O         42.4070   27.2970   35.6560 O.2   292  PHE292     -0.2867
    187  CB        40.8730   25.4230   33.2980 C.3   292  PHE292      0.0534
    188  CG        40.0600   26.6570   33.2580 C.ar  292  PHE292     -0.0203
    189  CD1       40.4550   27.7360   32.4870 C.ar  292  PHE292     -0.0042
    190  CD2       38.8660   26.7260   33.9220 C.ar  292  PHE292     -0.0042
    191  CE1       39.6870   28.8740   32.4030 C.ar  292  PHE292     -0.0003
    192  CE2       38.0890   27.8810   33.8540 C.ar  292  PHE292     -0.0003
    193  CZ        38.4960   28.9500   33.0920 C.ar  292  PHE292     -0.0000
    194  N         44.4900   29.3090   35.8410 N.3   296  VAL296     -0.1245
    195  CA        43.5620   30.4400   35.6390 C.3   296  VAL296      0.1561
    196  C         42.6160   30.6670   36.8070 C.2   296  VAL296      0.2260
    197  O         42.6860   31.7240   37.4610 O.2   296  VAL296     -0.2867
    198  CB        42.7680   30.3210   34.3000 C.3   296  VAL296      0.0252
    199  CG1       41.7910   31.4890   34.1250 C.3   296  VAL296      0.0019
    200  CG2       43.7360   30.2130   33.1330 C.3   296  VAL296      0.0019
@<TRIPOS>BOND
     1    44    43    2
     2    43    42    1
     3    42    41    1
     4    42    45    1
     5    46    45    1
     6   143   144    1
     7    36    35    2
     8   162   161    2
     9    25    26    2
    10    25    24    1
    11    35    34    1
    12    39    38    2
    13   144   145    1
    14   144   147    1
    15    33    34    1
    16   161   160    1
    17   146   145    2
    18   135   134    2
    19   163   160    1
    20   163   164    1
    21   150   148    1
    22   148   147    1
    23   148   149    1
    24    24    23    1
    25    24    27    1
    26    34    37    1
    27    38    37    1
    28    38    40   am
    29   166   164   ar
    30   166   168   ar
    31   160   159    1
    32   164   165   ar
    33   134   133    1
    34    29    31   ar
    35    29    28   ar
    36   168   169   ar
    37   165   167   ar
    38   159   153   am
    39    27    28    1
    40    31    32   ar
    41    28    30   ar
    42   133   132    1
    43   133   136    1
    44   169   167   ar
    45    32    30   ar
    46   151   152    1
    47   153   154    2
    48   153   152    1
    49   136   137    1
    50    16    15    2
    51   128   127    2
    52   152   155    1
    53   157   156    1
    54   157   158    1
    55   138   137   ar
    56   138   140   ar
    57    17    18    1
    58    17    14    1
    59   137   139   ar
    60    15    14    1
    61   127   126    1
    62   156   155    1
    63     1     2    1
    64    19    18   ar
    65    19    21   ar
    66    18    20   ar
    67    14    13    1
    68    13     3   am
    69   140   142   ar
    70   121   120    2
    71   139   141   ar
    72    21    22   ar
    73     2     3    1
    74     2     5    1
    75    20    22   ar
    76     3     4    2
    77   126   125    1
    78   126   129    1
    79   131   129    1
    80   142   141   ar
    81     5     6    1
    82   120   125   am
    83   120   119    1
    84   129   130    1
    85   119   118    1
    86   119   122    1
    87     6     8   ar
    88     6     7   ar
    89     8    10   ar
    90   124   122    1
    91    54    55    1
    92   122   123    1
    93    52    51    1
    94    56    55    1
    95    56    57    2
    96     7     9   ar
    97    10    11   ar
    98    55    58    1
    99    49    50    2
   100    49    48    1
   101    58    59    1
   102   116   115    2
   103    51    48    1
   104    51    53    1
   105    59    60    1
   106     9    11   ar
   107    11    12    1
   108    48    47    1
   109   115   114    1
   110   102   101    2
   111    69    67   ar
   112    68    67   ar
   113   111   109   ar
   114   111   112   ar
   115    67    66    1
   116    60    61    1
   117   101   113   am
   118   101   100    1
   119   171   170    1
   120   171   172    1
   121   114   113    1
   122   114   117    1
   123   109   106   ar
   124   100    99    1
   125   100   103    1
   126   112   110   ar
   127   182   180   am
   128   172   173    2
   129   172   174   am
   130    66    63    1
   131    84    83    2
   132   191   189   ar
   133   191   193   ar
   134   106   104   ar
   135   106   108   ar
   136   189   188   ar
   137    65    64    2
   138   103   104    1
   139   174   175    1
   140   110   108   ar
   141   193   192   ar
   142   200   198    1
   143    63    64    1
   144    63    62    1
   145   104   105   ar
   146   188   187    1
   147   188   190   ar
   148   180   179    1
   149   180   181    2
   150   187   184    1
   151    76    74    1
   152    64    70   am
   153   108   107   ar
   154    83    85   am
   155    83    82    1
   156   179   178    1
   157   183   184    1
   158   192   190   ar
   159   184   185    1
   160   175   178    1
   161   175   176    1
   162   199   198    1
   163   198   195    1
   164    70    71    1
   165   105   107   ar
   166    96    95    2
   167    82    79    1
   168    71    74    1
   169    71    72    1
   170    74    75    1
   171   176   177    2
   172   185   186    2
   173    95    94    1
   174   195   194    1
   175   195   196    1
   176    75    77    1
   177    72    73    2
   178    79    78    1
   179    79    80    1
   180    91    90    1
   181    94    93    1
   182    94    97    1
   183   196   197    2
   184    80    86   am
   185    80    81    2
   186    86    87    1
   187    98    97    1
   188    90    87    1
   189    90    92    1
   190    87    88    1
   191    88    89    2
