@<TRIPOS>MOLECULE
tmp/5g5jA00.pdb
 89 81 0 0 0
SMALL
GASTEIGER

@<TRIPOS>ATOM
      1  N         16.4810   -9.5790    7.5710 N.3    78  ARG78      -0.1245
      2  CA        17.5220   -9.8040    8.5590 C.3    78  ARG78       0.1563
      3  C         18.6450   -8.8360    8.2460 C.2    78  ARG78       0.2260
      4  O         18.6170   -8.1340    7.2320 O.2    78  ARG78      -0.2867
      5  CB        17.9770  -11.2730    8.5410 C.3    78  ARG78       0.0307
      6  CG        16.9600  -12.2250    9.1680 C.3    78  ARG78       0.0489
      7  CD        17.4970  -13.6450    9.3240 C.3    78  ARG78       0.2205
      8  NE        16.4060  -14.5800    9.6170 N.pl3  78  ARG78      -0.0865
      9  CZ        15.6440  -15.1230    8.6820 C.cat  78  ARG78       0.5346
     10  NH1       15.8930  -14.8120    7.4300 N.pl3  78  ARG78       0.1354
     11  NH2       14.6530  -15.9660    8.9900 N.pl3  78  ARG78       0.1354
     12  N         16.4300  -17.1840    2.5550 N.3    92  SER92      -0.1217
     13  CA        16.8200  -16.6270    3.8610 C.3    92  SER92       0.1889
     14  C         17.5820  -15.3090    3.7440 C.2    92  SER92       0.2288
     15  O         17.5890  -14.5060    4.6730 O.2    92  SER92      -0.2866
     16  CB        17.6230  -17.6360    4.7030 C.3    92  SER92       0.2089
     17  OG        19.0130  -17.6060    4.3950 O.3    92  SER92      -0.2183
     18  N         27.8310  -23.7130    9.2960 N.3   185  ARG185     -0.1245
     19  CA        27.3230  -22.4610    9.8170 C.3   185  ARG185      0.1563
     20  C         28.4700  -21.4730    9.9710 C.2   185  ARG185      0.2260
     21  O         29.5880  -21.8450   10.3080 O.2   185  ARG185     -0.2867
     22  CB        26.6110  -22.6830   11.1560 C.3   185  ARG185      0.0307
     23  CG        25.1970  -23.2200   11.0050 C.3   185  ARG185      0.0489
     24  CD        24.5550  -22.6700    9.7320 C.3   185  ARG185      0.2205
     25  NE        23.1470  -22.3160    9.9000 N.pl3 185  ARG185     -0.0865
     26  CZ        22.6810  -21.0710    9.9910 C.cat 185  ARG185      0.5346
     27  NH1       23.5050  -20.0240    9.9180 N.pl3 185  ARG185      0.1354
     28  NH2       21.3790  -20.8740   10.1480 N.pl3 185  ARG185      0.1354
     29  N         20.7060  -23.2750    0.0850 N.3   257  ILE257     -0.1245
     30  CA        20.3580  -22.7070    1.4040 C.3   257  ILE257      0.1561
     31  C         19.6850  -23.7300    2.3300 C.2   257  ILE257      0.2260
     32  O         19.8680  -23.6520    3.5450 O.2   257  ILE257     -0.2867
     33  CB        19.5510  -21.3630    1.3270 C.3   257  ILE257      0.0252
     34  CG1       19.8140  -20.4240    2.5320 C.3   257  ILE257      0.0019
     35  CG2       18.0400  -21.5700    1.1850 C.3   257  ILE257      0.0019
     36  CD1       21.1880  -19.8110    2.5790 C.3   257  ILE257      0.0001
     37  N         22.5720  -25.6090    3.7540 N.3   260  PHE260     -0.1227
     38  CA        23.2150  -24.7310    4.7160 C.3   260  PHE260      0.1736
     39  C         22.4440  -24.6540    6.0380 C.2   260  PHE260      0.2595
     40  O         23.0210  -24.7320    7.1090 O.2   260  PHE260     -0.2718
     41  CB        23.3700  -23.3410    4.0960 C.3   260  PHE260      0.0547
     42  CG        23.8410  -22.3010    5.0590 C.ar  260  PHE260     -0.0202
     43  CD1       25.1510  -22.3170    5.5280 C.ar  260  PHE260     -0.0042
     44  CD2       22.9840  -21.2880    5.4720 C.ar  260  PHE260     -0.0042
     45  CE1       25.5890  -21.3510    6.4220 C.ar  260  PHE260     -0.0003
     46  CE2       23.4110  -20.3150    6.3690 C.ar  260  PHE260     -0.0003
     47  CZ        24.7180  -20.3450    6.8390 C.ar  260  PHE260     -0.0000
     48  N         21.1320  -24.5270    5.9490 N.am  261  ALA261     -0.1980
     49  CA        20.3180  -24.2850    7.1150 C.3   261  ALA261      0.1597
     50  C         20.0220  -25.5650    7.9280 C.2   261  ALA261      0.2287
     51  O         19.6930  -25.5070    9.1180 O.2   261  ALA261     -0.2864
     52  CB        19.0310  -23.6050    6.6890 C.3   261  ALA261      0.0319
     53  N         22.8770  -27.7280   11.7920 N.3   265  THR265     -0.1218
     54  CA        21.8540  -27.4560   12.7910 C.3   265  THR265      0.1862
     55  C         21.2860  -28.7760   13.3820 C.2   265  THR265      0.2287
     56  O         21.4130  -29.0520   14.5780 O.2   265  THR265     -0.2866
     57  CB        20.7410  -26.5480   12.2140 C.3   265  THR265      0.1770
     58  OG1       20.3950  -27.0130   10.9040 O.3   265  THR265     -0.2211
     59  CG2       21.2290  -25.1020   12.1180 C.3   265  THR265      0.0375
     60  N         20.0690  -20.8390   17.0490 N.3   326  ALA326     -0.1245
     61  CA        20.0920  -19.4850   16.4780 C.3   326  ALA326      0.1562
     62  C         20.6130  -18.4190   17.4460 C.2   326  ALA326      0.2260
     63  O         21.2140  -17.4350   16.9820 O.2   326  ALA326     -0.2867
     64  CB        18.7350  -19.0610   15.8990 C.3   326  ALA326      0.0290
     65  N         19.8520  -15.6950   18.6950 N.3   328  ARG328     -0.1231
     66  CA        19.1340  -14.4170   18.5600 C.3   328  ARG328      0.1694
     67  C         18.2300  -14.4600   17.3410 C.2   328  ARG328      0.2591
     68  O         18.5220  -15.1470   16.3840 O.2   328  ARG328     -0.2718
     69  CB        20.1040  -13.2330   18.3590 C.3   328  ARG328      0.0321
     70  CG        21.3860  -13.2800   19.1520 C.3   328  ARG328      0.0489
     71  CD        22.2340  -12.0690   18.8290 C.3   328  ARG328      0.2205
     72  NE        22.8290  -11.4560   20.0050 N.pl3 328  ARG328     -0.0865
     73  CZ        23.7610  -10.5070   19.9870 C.cat 328  ARG328      0.5346
     74  NH1       24.2410  -10.0550   18.8240 N.pl3 328  ARG328      0.1354
     75  NH2       24.2130   -9.9960   21.1500 N.pl3 328  ARG328      0.1354
     76  N         17.1490  -13.7000   17.3740 N.am  329  LEU329     -0.1980
     77  CA        16.3860  -13.4000   16.1790 C.3   329  LEU329      0.1596
     78  C         16.5540  -11.9100   15.8850 C.2   329  LEU329      0.2287
     79  O         16.6090  -11.0920   16.8150 O.2   329  LEU329     -0.2864
     80  CB        14.9270  -13.7030   16.4090 C.3   329  LEU329      0.0297
     81  CG        14.2800  -15.0800   16.2990 C.3   329  LEU329      0.0022
     82  CD1       15.2060  -16.2800   16.0460 C.3   329  LEU329      0.0001
     83  CD2       13.3770  -15.2630   17.5140 C.3   329  LEU329      0.0001
     84  N         11.3990  -20.2800   10.8260 N.3   398  CYS398     -0.1235
     85  CA        11.9980  -21.4250   10.1650 C.3   398  CYS398      0.1677
     86  C         10.9900  -22.1150    9.2650 C.2   398  CYS398      0.2270
     87  O         10.0050  -22.6770    9.7330 O.2   398  CYS398     -0.2867
     88  CB        12.5090  -22.4360   11.1970 C.3   398  CYS398      0.0956
     89  SG        13.5580  -23.6800   10.4240 S.3   398  CYS398     -0.0801
@<TRIPOS>BOND
     1    29    30    1
     2    35    33    1
     3    33    30    1
     4    33    34    1
     5    30    31    1
     6    31    32    2
     7    34    36    1
     8    12    13    1
     9    14    13    1
    10    14    15    2
    11    37    38    1
    12    13    16    1
    13    41    38    1
    14    41    42    1
    15    17    16    1
    16    38    39    1
    17    42    44   ar
    18    42    43   ar
    19    44    46   ar
    20    43    45   ar
    21    48    39   am
    22    48    49    1
    23    39    40    2
    24    46    47   ar
    25    45    47   ar
    26    52    49    1
    27    49    50    1
    28     4     3    2
    29    10     9    1
    30     1     2    1
    31    50    51    2
    32     3     2    1
    33     5     2    1
    34     5     6    1
    35     9    11    1
    36     9     8    2
    37     6     7    1
    38    86    87    2
    39    86    85    1
    40    18    19    1
    41     7     8    1
    42    24    25    1
    43    24    23    1
    44    19    20    1
    45    19    22    1
    46    25    26    2
    47    27    26    1
    48    20    21    2
    49    26    28    1
    50    85    84    1
    51    85    88    1
    52    89    88    1
    53    58    57    1
    54    23    22    1
    55    53    54    1
    56    59    57    1
    57    57    54    1
    58    54    55    1
    59    55    56    2
    60    78    77    1
    61    78    79    2
    62    64    61    1
    63    82    81    1
    64    77    80    1
    65    77    76    1
    66    81    80    1
    67    81    83    1
    68    68    67    2
    69    61    60    1
    70    61    62    1
    71    63    62    2
    72    67    76   am
    73    67    66    1
    74    69    66    1
    75    69    70    1
    76    66    65    1
    77    74    73    1
    78    71    70    1
    79    71    72    1
    80    73    72    2
    81    73    75    1
