@<TRIPOS>MOLECULE
tmp/5g5mA00.pdb
 104 103 0 0 0
SMALL
GASTEIGER

@<TRIPOS>ATOM
      1  N         -4.8000   -9.0930  157.5830 N.3    49  GLY49      -0.1210
      2  CA        -6.2160   -8.7850  157.5000 C.3    49  GLY49       0.1956
      3  C         -6.7820   -8.0920  158.7320 C.2    49  GLY49       0.2612
      4  O         -6.0820   -7.8760  159.7250 O.2    49  GLY49      -0.2717
      5  N         -8.0650   -7.7550  158.6550 N.am   50  TYR50      -0.1962
      6  CA        -8.7980   -7.1210  159.7610 C.3    50  TYR50       0.1771
      7  C         -8.8370   -7.9960  161.0170 C.2    50  TYR50       0.2620
      8  O         -9.1060   -9.1830  160.9250 O.2    50  TYR50      -0.2715
      9  CB       -10.2140   -6.7690  159.2860 C.3    50  TYR50       0.0574
     10  CG       -11.1530   -6.2410  160.3420 C.ar   50  TYR50      -0.0198
     11  CD1      -10.8550   -5.0920  161.0640 C.ar   50  TYR50      -0.0009
     12  CD2      -12.3600   -6.8650  160.5740 C.ar   50  TYR50      -0.0009
     13  CE1      -11.7280   -4.6020  162.0280 C.ar   50  TYR50       0.0417
     14  CE2      -13.2470   -6.3860  161.5310 C.ar   50  TYR50       0.0417
     15  CZ       -12.9280   -5.2600  162.2550 C.ar   50  TYR50       0.1957
     16  OH       -13.8220   -4.8080  163.2010 O.3    50  TYR50      -0.2866
     17  N         -8.5390   -7.3800  162.1650 N.am   51  THR51      -0.1937
     18  CA        -8.5110   -8.0100  163.5030 C.3    51  THR51       0.2028
     19  C         -7.3060   -8.9100  163.6920 C.2    51  THR51       0.2642
     20  O         -7.1790   -9.5890  164.7110 O.2    51  THR51      -0.2714
     21  CB        -9.7600   -8.8590  163.8080 C.3    51  THR51       0.1808
     22  OG1       -9.6650  -10.1180  163.1250 O.3    51  THR51      -0.2208
     23  CG2      -11.0250   -8.1350  163.3960 C.3    51  THR51       0.0379
     24  N         -6.4310   -8.9230  162.6950 N.am   52  SER52      -0.1949
     25  CA        -5.2220   -9.7290  162.7440 C.3    52  SER52       0.1924
     26  C         -4.0200   -8.8590  163.0700 C.2    52  SER52       0.2314
     27  O         -4.1590   -7.7710  163.6330 O.2    52  SER52      -0.2863
     28  CB        -5.0100  -10.4330  161.4040 C.3    52  SER52       0.2116
     29  OG        -4.2150  -11.5880  161.5390 O.3    52  SER52      -0.2180
     30  N         -1.1980  -18.5960  160.3030 N.3    58  HIS58      -0.1226
     31  CA        -1.6910  -19.4220  159.2060 C.3    58  HIS58       0.1752
     32  C         -1.4530  -18.7930  157.8350 C.2    58  HIS58       0.2596
     33  O         -1.6630  -19.4550  156.8210 O.2    58  HIS58      -0.2718
     34  CB        -3.1810  -19.7620  159.3910 C.3    58  HIS58       0.0759
     35  CG        -4.0750  -18.5740  159.5700 C.ar   58  HIS58       0.0818
     36  ND1       -4.0650  -17.7990  160.7110 N.ar   58  HIS58      -0.2268
     37  CD2       -5.0400  -18.0540  158.7710 C.ar   58  HIS58       0.1154
     38  CE1       -4.9620  -16.8360  160.5930 C.ar   58  HIS58       0.1986
     39  NE2       -5.5710  -16.9700  159.4290 N.ar   58  HIS58      -0.2212
     40  N         -1.0040  -17.5380  157.7870 N.am   59  TYR59      -0.1976
     41  CA        -0.6320  -16.9710  156.4870 C.3    59  TYR59       0.1639
     42  C          0.5330  -15.9650  156.5210 C.2    59  TYR59       0.2290
     43  O          1.3450  -15.9550  155.5950 O.2    59  TYR59      -0.2864
     44  CB        -1.8580  -16.3310  155.7930 C.3    59  TYR59       0.0560
     45  CG        -2.4570  -15.1160  156.4650 C.ar   59  TYR59      -0.0198
     46  CD1       -1.9610  -13.8480  156.2220 C.ar   59  TYR59      -0.0009
     47  CD2       -3.5430  -15.2420  157.3150 C.ar   59  TYR59      -0.0009
     48  CE1       -2.5090  -12.7300  156.8360 C.ar   59  TYR59       0.0417
     49  CE2       -4.0970  -14.1430  157.9270 C.ar   59  TYR59       0.0417
     50  CZ        -3.5820  -12.8860  157.6890 C.ar   59  TYR59       0.1957
     51  OH        -4.1470  -11.7890  158.3010 O.3    59  TYR59      -0.2866
     52  N         -7.0940  -10.6030  152.7110 N.3   124  SER124     -0.1217
     53  CA        -8.3750  -10.0990  153.1700 C.3   124  SER124      0.1889
     54  C         -8.4230   -8.5570  153.1260 C.2   124  SER124      0.2288
     55  O         -8.1990   -8.0060  152.1160 O.2   124  SER124     -0.2866
     56  CB        -8.7150  -10.6800  154.5420 C.3   124  SER124      0.2089
     57  OG       -10.0570  -10.5500  154.8400 O.3   124  SER124     -0.2183
     58  N        -21.8160  -14.9780  162.9490 N.3   163  PHE163     -0.1241
     59  CA       -21.8330  -14.4740  164.3360 C.3   163  PHE163      0.1605
     60  C        -23.1250  -14.8690  165.0780 C.2   163  PHE163      0.2264
     61  O        -23.1370  -15.0510  166.2970 O.2   163  PHE163     -0.2867
     62  CB       -21.6790  -12.9470  164.3620 C.3   163  PHE163      0.0534
     63  CG       -20.2760  -12.4610  164.1270 C.ar  163  PHE163     -0.0203
     64  CD1      -19.2070  -13.0430  164.7720 C.ar  163  PHE163     -0.0042
     65  CD2      -20.0320  -11.4050  163.2640 C.ar  163  PHE163     -0.0042
     66  CE1      -17.9170  -12.5890  164.5700 C.ar  163  PHE163     -0.0003
     67  CE2      -18.7420  -10.9480  163.0510 C.ar  163  PHE163     -0.0003
     68  CZ       -17.6840  -11.5420  163.7080 C.ar  163  PHE163     -0.0000
     69  N        -16.8170  -15.6790  153.0800 N.3   200  LEU200     -0.1245
     70  CA       -16.9660  -14.2270  153.1950 C.3   200  LEU200      0.1561
     71  C        -16.9230  -13.5120  151.8320 C.2   200  LEU200      0.2260
     72  O        -17.5330  -12.4560  151.6650 O.2   200  LEU200     -0.2867
     73  CB       -15.8690  -13.6470  154.1010 C.3   200  LEU200      0.0270
     74  CG       -15.8650  -14.0800  155.5600 C.3   200  LEU200      0.0019
     75  CD1      -14.6110  -13.5600  156.2230 C.3   200  LEU200      0.0001
     76  CD2      -17.1070  -13.5070  156.2480 C.3   200  LEU200      0.0001
     77  N        -11.2940  -18.7980  153.1170 N.3   229  HIS229     -0.1226
     78  CA       -10.7920  -17.4230  153.2220 C.3   229  HIS229      0.1752
     79  C         -9.3360  -17.3710  153.6830 C.2   229  HIS229      0.2596
     80  O         -8.9800  -18.0100  154.6720 O.2   229  HIS229     -0.2718
     81  CB       -11.6870  -16.6200  154.1730 C.3   229  HIS229      0.0759
     82  CG       -11.4800  -15.1370  154.1180 C.ar  229  HIS229      0.0818
     83  ND1      -11.9200  -14.3630  153.0680 N.ar  229  HIS229     -0.2268
     84  CD2      -10.9320  -14.2790  155.0120 C.ar  229  HIS229      0.1154
     85  CE1      -11.6130  -13.0970  153.2920 C.ar  229  HIS229      0.1986
     86  NE2      -11.0230  -13.0180  154.4720 N.ar  229  HIS229     -0.2212
     87  N         -8.5130  -16.6270  152.9250 N.am  230  VAL230     -0.1966
     88  CA        -7.0570  -16.4640  153.1010 C.3   230  VAL230      0.1727
     89  C         -6.2830  -17.7190  153.5060 C.2   230  VAL230      0.2616
     90  O         -5.1800  -17.6370  154.0400 O.2   230  VAL230     -0.2715
     91  CB        -6.7050  -15.3430  154.1430 C.3   230  VAL230      0.0290
     92  CG1       -7.2620  -13.9950  153.7040 C.3   230  VAL230      0.0023
     93  CG2       -7.1880  -15.7020  155.5510 C.3   230  VAL230      0.0023
     94  N         -6.8320  -18.8900  153.2370 N.am  231  ARG231     -0.1977
     95  CA        -6.1340  -20.0970  153.6530 C.3   231  ARG231      0.1597
     96  C         -5.6200  -20.9140  152.4670 C.2   231  ARG231      0.2287
     97  O         -5.2810  -22.0920  152.6140 O.2   231  ARG231     -0.2864
     98  CB        -7.0470  -20.9280  154.5650 C.3   231  ARG231      0.0334
     99  CG        -7.0740  -20.3280  155.9850 C.3   231  ARG231      0.0492
    100  CD        -8.1090  -20.9480  156.9190 C.3   231  ARG231      0.2205
    101  NE        -7.9960  -20.3750  158.2630 N.pl3 231  ARG231     -0.0865
    102  CZ        -8.4240  -19.1570  158.5960 C.cat 231  ARG231      0.5346
    103  NH1       -9.0180  -18.3670  157.6870 N.pl3 231  ARG231      0.1354
    104  NH2       -8.2750  -18.7290  159.8520 N.pl3 231  ARG231      0.1354
@<TRIPOS>BOND
     1    72    71    2
     2    71    70    1
     3    55    54    2
     4    96    97    2
     5    96    95    1
     6    52    53    1
     7    87    88    1
     8    87    79   am
     9    83    85   ar
    10    83    82   ar
    11    69    70    1
    12    88    89    1
    13    88    91    1
    14    77    78    1
    15    54    53    1
    16    53    56    1
    17    70    73    1
    18    78    79    1
    19    78    81    1
    20    94    89   am
    21    94    95    1
    22    85    86   ar
    23    89    90    2
    24    95    98    1
    25    79    80    2
    26    92    91    1
    27    73    74    1
    28    82    81    1
    29    82    84   ar
    30    91    93    1
    31    86    84   ar
    32    56    57    1
    33    98    99    1
    34    74    75    1
    35    74    76    1
    36    43    42    2
    37    44    45    1
    38    44    41    1
    39    99   100    1
    40    46    45   ar
    41    46    48   ar
    42    45    47   ar
    43    41    42    1
    44    41    40    1
    45    33    32    2
    46    48    50   ar
    47   100   101    1
    48    47    49   ar
    49     2     1    1
    50     2     3    1
    51   103   102    1
    52    50    49   ar
    53    50    51    1
    54    40    32   am
    55    32    31    1
    56   101   102    2
    57   102   104    1
    58     5     3   am
    59     5     6    1
    60     3     4    2
    61    37    39   ar
    62    37    35   ar
    63    31    34    1
    64    31    30    1
    65     9     6    1
    66     9    10    1
    67    34    35    1
    68    39    38   ar
    69    35    36   ar
    70     6     7    1
    71    10    12   ar
    72    10    11   ar
    73    12    14   ar
    74    38    36   ar
    75     8     7    2
    76     7    17   am
    77    11    13   ar
    78    28    29    1
    79    28    25    1
    80    14    15   ar
    81    13    15   ar
    82    17    18    1
    83    15    16    1
    84    24    25    1
    85    24    19   am
    86    25    26    1
    87    58    59    1
    88    67    65   ar
    89    67    68   ar
    90    26    27    2
    91    22    21    1
    92    65    63   ar
    93    23    21    1
    94    18    19    1
    95    18    21    1
    96    19    20    2
    97    68    66   ar
    98    63    62    1
    99    63    64   ar
   100    59    62    1
   101    59    60    1
   102    66    64   ar
   103    60    61    2
