@<TRIPOS>MOLECULE
tmp/5g5vA00.pdb
 218 208 0 0 0
SMALL
GASTEIGER

@<TRIPOS>ATOM
      1  N        144.7000   92.9490   70.6950 N.3    86  TYR86      -0.1227
      2  CA       143.4680   92.3820   71.2940 C.3    86  TYR86       0.1736
      3  C        143.6020   90.9340   71.8210 C.2    86  TYR86       0.2595
      4  O        143.2320   90.6630   72.9810 O.2    86  TYR86      -0.2718
      5  CB       142.3160   92.4740   70.2930 C.3    86  TYR86       0.0548
      6  CG       140.9920   91.9440   70.8240 C.ar   86  TYR86      -0.0200
      7  CD1      140.1570   92.7370   71.6090 C.ar   86  TYR86      -0.0009
      8  CD2      140.5800   90.6400   70.5340 C.ar   86  TYR86      -0.0009
      9  CE1      138.9360   92.2410   72.0860 C.ar   86  TYR86       0.0417
     10  CE2      139.3790   90.1320   71.0230 C.ar   86  TYR86       0.0417
     11  CZ       138.5600   90.9370   71.7980 C.ar   86  TYR86       0.1957
     12  OH       137.3580   90.4180   72.2500 O.3    86  TYR86      -0.2866
     13  N        144.1150   90.0150   70.9950 N.am   87  HIS87      -0.1975
     14  CA       144.1190   88.5690   71.3210 C.3    87  HIS87       0.1656
     15  C        145.2840   88.1820   72.2330 C.2    87  HIS87       0.2291
     16  O        146.1300   87.3190   71.9190 O.2    87  HIS87      -0.2864
     17  CB       144.0570   87.7020   70.0480 C.3    87  HIS87       0.0771
     18  CG       142.7170   87.7150   69.3810 C.ar   87  HIS87       0.0820
     19  ND1      142.4460   88.4610   68.2580 N.ar   87  HIS87      -0.2267
     20  CD2      141.5620   87.0700   69.6940 C.ar   87  HIS87       0.1154
     21  CE1      141.1800   88.2900   67.9110 C.ar   87  HIS87       0.1986
     22  NE2      140.6180   87.4530   68.7710 N.ar   87  HIS87      -0.2212
     23  N        148.0760   83.3460   69.7480 N.3   131  HIS131     -0.1241
     24  CA       147.3650   84.0700   68.6770 C.3   131  HIS131      0.1621
     25  C        148.2780   85.2080   68.1550 C.2   131  HIS131      0.2264
     26  O        148.8550   85.9740   68.9640 O.2   131  HIS131     -0.2867
     27  CB       146.0490   84.6600   69.2250 C.3   131  HIS131      0.0745
     28  CG       144.9750   84.8750   68.1970 C.ar  131  HIS131      0.0817
     29  ND1      145.1040   85.7560   67.1480 N.ar  131  HIS131     -0.2268
     30  CD2      143.7110   84.3870   68.1140 C.ar  131  HIS131      0.1154
     31  CE1      143.9940   85.7690   66.4340 C.ar  131  HIS131      0.1986
     32  NE2      143.1300   84.9420   66.9980 N.ar  131  HIS131     -0.2212
     33  N        143.3990   86.0660   61.4110 N.3   135  ASN135     -0.1240
     34  CA       142.3500   85.0170   61.4410 C.3   135  ASN135      0.1653
     35  C        142.6450   83.8700   60.4700 C.2   135  ASN135      0.2266
     36  O        143.6300   83.9190   59.7340 O.2   135  ASN135     -0.2867
     37  CB       140.9470   85.6240   61.2690 C.3   135  ASN135      0.1155
     38  CG       140.6680   86.1140   59.8750 C.2   135  ASN135      0.2627
     39  OD1      141.3600   85.7880   58.9120 O.2   135  ASN135     -0.2716
     40  ND2      139.6300   86.9450   59.7600 N.am  135  ASN135     -0.0877
     41  N        135.1360   77.5560   68.9230 N.3   201  THR201     -0.1218
     42  CA       135.2650   79.0270   68.8700 C.3   201  THR201      0.1862
     43  C        135.6170   79.5940   67.4720 C.2   201  THR201      0.2287
     44  O        135.6450   80.8250   67.2990 O.2   201  THR201     -0.2866
     45  CB       136.2810   79.5700   69.8960 C.3   201  THR201      0.1770
     46  OG1      137.5740   78.9880   69.6730 O.3   201  THR201     -0.2211
     47  CG2      135.8050   79.2860   71.3300 C.3   201  THR201      0.0375
     48  N        134.7030   81.0440   64.2860 N.3   203  MET203     -0.1245
     49  CA       133.4290   81.6870   63.8630 C.3   203  MET203      0.1570
     50  C        132.8350   81.1750   62.5280 C.2   203  MET203      0.2261
     51  O        131.6370   81.3640   62.2660 O.2   203  MET203     -0.2867
     52  CB       133.5290   83.2220   63.8870 C.3   203  MET203      0.0387
     53  CG       133.6300   83.8110   65.3070 C.3   203  MET203      0.0595
     54  SD       132.1670   83.5640   66.3380 S.3   203  MET203     -0.1393
     55  CE       131.0320   84.7850   65.6770 C.3   203  MET203      0.0692
     56  N        133.4560   84.6010   74.6550 N.3   240  ASP240     -0.1225
     57  CA       134.3350   85.0820   73.5880 C.3   240  ASP240      0.1805
     58  C        133.7880   86.3100   72.8570 C.2   240  ASP240      0.2597
     59  O        134.5840   87.1600   72.4350 O.2   240  ASP240     -0.2718
     60  CB       134.5900   83.9670   72.5760 C.3   240  ASP240      0.1424
     61  CG       135.9270   84.1070   71.8590 C.2   240  ASP240      0.3668
     62  OD1      136.8760   84.7250   72.3890 O.co2 240  ASP240     -0.2456
     63  OD2      136.0150   83.5490   70.7460 O.co2 240  ASP240     -0.2456
     64  N        132.4620   86.4120   72.7120 N.am  241  ILE241     -0.1980
     65  CA       131.8260   87.5990   72.0860 C.3   241  ILE241      0.1595
     66  C        131.0860   88.5340   73.0790 C.2   241  ILE241      0.2287
     67  O        130.2080   89.3100   72.6800 O.2   241  ILE241     -0.2864
     68  CB       130.9110   87.2110   70.8950 C.3   241  ILE241      0.0276
     69  CG1      129.7460   86.3060   71.2940 C.3   241  ILE241      0.0022
     70  CG2      131.7280   86.5530   69.7910 C.3   241  ILE241      0.0022
     71  CD1      128.6870   86.2130   70.2110 C.3   241  ILE241      0.0001
     72  N        132.0790   91.2770   74.7860 N.3   243  ASN243     -0.1225
     73  CA       132.5280   92.6780   74.9620 C.3   243  ASN243      0.1785
     74  C        131.3330   93.6620   74.8820 C.2   243  ASN243      0.2597
     75  O        131.2920   94.6500   75.6050 O.2   243  ASN243     -0.2718
     76  CB       133.5710   93.1120   73.9050 C.3   243  ASN243      0.1169
     77  CG       134.9000   92.3550   73.9700 C.2   243  ASN243      0.2627
     78  OD1      135.6370   92.3670   72.9950 O.2   243  ASN243     -0.2716
     79  ND2      135.2120   91.6980   75.0900 N.am  243  ASN243     -0.0877
     80  N        130.3520   93.3550   74.0270 N.am  244  VAL244     -0.1980
     81  CA       129.1320   94.1840   73.8800 C.3   244  VAL244      0.1595
     82  C        128.0760   94.0460   75.0000 C.2   244  VAL244      0.2287
     83  O        127.0930   94.7750   74.9830 O.2   244  VAL244     -0.2864
     84  CB       128.4460   93.9640   72.5080 C.3   244  VAL244      0.0276
     85  CG1      129.3850   94.3740   71.3820 C.3   244  VAL244      0.0022
     86  CG2      127.9660   92.5310   72.3310 C.3   244  VAL244      0.0022
     87  N        133.0810   98.4150   76.9840 N.3   251  SER251     -0.1217
     88  CA       132.7770   97.9070   75.6340 C.3   251  SER251      0.1889
     89  C        133.5410   98.6470   74.5340 C.2   251  SER251      0.2288
     90  O        134.0840   98.0270   73.6080 O.2   251  SER251     -0.2866
     91  CB       131.2790   97.9980   75.3610 C.3   251  SER251      0.2089
     92  OG       130.9370   97.1840   74.2730 O.3   251  SER251     -0.2183
     93  N        136.3970   97.3910   71.7130 N.3   255  ALA255     -0.1245
     94  CA       136.1580   97.6480   70.2900 C.3   255  ALA255      0.1562
     95  C        137.3360   98.3520   69.5840 C.2   255  ALA255      0.2260
     96  O        137.6550   98.0240   68.4450 O.2   255  ALA255     -0.2867
     97  CB       134.8770   98.4550   70.1060 C.3   255  ALA255      0.0290
     98  N        140.2310   95.5020   69.0850 N.3   258  VAL258     -0.1231
     99  CA       139.9890   94.4950   68.0410 C.3   258  VAL258      0.1692
    100  C        139.9890   95.1330   66.6420 C.2   258  VAL258      0.2592
    101  O        140.5070   94.5330   65.6880 O.2   258  VAL258     -0.2718
    102  CB       138.7320   93.6360   68.3170 C.3   258  VAL258      0.0266
    103  CG1      137.4680   94.4300   68.1620 C.3   258  VAL258      0.0020
    104  CG2      138.7000   92.4050   67.4100 C.3   258  VAL258      0.0020
    105  N        139.4490   96.3510   66.5390 N.am  259  THR259     -0.1953
    106  CA       139.4560   97.1300   65.2810 C.3   259  THR259      0.1897
    107  C        140.8780   97.3150   64.7240 C.2   259  THR259      0.2313
    108  O        141.1110   97.1480   63.5180 O.2   259  THR259     -0.2863
    109  CB       138.7710   98.5060   65.4700 C.3   259  THR259      0.1794
    110  OG1      137.3800   98.3100   65.7840 O.3   259  THR259     -0.2208
    111  CG2      138.8660   99.3710   64.1850 C.3   259  THR259      0.0378
    112  N        142.0120   94.0680   63.1200 N.3   262  PHE262     -0.1227
    113  CA       141.3700   93.9230   61.8020 C.3   262  PHE262      0.1736
    114  C        142.1470   94.7130   60.7290 C.2   262  PHE262      0.2595
    115  O        142.4910   94.1730   59.6700 O.2   262  PHE262     -0.2718
    116  CB       139.8830   94.3430   61.8180 C.3   262  PHE262      0.0547
    117  CG       138.9210   93.2200   62.1940 C.ar  262  PHE262     -0.0202
    118  CD1      139.0940   92.4850   63.3590 C.ar  262  PHE262     -0.0042
    119  CD2      137.8440   92.9010   61.3640 C.ar  262  PHE262     -0.0042
    120  CE1      138.1980   91.4580   63.7130 C.ar  262  PHE262     -0.0003
    121  CE2      136.9560   91.8770   61.6990 C.ar  262  PHE262     -0.0003
    122  CZ       137.1340   91.1600   62.8780 C.ar  262  PHE262     -0.0000
    123  N        142.4340   95.9800   61.0220 N.am  263  TYR263     -0.1976
    124  CA       143.1690   96.8340   60.0850 C.3   263  TYR263      0.1639
    125  C        144.5810   96.3450   59.7770 C.2   263  TYR263      0.2290
    126  O        145.0130   96.3990   58.6220 O.2   263  TYR263     -0.2864
    127  CB       143.2200   98.2840   60.5630 C.3   263  TYR263      0.0560
    128  CG       141.8910   99.0350   60.5880 C.ar  263  TYR263     -0.0198
    129  CD1      140.8770   98.7620   59.6680 C.ar  263  TYR263     -0.0009
    130  CD2      141.6710  100.0680   61.5180 C.ar  263  TYR263     -0.0009
    131  CE1      139.6800   99.4590   59.6900 C.ar  263  TYR263      0.0417
    132  CE2      140.4840  100.7890   61.5220 C.ar  263  TYR263      0.0417
    133  CZ       139.4900  100.4700   60.6080 C.ar  263  TYR263      0.1957
    134  OH       138.2890  101.1410   60.6070 O.3   263  TYR263     -0.2866
    135  N        135.7700   95.8920   55.3810 N.3   279  MET279     -0.1230
    136  CA       135.7620   95.8920   56.8560 C.3   279  MET279      0.1702
    137  C        137.1850   95.9180   57.4480 C.2   279  MET279      0.2592
    138  O        137.3830   96.4090   58.5600 O.2   279  MET279     -0.2718
    139  CB       135.0410   94.6320   57.3530 C.3   279  MET279      0.0401
    140  CG       134.7590   94.5910   58.8270 C.3   279  MET279      0.0596
    141  SD       133.8210   93.0880   59.2360 S.3   279  MET279     -0.1393
    142  CE       133.6910   93.4250   60.9820 C.3   279  MET279      0.0692
    143  N        138.1460   95.3370   56.7240 N.am  280  PHE280     -0.1976
    144  CA       139.5360   95.2160   57.1700 C.3   280  PHE280      0.1639
    145  C        140.4520   96.3410   56.6200 C.2   280  PHE280      0.2290
    146  O        141.6580   96.3260   56.8740 O.2   280  PHE280     -0.2864
    147  CB       140.0950   93.8480   56.7500 C.3   280  PHE280      0.0560
    148  CG       139.4710   92.6680   57.4570 C.ar  280  PHE280     -0.0200
    149  CD1      138.1910   92.2260   57.1190 C.ar  280  PHE280     -0.0042
    150  CD2      140.1670   91.9810   58.4470 C.ar  280  PHE280     -0.0042
    151  CE1      137.6180   91.1190   57.7580 C.ar  280  PHE280     -0.0003
    152  CE2      139.6110   90.8770   59.0930 C.ar  280  PHE280     -0.0003
    153  CZ       138.3270   90.4460   58.7520 C.ar  280  PHE280     -0.0000
    154  N        136.8560  103.2640   56.0900 N.3   285  ASN285     -0.1240
    155  CA       136.1170  103.4130   57.3570 C.3   285  ASN285      0.1653
    156  C        136.5330  104.6760   58.1360 C.2   285  ASN285      0.2266
    157  O        137.6260  105.1980   57.9090 O.2   285  ASN285     -0.2867
    158  CB       136.3680  102.1800   58.2280 C.3   285  ASN285      0.1155
    159  CG       135.8510  100.9030   57.5840 C.2   285  ASN285      0.2627
    160  OD1      134.6610  100.6180   57.6470 O.2   285  ASN285     -0.2716
    161  ND2      136.7420  100.1440   56.9530 N.am  285  ASN285     -0.0877
    162  N        134.5290  106.1500   61.9720 N.3   287  GLU287     -0.1231
    163  CA       134.2890  105.9530   63.4130 C.3   287  GLU287      0.1699
    164  C        133.8820  104.5040   63.6740 C.2   287  GLU287      0.2592
    165  O        133.5690  103.7750   62.7340 O.2   287  GLU287     -0.2718
    166  CB       133.1980  106.9080   63.9530 C.3   287  GLU287      0.0402
    167  CG       133.4640  107.4940   65.3520 C.3   287  GLU287      0.1161
    168  CD       132.9890  106.6390   66.5460 C.2   287  GLU287      0.3649
    169  OE1      131.8000  106.2490   66.6110 O.co2 287  GLU287     -0.2457
    170  OE2      133.8200  106.3740   67.4510 O.co2 287  GLU287     -0.2457
    171  N        133.9170  104.1140   64.9510 N.am  288  LEU288     -0.1980
    172  CA       133.5110  102.7880   65.4110 C.3   288  LEU288      0.1596
    173  C        132.0140  102.5090   65.3970 C.2   288  LEU288      0.2287
    174  O        131.6250  101.3380   65.3830 O.2   288  LEU288     -0.2864
    175  CB       133.9730  102.5570   66.8670 C.3   288  LEU288      0.0297
    176  CG       135.4560  102.5610   67.1930 C.3   288  LEU288      0.0022
    177  CD1      135.6660  102.5100   68.7000 C.3   288  LEU288      0.0001
    178  CD2      136.1510  101.3860   66.5320 C.3   288  LEU288      0.0001
    179  N        129.2310  102.6070   63.5270 N.3   290  LYS290     -0.1231
    180  CA       128.4790  101.8260   62.5410 C.3   290  LYS290      0.1693
    181  C        128.8550  100.3290   62.5670 C.2   290  LYS290      0.2593
    182  O        127.9780   99.4640   62.4520 O.2   290  LYS290     -0.2718
    183  CB       128.5700  102.4570   61.1300 C.3   290  LYS290      0.0285
    184  CG       129.9130  102.3660   60.4300 C.3   290  LYS290      0.0035
    185  CD       130.0050  101.1490   59.5200 C.3   290  LYS290      0.0206
    186  CE       131.0540  101.3200   58.4260 C.3   290  LYS290      0.1093
    187  NZ       132.4200  101.5600   58.9420 N.3   290  LYS290     -0.1314
    188  N        130.1390  100.0400   62.7670 N.am  291  GLY291     -0.1942
    189  CA       130.6200   98.6540   62.8870 C.3   291  GLY291      0.2014
    190  C        130.1480   97.9290   64.1460 C.2   291  GLY291      0.2638
    191  O        129.8390   96.7320   64.0950 O.2   291  GLY291     -0.2714
    192  N        130.1050   98.6350   65.2780 N.am  292  GLN292     -0.1977
    193  CA       129.5650   98.0310   66.5000 C.3   292  GLN292      0.1601
    194  C        128.0800   97.7370   66.3610 C.2   292  GLN292      0.2287
    195  O        127.6080   96.7150   66.8530 O.2   292  GLN292     -0.2864
    196  CB       129.8280   98.9000   67.7360 C.3   292  GLN292      0.0394
    197  CG       131.2980   98.9760   68.0920 C.3   292  GLN292      0.0908
    198  CD       131.8640   97.6220   68.4920 C.2   292  GLN292      0.2608
    199  OE1      131.5220   97.0800   69.5350 O.2   292  GLN292     -0.2717
    200  NE2      132.7110   97.0700   67.6570 N.am  292  GLN292     -0.0878
    201  N        127.8350   94.5990   64.1550 N.3   295  PHE295     -0.1241
    202  CA       128.1980   93.4140   64.9480 C.3   295  PHE295      0.1605
    203  C        127.0730   92.9870   65.8930 C.2   295  PHE295      0.2264
    204  O        126.6970   91.8000   65.9510 O.2   295  PHE295     -0.2867
    205  CB       129.4660   93.6720   65.7530 C.3   295  PHE295      0.0534
    206  CG       129.9450   92.4670   66.5290 C.ar  295  PHE295     -0.0203
    207  CD1      130.5780   91.4210   65.8830 C.ar  295  PHE295     -0.0042
    208  CD2      129.7480   92.3840   67.9050 C.ar  295  PHE295     -0.0042
    209  CE1      131.0250   90.3050   66.5960 C.ar  295  PHE295     -0.0003
    210  CE2      130.1870   91.2790   68.6260 C.ar  295  PHE295     -0.0003
    211  CZ       130.8160   90.2330   67.9720 C.ar  295  PHE295     -0.0000
    212  N        125.3240   89.5960   64.5700 N.3   299  VAL299     -0.1245
    213  CA       125.9760   88.5150   65.3530 C.3   299  VAL299      0.1561
    214  C        125.4860   88.4280   66.8000 C.2   299  VAL299      0.2260
    215  O        124.8420   87.4560   67.1680 O.2   299  VAL299     -0.2867
    216  CB       127.5120   88.6580   65.3450 C.3   299  VAL299      0.0252
    217  CG1      128.1760   87.4770   66.0630 C.3   299  VAL299      0.0019
    218  CG2      128.0200   88.7840   63.9020 C.3   299  VAL299      0.0019
@<TRIPOS>BOND
     1   135   136    1
     2   154   155    1
     3   145   146    2
     4   145   144    1
     5   143   144    1
     6   143   137   am
     7   147   144    1
     8   147   148    1
     9   136   139    1
    10   136   137    1
    11   161   159   am
    12   149   148   ar
    13   149   151   ar
    14   139   140    1
    15   155   156    1
    16   155   158    1
    17   137   138    2
    18   148   150   ar
    19   159   160    2
    20   159   158    1
    21   151   153   ar
    22   157   156    2
    23   186   187    1
    24   186   185    1
    25   150   152   ar
    26   126   125    2
    27   153   152   ar
    28   140   141    1
    29    39    38    2
    30   141   142    1
    31   185   184    1
    32   129   131   ar
    33   129   128   ar
    34   115   114    2
    35   131   133   ar
    36    36    35    2
    37    40    38   am
    38   125   124    1
    39    38    37    1
    40   124   127    1
    41   124   123    1
    42   184   183    1
    43    35    34    1
    44   127   128    1
    45   128   130   ar
    46   134   133    1
    47   133   132   ar
    48   114   123   am
    49   114   113    1
    50   183   180    1
    51    37    34    1
    52   119   121   ar
    53   119   117   ar
    54    33    34    1
    55   130   132   ar
    56   121   122   ar
    57   113   116    1
    58   113   112    1
    59   116   117    1
    60   162   163    1
    61   117   118   ar
    62    51    50    2
    63   182   181    2
    64    50    49    1
    65   180   181    1
    66   180   179    1
    67   181   188   am
    68   165   164    2
    69   188   189    1
    70   122   120   ar
    71   189   190    1
    72   118   120   ar
    73   163   164    1
    74   163   166    1
    75   108   107    2
    76   164   171   am
    77    49    52    1
    78    49    48    1
    79    52    53    1
    80   218   216    1
    81   166   167    1
    82   191   190    2
    83   190   192   am
    84   201   202    1
    85   111   109    1
    86   212   213    1
    87   107   106    1
    88   202   205    1
    89   202   203    1
    90   171   172    1
    91   192   193    1
    92   106   109    1
    93   106   105    1
    94    53    54    1
    95   216   213    1
    96   216   217    1
    97   167   168    1
    98   213   214    1
    99   174   173    2
   100   173   172    1
   101   172   175    1
   102   109   110    1
   103    55    54    1
   104   101   100    2
   105   205   206    1
   106   207   206   ar
   107   207   209   ar
   108   203   204    2
   109   194   193    1
   110   194   195    2
   111    31    32   ar
   112    31    29   ar
   113   193   196    1
   114   206   208   ar
   115   178   176    1
   116   105   100   am
   117   168   169   ar
   118   168   170   ar
   119   209   211   ar
   120   100    99    1
   121   214   215    2
   122   175   176    1
   123    32    30   ar
   124    29    28   ar
   125   176   177    1
   126    44    43    2
   127   104   102    1
   128    43    42    1
   129   200   198   am
   130   196   197    1
   131   208   210   ar
   132    21    19   ar
   133    21    22   ar
   134   211   210   ar
   135    99   102    1
   136    99    98    1
   137   197   198    1
   138    30    28   ar
   139    25    24    1
   140    25    26    2
   141   103   102    1
   142    28    27    1
   143    19    18   ar
   144    96    95    2
   145   198   199    2
   146    24    27    1
   147    24    23    1
   148    22    20   ar
   149    42    41    1
   150    42    45    1
   151    18    20   ar
   152    18    17    1
   153    95    94    1
   154    46    45    1
   155    70    68    1
   156    45    47    1
   157    17    14    1
   158    97    94    1
   159    71    69    1
   160    94    93    1
   161     5     6    1
   162     5     2    1
   163     8     6   ar
   164     8    10   ar
   165     1     2    1
   166    63    61   ar
   167     6     7   ar
   168    68    69    1
   169    68    65    1
   170    13    14    1
   171    13     3   am
   172    10    11   ar
   173     2     3    1
   174    14    15    1
   175    85    84    1
   176     7     9   ar
   177    11     9   ar
   178    11    12    1
   179     3     4    2
   180    61    62   ar
   181    61    60    1
   182    16    15    2
   183    65    64    1
   184    65    66    1
   185    86    84    1
   186    59    58    2
   187    84    81    1
   188    60    57    1
   189    67    66    2
   190    64    58   am
   191    58    57    1
   192    78    77    2
   193    57    56    1
   194    90    89    2
   195    81    80    1
   196    81    82    1
   197    76    77    1
   198    76    73    1
   199    77    79   am
   200    80    74   am
   201    92    91    1
   202    89    88    1
   203    72    73    1
   204    74    73    1
   205    74    75    2
   206    83    82    2
   207    91    88    1
   208    88    87    1
