@<TRIPOS>MOLECULE
tmp/5g5xA01.pdb
 115 108 0 0 0
SMALL
GASTEIGER

@<TRIPOS>ATOM
      1  N        -12.9140   -6.9630   -6.2470 N.3    30  LEU30      -0.1245
      2  CA       -11.8070   -7.7160   -6.8220 C.3    30  LEU30       0.1561
      3  C        -12.1620   -9.1850   -7.0160 C.2    30  LEU30       0.2260
      4  O        -11.8620   -9.7630   -8.0660 O.2    30  LEU30      -0.2867
      5  CB       -10.5720   -7.5750   -5.9360 C.3    30  LEU30       0.0270
      6  CG        -9.7900   -6.2790   -6.1180 C.3    30  LEU30       0.0019
      7  CD1       -8.7290   -6.1480   -5.0400 C.3    30  LEU30       0.0001
      8  CD2       -9.1640   -6.2520   -7.5050 C.3    30  LEU30       0.0001
      9  N        -14.3570  -19.7810   -5.6540 N.3    43  ILE43      -0.1245
     10  CA       -14.1340  -18.3430   -5.6080 C.3    43  ILE43       0.1561
     11  C        -13.3250  -17.9550   -6.8360 C.2    43  ILE43       0.2260
     12  O        -12.5320  -18.7450   -7.3570 O.2    43  ILE43      -0.2867
     13  CB       -13.4220  -17.9060   -4.3080 C.3    43  ILE43       0.0252
     14  CG1      -13.4270  -16.3800   -4.1880 C.3    43  ILE43       0.0019
     15  CG2      -12.0090  -18.4490   -4.2700 C.3    43  ILE43       0.0019
     16  CD1      -12.7850  -15.8560   -2.9280 C.3    43  ILE43       0.0001
     17  N        -11.3180  -14.4110   -8.6020 N.3    45  THR45      -0.1218
     18  CA       -10.8600  -13.0450   -8.4840 C.3    45  THR45       0.1862
     19  C        -10.3600  -12.5800   -9.8300 C.2    45  THR45       0.2287
     20  O        -10.5060  -13.2930  -10.8020 O.2    45  THR45      -0.2866
     21  CB        -9.7600  -12.9130   -7.4420 C.3    45  THR45       0.1770
     22  OG1       -8.5270  -13.3670   -7.9800 O.3    45  THR45      -0.2211
     23  CG2      -10.0910  -13.7240   -6.2640 C.3    45  THR45       0.0375
     24  N         -7.3170  -12.2720  -10.6850 N.3    47  HIS47      -0.1226
     25  CA        -6.1540  -13.0820  -11.0350 C.3    47  HIS47       0.1752
     26  C         -6.5190  -14.1700  -12.0370 C.2    47  HIS47       0.2596
     27  O         -5.8540  -14.3370  -13.0650 O.2    47  HIS47      -0.2718
     28  CB        -5.5650  -13.6950   -9.7640 C.3    47  HIS47       0.0759
     29  CG        -4.2750  -14.4310   -9.9690 C.ar   47  HIS47       0.0818
     30  ND1       -3.0530  -13.9000   -9.6180 N.ar   47  HIS47      -0.2268
     31  CD2       -4.0200  -15.6680  -10.4590 C.ar   47  HIS47       0.1154
     32  CE1       -2.0980  -14.7700   -9.8980 C.ar   47  HIS47       0.1986
     33  NE2       -2.6590  -15.8510  -10.4100 N.ar   47  HIS47      -0.2212
     34  N         -7.5720  -14.8940  -11.7260 N.am   48  ASP48      -0.1974
     35  CA        -8.0350  -15.9980  -12.5290 C.3    48  ASP48       0.1709
     36  C         -8.8260  -15.6080  -13.7780 C.2    48  ASP48       0.2293
     37  O         -9.2150  -16.4620  -14.5380 O.2    48  ASP48      -0.2864
     38  CB        -8.8800  -16.9340  -11.6380 C.3    48  ASP48       0.1436
     39  CG        -8.3210  -17.0940  -10.2060 C.2    48  ASP48       0.3671
     40  OD1       -7.1780  -17.5160  -10.0250 O.co2  48  ASP48      -0.2456
     41  OD2       -9.0320  -16.8440   -9.2300 O.co2  48  ASP48      -0.2456
     42  N        -11.1900  -21.2010   -8.3400 N.3    63  SER63      -0.1217
     43  CA       -10.5150  -22.0260   -7.3480 C.3    63  SER63       0.1889
     44  C        -11.5490  -22.8190   -6.5590 C.2    63  SER63       0.2288
     45  O        -12.4950  -22.2470   -6.0070 O.2    63  SER63      -0.2866
     46  CB        -9.6710  -21.1640   -6.4100 C.3    63  SER63       0.2089
     47  OG        -8.5940  -20.5590   -7.1050 O.3    63  SER63      -0.2183
     48  N        -10.8240  -25.0410   -3.9290 N.3    65  GLU65      -0.1231
     49  CA       -10.4650  -25.1710   -2.5170 C.3    65  GLU65       0.1699
     50  C        -10.4580  -23.7770   -1.9050 C.2    65  GLU65       0.2592
     51  O         -9.4460  -23.0730   -1.9120 O.2    65  GLU65      -0.2718
     52  CB        -9.1160  -25.8620   -2.3640 C.3    65  GLU65       0.0402
     53  CG        -8.7220  -26.1540   -0.9240 C.3    65  GLU65       0.1161
     54  CD        -9.5420  -27.2730   -0.3080 C.2    65  GLU65       0.3649
     55  OE1      -10.0550  -28.1190   -1.0680 O.co2  65  GLU65      -0.2457
     56  OE2       -9.6760  -27.3090    0.9340 O.co2  65  GLU65      -0.2457
     57  N        -11.6030  -23.3760   -1.3630 N.am   66  VAL66      -0.1966
     58  CA       -11.7980  -22.0160   -0.8740 C.3    66  VAL66       0.1727
     59  C        -11.4780  -21.9620    0.6120 C.2    66  VAL66       0.2616
     60  O        -12.0070  -22.7500    1.4050 O.2    66  VAL66      -0.2715
     61  CB       -13.2320  -21.5340   -1.1430 C.3    66  VAL66       0.0290
     62  CG1      -13.3730  -20.0620   -0.7760 C.3    66  VAL66       0.0023
     63  CG2      -13.5920  -21.7640   -2.5930 C.3    66  VAL66       0.0023
     64  N        -10.6110  -21.0270    0.9850 N.am   67  VAL67      -0.1977
     65  CA       -10.3010  -20.7720    2.3850 C.3    67  VAL67       0.1596
     66  C        -11.3570  -19.8040    2.9070 C.2    67  VAL67       0.2287
     67  O        -11.4010  -18.6390    2.5050 O.2    67  VAL67      -0.2864
     68  CB        -8.8880  -20.2070    2.5550 C.3    67  VAL67       0.0276
     69  CG1       -8.4230  -20.3660    3.9930 C.3    67  VAL67       0.0022
     70  CG2       -7.9290  -20.8940    1.5940 C.3    67  VAL67       0.0022
     71  N         -1.4740  -15.5850    2.9950 N.3    86  GLY86      -0.1210
     72  CA        -1.3750  -14.5300    2.0020 C.3    86  GLY86       0.1956
     73  C         -2.5570  -14.4890    1.0570 C.2    86  GLY86       0.2612
     74  O         -2.3880  -14.4750   -0.1670 O.2    86  GLY86      -0.2717
     75  N         -3.7610  -14.4570    1.6200 N.am   87  ILE87      -0.1965
     76  CA        -5.0020  -14.5690    0.8640 C.3    87  ILE87       0.1727
     77  C         -5.8060  -13.2920    1.0580 C.2    87  ILE87       0.2617
     78  O         -5.9590  -12.8110    2.1870 O.2    87  ILE87      -0.2715
     79  CB        -5.8090  -15.8060    1.2990 C.3    87  ILE87       0.0290
     80  CG1       -5.0200  -17.0770    0.9910 C.3    87  ILE87       0.0022
     81  CG2       -7.1400  -15.8440    0.5950 C.3    87  ILE87       0.0023
     82  CD1       -4.5790  -17.1810   -0.4590 C.3    87  ILE87       0.0001
     83  N         -6.3240  -12.7520   -0.0430 N.am   88  GLY88      -0.1940
     84  CA        -7.0030  -11.4710   -0.0330 C.3    88  GLY88       0.2014
     85  C         -8.3550  -11.4580    0.6510 C.2    88  GLY88       0.2638
     86  O         -8.5200  -10.8030    1.6860 O.2    88  GLY88      -0.2714
     87  N         -9.3430  -12.1180    0.0470 N.am   89  ARG89      -0.1977
     88  CA       -10.7010  -12.1510    0.5900 C.3    89  ARG89       0.1597
     89  C        -11.1280  -13.5120    1.0910 C.2    89  ARG89       0.2287
     90  O        -10.8610  -14.5200    0.4760 O.2    89  ARG89      -0.2864
     91  CB       -11.7190  -11.6030   -0.4060 C.3    89  ARG89       0.0334
     92  CG       -11.5100  -12.0080   -1.8470 C.3    89  ARG89       0.0492
     93  CD       -11.7350  -10.8380   -2.7890 C.3    89  ARG89       0.2205
     94  NE       -10.4910  -10.1240   -2.9970 N.pl3  89  ARG89      -0.0865
     95  CZ       -10.1980   -8.9500   -2.4610 C.cat  89  ARG89       0.5346
     96  NH1      -11.0700   -8.3200   -1.6990 N.pl3  89  ARG89       0.1354
     97  NH2       -9.0280   -8.4030   -2.6950 N.pl3  89  ARG89       0.1354
     98  N        -14.4190  -15.6910    2.2630 N.3    91  PRO91      -0.2116
     99  CA       -15.8690  -15.8390    2.4280 C.3    91  PRO91       0.1372
    100  C        -16.2130  -16.3200    3.8290 C.2    91  PRO91       0.2244
    101  O        -15.4410  -17.0350    4.4720 O.2    91  PRO91      -0.2868
    102  CB       -16.2440  -16.8830    1.3700 C.3    91  PRO91       0.0268
    103  CG       -15.1280  -16.8400    0.3750 C.3    91  PRO91       0.0207
    104  CD       -13.8970  -16.5230    1.1660 C.3    91  PRO91       0.0892
    105  N         -8.7770   -8.5350    3.6390 N.3   104  ARG104     -0.1245
    106  CA        -7.6860   -7.8670    4.3040 C.3   104  ARG104      0.1563
    107  C         -8.0150   -6.4360    4.6690 C.2   104  ARG104      0.2260
    108  O         -8.0590   -6.0860    5.8450 O.2   104  ARG104     -0.2867
    109  CB        -6.4490   -7.9210    3.4160 C.3   104  ARG104      0.0307
    110  CG        -5.1460   -8.2570    4.1270 C.3   104  ARG104      0.0489
    111  CD        -3.9550   -8.0050    3.2220 C.3   104  ARG104      0.2205
    112  NE        -4.2650   -8.2570    1.8220 N.pl3 104  ARG104     -0.0865
    113  CZ        -3.7460   -9.2550    1.1240 C.cat 104  ARG104      0.5346
    114  NH1       -2.8970  -10.0760    1.7080 N.pl3 104  ARG104      0.1354
    115  NH2       -4.0710   -9.4380   -0.1480 N.pl3 104  ARG104      0.1354
@<TRIPOS>BOND
     1    37    36    2
     2    36    35    1
     3    27    26    2
     4    35    34    1
     5    35    38    1
     6    26    34   am
     7    26    25    1
     8    38    39    1
     9    25    24    1
    10    25    28    1
    11    20    19    2
    12    31    33   ar
    13    31    29   ar
    14    33    32   ar
    15    39    40   ar
    16    39    41   ar
    17    29    28    1
    18    29    30   ar
    19    32    30   ar
    20    19    18    1
    21    17    18    1
    22    18    21    1
    23    42    43    1
    24     4     3    2
    25    22    21    1
    26     8     6    1
    27    21    23    1
    28    12    11    2
    29    43    44    1
    30    43    46    1
    31    47    46    1
    32     3     2    1
    33    11    10    1
    34     2     1    1
    35     2     5    1
    36    44    45    2
    37     6     5    1
    38     6     7    1
    39     9    10    1
    40    10    13    1
    41    13    15    1
    42    13    14    1
    43    14    16    1
    44    48    49    1
    45    94    93    1
    46    94    95    2
    47    93    92    1
    48    97    95    1
    49    63    61    1
    50    49    52    1
    51    49    50    1
    52    95    96    1
    53    52    53    1
    54    51    50    2
    55    50    57   am
    56    92    91    1
    57    57    58    1
    58    61    58    1
    59    61    62    1
    60    55    54   ar
    61    53    54    1
    62    58    59    1
    63    82    80    1
    64    91    88    1
    65    54    56   ar
    66    74    73    2
    67   115   113    1
    68    83    84    1
    69    83    77   am
    70    84    85    1
    71    87    88    1
    72    87    85   am
    73   103   104    1
    74   103   102    1
    75    90    89    2
    76    88    89    1
    77    81    79    1
    78    59    64   am
    79    59    60    2
    80    85    86    2
    81    76    77    1
    82    76    79    1
    83    76    75    1
    84    64    65    1
    85    80    79    1
    86    73    75   am
    87    73    72    1
    88    77    78    2
    89   113   114    1
    90   113   112    2
    91   104    98    1
    92   102    99    1
    93    70    68    1
    94   112   111    1
    95    72    71    1
    96    98    99    1
    97    65    68    1
    98    65    66    1
    99    99   100    1
   100    67    66    2
   101    68    69    1
   102   111   110    1
   103   109   110    1
   104   109   106    1
   105   105   106    1
   106   100   101    2
   107   106   107    1
   108   107   108    2
