@<TRIPOS>MOLECULE
tmp/5g5xA00.pdb
 119 115 0 0 0
SMALL
GASTEIGER

@<TRIPOS>ATOM
      1  N        -19.1560   -8.0550    5.5030 N.3     5  ASN5       -0.1240
      2  CA       -20.1590   -7.4560    4.6300 C.3     5  ASN5        0.1653
      3  C        -21.1750   -8.5330    4.2620 C.2     5  ASN5        0.2266
      4  O        -20.8620   -9.4550    3.5020 O.2     5  ASN5       -0.2867
      5  CB       -19.5080   -6.8620    3.3830 C.3     5  ASN5        0.1155
      6  CG       -20.1930   -5.5950    2.9160 C.2     5  ASN5        0.2627
      7  OD1      -21.2700   -5.6370    2.3210 O.2     5  ASN5       -0.2716
      8  ND2      -19.5670   -4.4570    3.1830 N.am    5  ASN5       -0.0877
      9  N        -24.0100   -8.1820    2.5670 N.3     7  GLU7       -0.1231
     10  CA       -24.4960   -8.0400    1.1950 C.3     7  GLU7        0.1699
     11  C        -23.3780   -8.4900    0.2650 C.2     7  GLU7        0.2592
     12  O        -22.4800   -7.7130   -0.0680 O.2     7  GLU7       -0.2718
     13  CB       -24.9180   -6.6030    0.9110 C.3     7  GLU7        0.0402
     14  CG       -26.0870   -6.1220    1.7520 C.3     7  GLU7        0.1161
     15  CD       -26.4090   -4.6570    1.5300 C.2     7  GLU7        0.3649
     16  OE1      -25.5760   -3.9410    0.9310 O.co2   7  GLU7       -0.2457
     17  OE2      -27.4980   -4.2200    1.9560 O.co2   7  GLU7       -0.2457
     18  N        -23.4240   -9.7510   -0.1540 N.am    8  VAL8       -0.1966
     19  CA       -22.3170  -10.3820   -0.8600 C.3     8  VAL8        0.1727
     20  C        -22.6390  -10.4470   -2.3440 C.2     8  VAL8        0.2616
     21  O        -23.7390  -10.8570   -2.7370 O.2     8  VAL8       -0.2715
     22  CB       -22.0270  -11.7840   -0.3000 C.3     8  VAL8        0.0290
     23  CG1      -20.7540  -12.3490   -0.9130 C.3     8  VAL8        0.0023
     24  CG2      -21.9090  -11.7290    1.2070 C.3     8  VAL8        0.0023
     25  N        -21.6800  -10.0380   -3.1670 N.am    9  VAL9       -0.1977
     26  CA       -21.7820  -10.1620   -4.6140 C.3     9  VAL9        0.1596
     27  C        -21.1740  -11.5080   -4.9880 C.2     9  VAL9        0.2287
     28  O        -19.9610  -11.7050   -4.8730 O.2     9  VAL9       -0.2864
     29  CB       -21.0740   -9.0040   -5.3280 C.3     9  VAL9        0.0276
     30  CG1      -21.2710   -9.0990   -6.8310 C.3     9  VAL9        0.0022
     31  CG2      -21.5840   -7.6700   -4.8060 C.3     9  VAL9        0.0022
     32  N        -17.0450   -2.7970   -8.5230 N.3    28  LYS28      -0.1231
     33  CA       -15.6680   -2.4530   -8.1630 C.3    28  LYS28       0.1693
     34  C        -15.1310   -3.3860   -7.0800 C.2    28  LYS28       0.2592
     35  O        -14.4180   -2.9660   -6.1660 O.2    28  LYS28      -0.2718
     36  CB       -15.5490   -0.9890   -7.7280 C.3    28  LYS28       0.0285
     37  CG       -15.5590    0.0230   -8.8690 C.3    28  LYS28       0.0035
     38  CD       -16.9680    0.4680   -9.2370 C.3    28  LYS28       0.0206
     39  CE       -16.9420    1.6020  -10.2560 C.3    28  LYS28       0.1093
     40  NZ       -16.3900    1.1710  -11.5720 N.3    28  LYS28      -0.1314
     41  N        -15.4020   -4.6660   -7.2440 N.am   29  HIS29      -0.1962
     42  CA       -14.9240   -5.6740   -6.3280 C.3    29  HIS29       0.1787
     43  C        -13.8900   -6.5120   -7.0130 C.2    29  HIS29       0.2620
     44  O        -13.9700   -6.7480   -8.2060 O.2    29  HIS29      -0.2715
     45  CB       -16.0670   -6.5100   -5.8700 C.3    29  HIS29       0.0785
     46  CG       -16.7660   -5.9380   -4.7010 C.ar   29  HIS29       0.0821
     47  ND1      -18.1110   -5.6850   -4.6990 N.ar   29  HIS29      -0.2267
     48  CD2      -16.3000   -5.5310   -3.5050 C.ar   29  HIS29       0.1154
     49  CE1      -18.4530   -5.1760   -3.5360 C.ar   29  HIS29       0.1986
     50  NE2      -17.3710   -5.0710   -2.7930 N.ar   29  HIS29      -0.2212
     51  N        -12.9140   -6.9630   -6.2470 N.am   30  LEU30      -0.1963
     52  CA       -11.8070   -7.7160   -6.8220 C.3    30  LEU30       0.1728
     53  C        -12.1620   -9.1850   -7.0160 C.2    30  LEU30       0.2617
     54  O        -11.8620   -9.7630   -8.0660 O.2    30  LEU30      -0.2715
     55  CB       -10.5720   -7.5750   -5.9360 C.3    30  LEU30       0.0311
     56  CG        -9.7900   -6.2790   -6.1180 C.3    30  LEU30       0.0022
     57  CD1       -8.7290   -6.1480   -5.0400 C.3    30  LEU30       0.0001
     58  CD2       -9.1640   -6.2520   -7.5050 C.3    30  LEU30       0.0001
     59  N        -12.7940   -9.8090   -6.0180 N.am   31  GLY31      -0.1940
     60  CA       -13.1600  -11.2040   -6.1060 C.3    31  GLY31       0.2014
     61  C        -14.6370  -11.4030   -5.8140 C.2    31  GLY31       0.2639
     62  O        -15.3110  -10.5230   -5.2740 O.2    31  GLY31      -0.2714
     63  N        -15.1310  -12.5890   -6.1880 N.am   32  PHE32      -0.1960
     64  CA       -16.5180  -12.9730   -5.9450 C.3    32  PHE32       0.1756
     65  C        -16.5690  -14.4430   -5.5400 C.2    32  PHE32       0.2461
     66  O        -15.9930  -15.2970   -6.2410 O.2    32  PHE32      -0.2730
     67  CB       -17.3960  -12.7420   -7.1780 C.3    32  PHE32       0.0574
     68  CG       -17.2340  -11.3850   -7.7940 C.ar   32  PHE32      -0.0200
     69  CD1      -17.9470  -10.2990   -7.3140 C.ar   32  PHE32      -0.0042
     70  CD2      -16.3640  -11.1960   -8.8530 C.ar   32  PHE32      -0.0042
     71  CE1      -17.7950   -9.0500   -7.8810 C.ar   32  PHE32      -0.0003
     72  CE2      -16.2080   -9.9510   -9.4230 C.ar   32  PHE32      -0.0003
     73  CZ       -16.9240   -8.8750   -8.9370 C.ar   32  PHE32      -0.0000
     74  N        -17.2320  -14.7760   -4.4330 N.am   33  PRO33      -0.2727
     75  CA       -17.4760  -16.1900   -4.1310 C.3    33  PRO33       0.1402
     76  C        -18.4320  -16.7950   -5.1450 C.2    33  PRO33       0.2269
     77  O        -19.4120  -16.1690   -5.5530 O.2    33  PRO33      -0.2865
     78  CB       -18.0990  -16.1600   -2.7290 C.3    33  PRO33       0.0296
     79  CG       -17.7470  -14.8270   -2.1710 C.3    33  PRO33       0.0237
     80  CD       -17.6700  -13.8930   -3.3400 C.3    33  PRO33       0.0939
     81  N         -9.3430  -12.1180    0.0470 N.3    89  ARG89      -0.1245
     82  CA       -10.7010  -12.1510    0.5900 C.3    89  ARG89       0.1563
     83  C        -11.1280  -13.5120    1.0910 C.2    89  ARG89       0.2260
     84  O        -10.8610  -14.5200    0.4760 O.2    89  ARG89      -0.2867
     85  CB       -11.7190  -11.6030   -0.4060 C.3    89  ARG89       0.0307
     86  CG       -11.5100  -12.0080   -1.8470 C.3    89  ARG89       0.0489
     87  CD       -11.7350  -10.8380   -2.7890 C.3    89  ARG89       0.2205
     88  NE       -10.4910  -10.1240   -2.9970 N.pl3  89  ARG89      -0.0865
     89  CZ       -10.1980   -8.9500   -2.4610 C.cat  89  ARG89       0.5346
     90  NH1      -11.0700   -8.3200   -1.6990 N.pl3  89  ARG89       0.1354
     91  NH2       -9.0280   -8.4030   -2.6950 N.pl3  89  ARG89       0.1354
     92  N        -18.7650  -11.6380    3.9670 N.3   101  ILE101     -0.1245
     93  CA       -17.4210  -11.6600    3.4030 C.3   101  ILE101      0.1561
     94  C        -16.5720  -10.6360    4.1420 C.2   101  ILE101      0.2260
     95  O        -17.0320   -9.5380    4.4670 O.2   101  ILE101     -0.2867
     96  CB       -17.4440  -11.4090    1.8760 C.3   101  ILE101      0.0252
     97  CG1      -16.0420  -11.5780    1.2890 C.3   101  ILE101      0.0019
     98  CG2      -18.0160  -10.0350    1.5550 C.3   101  ILE101      0.0019
     99  CD1      -16.0320  -11.8890   -0.1940 C.3   101  ILE101      0.0001
    100  N        -12.2970   -9.2510    4.1500 N.3   103  SER103     -0.1217
    101  CA       -11.0500   -9.2940    3.4060 C.3   103  SER103      0.1889
    102  C         -9.9800   -8.5210    4.1630 C.2   103  SER103      0.2288
    103  O        -10.2250   -7.9520    5.2310 O.2   103  SER103     -0.2866
    104  CB       -11.2300   -8.7410    1.9870 C.3   103  SER103      0.2089
    105  OG       -11.6720   -7.3980    2.0230 O.3   103  SER103     -0.2183
    106  N         -8.2380   -5.6210    3.6440 N.3   105  SER105     -0.1202
    107  CA        -8.5550   -4.2140    3.8050 C.3   105  SER105      0.2020
    108  C         -9.4940   -3.9830    4.9470 C.2   105  SER105      0.2618
    109  O         -9.2590   -3.1720    5.8120 O.2   105  SER105     -0.2717
    110  CB        -9.1880   -3.6700    2.5410 C.3   105  SER105      0.2103
    111  OG        -9.6960   -4.6860    1.7210 O.3   105  SER105     -0.2182
    112  N        -10.5820   -4.7460    4.9310 N.am  106  ASP106     -0.1973
    113  CA       -11.6010   -4.6700    5.9620 C.3   106  ASP106      0.1709
    114  C        -10.9800   -4.7970    7.3450 C.2   106  ASP106      0.2293
    115  O        -11.4540   -4.1790    8.2980 O.2   106  ASP106     -0.2864
    116  CB       -12.6540   -5.7600    5.7570 C.3   106  ASP106      0.1436
    117  CG       -13.6770   -5.3910    4.7000 C.2   106  ASP106      0.3671
    118  OD1      -13.9720   -4.1870    4.5520 O.co2 106  ASP106     -0.2456
    119  OD2      -14.1850   -6.3050    4.0170 O.co2 106  ASP106     -0.2456
@<TRIPOS>BOND
     1    40    39    1
     2    39    38    1
     3    72    73   ar
     4    72    70   ar
     5    38    37    1
     6    73    71   ar
     7    37    36    1
     8    70    68   ar
     9    32    33    1
    10    44    43    2
    11    33    36    1
    12    33    34    1
    13    54    53    2
    14    71    69   ar
    15    68    69   ar
    16    68    67    1
    17    58    56    1
    18    41    34   am
    19    41    42    1
    20    67    64    1
    21    34    35    2
    22    53    52    1
    23    53    59   am
    24    43    42    1
    25    43    51   am
    26    30    29    1
    27    52    51    1
    28    52    55    1
    29    42    45    1
    30    66    65    2
    31    63    64    1
    32    63    61   am
    33    56    55    1
    34    56    57    1
    35    60    59    1
    36    60    61    1
    37    64    65    1
    38    45    46    1
    39    61    62    2
    40    77    76    2
    41    65    74   am
    42    29    31    1
    43    29    26    1
    44    76    75    1
    45    27    28    2
    46    27    26    1
    47    46    47   ar
    48    46    48   ar
    49    47    49   ar
    50    26    25    1
    51    74    75    1
    52    74    80    1
    53    75    78    1
    54    49    50   ar
    55    48    50   ar
    56    80    79    1
    57    25    20   am
    58    88    87    1
    59    88    89    2
    60    87    86    1
    61    21    20    2
    62    78    79    1
    63    91    89    1
    64    89    90    1
    65    20    19    1
    66    86    85    1
    67    23    22    1
    68    19    22    1
    69    19    18    1
    70    85    82    1
    71    22    24    1
    72    99    97    1
    73    18    11   am
    74    12    11    2
    75    81    82    1
    76    11    10    1
    77    84    83    2
    78    82    83    1
    79    13    10    1
    80    13    14    1
    81    16    15   ar
    82    10     9    1
    83    97    96    1
    84    15    14    1
    85    15    17   ar
    86    98    96    1
    87   111   110    1
    88    96    93    1
    89   104   105    1
    90   104   101    1
    91     7     6    2
    92   110   107    1
    93     6     8   am
    94     6     5    1
    95     5     2    1
    96    93    92    1
    97    93    94    1
    98   101   100    1
    99   101   102    1
   100     4     3    2
   101   106   107    1
   102   107   108    1
   103   119   117   ar
   104    94    95    2
   105   102   103    2
   106     3     2    1
   107   118   117   ar
   108     2     1    1
   109   117   116    1
   110   112   108   am
   111   112   113    1
   112   108   109    2
   113   116   113    1
   114   113   114    1
   115   114   115    2
