@<TRIPOS>MOLECULE
tmp/5g5zB00.pdb
 187 183 0 0 0
SMALL
GASTEIGER

@<TRIPOS>ATOM
      1  N         -4.7550  -68.6720  -51.9710 N.3   119  TRP119     -0.1241
      2  CA        -6.0360  -69.3560  -52.0490 C.3   119  TRP119      0.1605
      3  C         -6.4030  -69.5140  -53.5200 C.2   119  TRP119      0.2264
      4  O         -6.3900  -68.5360  -54.2740 O.2   119  TRP119     -0.2867
      5  CB        -7.0930  -68.5460  -51.3030 C.3   119  TRP119      0.0550
      6  CG        -8.5310  -68.9360  -51.4760 C.ar  119  TRP119      0.0003
      7  CD1       -9.2160  -69.8550  -50.7410 C.ar  119  TRP119      0.0946
      8  CD2       -9.4910  -68.3390  -52.3730 C.ar  119  TRP119      0.0152
      9  NE1      -10.5280  -69.9010  -51.1500 N.ar  119  TRP119     -0.2442
     10  CE2      -10.7260  -68.9770  -52.1420 C.ar  119  TRP119      0.0810
     11  CE3       -9.4170  -67.3470  -53.3660 C.ar  119  TRP119      0.0012
     12  CZ2      -11.8860  -68.6480  -52.8520 C.ar  119  TRP119      0.0191
     13  CZ3      -10.5750  -67.0240  -54.0740 C.ar  119  TRP119      0.0001
     14  CH2      -11.7930  -67.6790  -53.8080 C.ar  119  TRP119      0.0015
     15  N         -9.4800  -71.2640  -55.9770 N.3   121  GLU121     -0.1245
     16  CA       -10.8110  -71.8800  -55.9990 C.3   121  GLU121      0.1567
     17  C        -11.4070  -71.7190  -57.3960 C.2   121  GLU121      0.2260
     18  O        -11.7970  -70.6080  -57.7790 O.2   121  GLU121     -0.2867
     19  CB       -11.7110  -71.2470  -54.9520 C.3   121  GLU121      0.0388
     20  CG       -13.1360  -71.8370  -54.8700 C.3   121  GLU121      0.1160
     21  CD       -14.0910  -70.9690  -54.0390 C.2   121  GLU121      0.3649
     22  OE1      -14.5010  -69.8940  -54.5330 O.co2 121  GLU121     -0.2457
     23  OE2      -14.4480  -71.3700  -52.9030 O.co2 121  GLU121     -0.2457
     24  N        -14.2450  -71.9600  -59.8870 N.3   123  LEU123     -0.1245
     25  CA       -15.7030  -71.9940  -60.0590 C.3   123  LEU123      0.1561
     26  C        -16.0160  -71.1100  -61.2640 C.2   123  LEU123      0.2260
     27  O        -16.1540  -69.8880  -61.1420 O.2   123  LEU123     -0.2867
     28  CB       -16.4140  -71.5130  -58.7920 C.3   123  LEU123      0.0270
     29  CG       -16.3970  -72.4700  -57.6010 C.3   123  LEU123      0.0019
     30  CD1      -16.8790  -71.7770  -56.3060 C.3   123  LEU123      0.0001
     31  CD2      -17.2530  -73.6880  -57.9490 C.3   123  LEU123      0.0001
     32  N        -17.5910  -67.2910  -61.2430 N.3   130  ILE130     -0.1231
     33  CA       -18.5560  -66.9240  -60.2200 C.3   130  ILE130      0.1692
     34  C        -18.2850  -65.5170  -59.7060 C.2   130  ILE130      0.2592
     35  O        -19.1800  -64.8830  -59.1330 O.2   130  ILE130     -0.2718
     36  CB       -18.5570  -67.9580  -59.0690 C.3   130  ILE130      0.0266
     37  CG1      -19.8910  -67.8930  -58.3020 C.3   130  ILE130      0.0019
     38  CG2      -17.3420  -67.7530  -58.1480 C.3   130  ILE130      0.0020
     39  CD1      -20.0340  -68.9610  -57.2040 C.3   130  ILE130      0.0001
     40  N        -17.0800  -64.9930  -59.9390 N.am  131  HIS131     -0.1976
     41  CA       -16.6890  -63.6690  -59.4760 C.3   131  HIS131      0.1656
     42  C        -17.0180  -62.5640  -60.4580 C.2   131  HIS131      0.2291
     43  O        -16.7950  -61.3950  -60.1230 O.2   131  HIS131     -0.2864
     44  CB       -15.1880  -63.6470  -59.1510 C.3   131  HIS131      0.0771
     45  CG       -14.7880  -64.6940  -58.1520 C.ar  131  HIS131      0.0820
     46  ND1      -14.8480  -64.4940  -56.7880 N.ar  131  HIS131     -0.2267
     47  CD2      -14.3780  -65.9750  -58.3240 C.ar  131  HIS131      0.1154
     48  CE1      -14.4800  -65.6010  -56.1640 C.ar  131  HIS131      0.1986
     49  NE2      -14.1870  -66.5140  -57.0740 N.ar  131  HIS131     -0.2212
     50  N        -20.3790  -56.6240  -51.9120 N.3   189  ASN189     -0.1240
     51  CA       -21.4830  -57.3580  -52.5140 C.3   189  ASN189      0.1653
     52  C        -22.8330  -56.6630  -52.3680 C.2   189  ASN189      0.2266
     53  O        -23.7710  -57.0190  -53.0800 O.2   189  ASN189     -0.2867
     54  CB       -21.5640  -58.7590  -51.9010 C.3   189  ASN189      0.1155
     55  CG       -20.2570  -59.5630  -52.0440 C.2   189  ASN189      0.2627
     56  OD1      -19.4470  -59.3440  -52.9590 O.2   189  ASN189     -0.2716
     57  ND2      -20.0700  -60.5180  -51.1480 N.am  189  ASN189     -0.0877
     58  N        -24.3580  -54.4300  -41.9890 N.3   250  TRP250     -0.1241
     59  CA       -24.7950  -55.7380  -42.4800 C.3   250  TRP250      0.1605
     60  C        -25.8730  -56.3540  -41.5840 C.2   250  TRP250      0.2264
     61  O        -26.8750  -56.8890  -42.0810 O.2   250  TRP250     -0.2867
     62  CB       -23.5770  -56.6580  -42.5980 C.3   250  TRP250      0.0550
     63  CG       -23.8630  -58.0900  -42.9950 C.ar  250  TRP250      0.0003
     64  CD1      -23.7190  -59.1990  -42.2050 C.ar  250  TRP250      0.0946
     65  CD2      -24.3250  -58.5690  -44.2730 C.ar  250  TRP250      0.0152
     66  NE1      -24.0660  -60.3310  -42.9050 N.ar  250  TRP250     -0.2442
     67  CE2      -24.4440  -59.9750  -44.1720 C.ar  250  TRP250      0.0810
     68  CE3      -24.6670  -57.9490  -45.4830 C.ar  250  TRP250      0.0012
     69  CZ2      -24.8830  -60.7710  -45.2370 C.ar  250  TRP250      0.0191
     70  CZ3      -25.0990  -58.7470  -46.5430 C.ar  250  TRP250      0.0001
     71  CH2      -25.2000  -60.1410  -46.4110 C.ar  250  TRP250      0.0015
     72  N        -24.5580  -60.7800  -52.5960 N.3   268  TRP268     -0.1227
     73  CA       -23.9840  -61.9020  -53.3380 C.3   268  TRP268      0.1737
     74  C        -25.0160  -63.0060  -53.5610 C.2   268  TRP268      0.2595
     75  O        -25.1540  -63.5140  -54.6780 O.2   268  TRP268     -0.2718
     76  CB       -22.7500  -62.4380  -52.5970 C.3   268  TRP268      0.0564
     77  CG       -22.0530  -63.6450  -53.2140 C.ar  268  TRP268      0.0003
     78  CD1      -22.3480  -64.9680  -53.0050 C.ar  268  TRP268      0.0946
     79  CD2      -20.9220  -63.6240  -54.0990 C.ar  268  TRP268      0.0152
     80  NE1      -21.4760  -65.7730  -53.7150 N.ar  268  TRP268     -0.2442
     81  CE2      -20.5900  -64.9690  -54.3910 C.ar  268  TRP268      0.0810
     82  CE3      -20.1550  -62.6020  -54.6610 C.ar  268  TRP268      0.0012
     83  CZ2      -19.5230  -65.3100  -55.2310 C.ar  268  TRP268      0.0191
     84  CZ3      -19.0840  -62.9480  -55.5100 C.ar  268  TRP268      0.0001
     85  CH2      -18.7860  -64.2870  -55.7780 C.ar  268  TRP268      0.0015
     86  N        -25.7770  -63.3590  -52.5260 N.am  269  ASP269     -0.1974
     87  CA       -26.6870  -64.5010  -52.5730 C.3   269  ASP269      0.1709
     88  C        -27.8580  -64.1860  -51.6580 C.2   269  ASP269      0.2293
     89  O        -27.6450  -63.9430  -50.4580 O.2   269  ASP269     -0.2864
     90  CB       -25.9450  -65.7710  -52.1370 C.3   269  ASP269      0.1436
     91  CG       -26.8240  -67.0090  -52.0690 C.2   269  ASP269      0.3671
     92  OD1      -28.0680  -66.9420  -52.1570 O.co2 269  ASP269     -0.2456
     93  OD2      -26.2310  -68.0870  -51.8950 O.co2 269  ASP269     -0.2456
     94  N        -28.6370  -65.2650  -47.9220 N.3   272  ASN272     -0.1240
     95  CA       -28.0290  -64.6500  -46.7500 C.3   272  ASN272      0.1653
     96  C        -28.7850  -63.4300  -46.2620 C.2   272  ASN272      0.2266
     97  O        -28.5060  -62.9470  -45.1560 O.2   272  ASN272     -0.2867
     98  CB       -26.5790  -64.2380  -47.0450 C.3   272  ASN272      0.1155
     99  CG       -25.7020  -65.4160  -47.3980 C.2   272  ASN272      0.2627
    100  OD1      -25.8740  -66.5120  -46.8640 O.2   272  ASN272     -0.2716
    101  ND2      -24.7490  -65.1960  -48.3070 N.am  272  ASN272     -0.0877
    102  N        -14.5210  -74.6660  -47.0260 N.3   338  TRP338     -0.1241
    103  CA       -15.9830  -74.6660  -46.9940 C.3   338  TRP338      0.1605
    104  C        -16.6360  -75.2130  -45.7220 C.2   338  TRP338      0.2264
    105  O        -17.8390  -74.9880  -45.5430 O.2   338  TRP338     -0.2867
    106  CB       -16.5350  -75.4640  -48.1850 C.3   338  TRP338      0.0550
    107  CG       -16.5300  -74.6970  -49.4670 C.ar  338  TRP338      0.0003
    108  CD1      -16.7660  -73.3600  -49.6220 C.ar  338  TRP338      0.0946
    109  CD2      -16.2530  -75.2120  -50.7730 C.ar  338  TRP338      0.0152
    110  NE1      -16.6770  -73.0130  -50.9490 N.ar  338  TRP338     -0.2442
    111  CE2      -16.3610  -74.1300  -51.6800 C.ar  338  TRP338      0.0810
    112  CE3      -15.9450  -76.4840  -51.2730 C.ar  338  TRP338      0.0012
    113  CZ2      -16.1500  -74.2800  -53.0630 C.ar  338  TRP338      0.0191
    114  CZ3      -15.7390  -76.6310  -52.6510 C.ar  338  TRP338      0.0001
    115  CH2      -15.8470  -75.5350  -53.5230 C.ar  338  TRP338      0.0015
    116  N        -25.9860  -70.5330  -46.0160 N.3   369  PRO369     -0.2102
    117  CA       -24.7350  -71.2840  -46.2060 C.3   369  PRO369      0.1504
    118  C        -23.5560  -70.5750  -45.5530 C.2   369  PRO369      0.2575
    119  O        -22.7840  -71.1890  -44.8030 O.2   369  PRO369     -0.2718
    120  CB       -24.5880  -71.3410  -47.7330 C.3   369  PRO369      0.0282
    121  CG       -25.2460  -70.0690  -48.2100 C.3   369  PRO369      0.0208
    122  CD       -26.3890  -69.8060  -47.2450 C.3   369  PRO369      0.0893
    123  N        -23.4570  -69.2700  -45.8110 N.am  370  ALA370     -0.1980
    124  CA       -22.3590  -68.4620  -45.2940 C.3   370  ALA370      0.1597
    125  C        -22.2740  -68.5040  -43.7720 C.2   370  ALA370      0.2287
    126  O        -21.1880  -68.3230  -43.2060 O.2   370  ALA370     -0.2864
    127  CB       -22.5300  -67.0210  -45.7690 C.3   370  ALA370      0.0319
    128  N        -20.7750  -71.7820  -42.7840 N.3   373  ARG373     -0.1231
    129  CA       -19.4220  -71.7830  -43.3180 C.3   373  ARG373      0.1694
    130  C        -18.4860  -71.0000  -42.4090 C.2   373  ARG373      0.2591
    131  O        -17.4290  -71.4940  -42.0090 O.2   373  ARG373     -0.2718
    132  CB       -19.4090  -71.2160  -44.7310 C.3   373  ARG373      0.0321
    133  CG       -18.0080  -71.0960  -45.2920 C.3   373  ARG373      0.0489
    134  CD       -18.0330  -70.4900  -46.6840 C.3   373  ARG373      0.2205
    135  NE       -16.7060  -70.5310  -47.2750 N.pl3 373  ARG373     -0.0865
    136  CZ       -16.4120  -70.0930  -48.4920 C.cat 373  ARG373      0.5346
    137  NH1      -17.3600  -69.5680  -49.2610 N.pl3 373  ARG373      0.1354
    138  NH2      -15.1650  -70.1820  -48.9280 N.pl3 373  ARG373      0.1354
    139  N        -18.8700  -69.7780  -42.0480 N.am  374  GLN374     -0.1979
    140  CA       -17.9130  -68.9550  -41.3390 C.3   374  GLN374      0.1601
    141  C        -17.7320  -69.4060  -39.9000 C.2   374  GLN374      0.2287
    142  O        -16.7340  -69.0440  -39.2720 O.2   374  GLN374     -0.2864
    143  CB       -18.3190  -67.4770  -41.4540 C.3   374  GLN374      0.0394
    144  CG       -19.6330  -67.0900  -40.8450 C.3   374  GLN374      0.0908
    145  CD       -20.0520  -65.6830  -41.2650 C.2   374  GLN374      0.2608
    146  OE1      -19.5650  -64.6850  -40.7260 O.2   374  GLN374     -0.2717
    147  NE2      -20.9540  -65.6010  -42.2370 N.am  374  GLN374     -0.0878
    148  N        -15.4100  -73.1280  -41.2680 N.3   377  GLU377     -0.1245
    149  CA       -14.2450  -73.0560  -42.1460 C.3   377  GLU377      0.1567
    150  C        -13.0210  -72.5950  -41.3550 C.2   377  GLU377      0.2260
    151  O        -13.1140  -72.1470  -40.2020 O.2   377  GLU377     -0.2867
    152  CB       -14.4810  -72.0800  -43.3040 C.3   377  GLU377      0.0388
    153  CG       -14.2770  -70.6210  -42.8340 C.3   377  GLU377      0.1160
    154  CD       -14.8610  -69.5670  -43.7660 C.2   377  GLU377      0.3649
    155  OE1      -14.7760  -69.7380  -45.0000 O.co2 377  GLU377     -0.2457
    156  OE2      -15.4100  -68.5590  -43.2590 O.co2 377  GLU377     -0.2457
    157  N        -20.4150  -77.1080  -54.4390 N.3   396  PRO396     -0.2116
    158  CA       -21.4960  -76.6070  -53.5770 C.3   396  PRO396      0.1372
    159  C        -22.7310  -76.3230  -54.4160 C.2   396  PRO396      0.2244
    160  O        -22.6310  -75.8580  -55.5570 O.2   396  PRO396     -0.2868
    161  CB       -20.9220  -75.3160  -52.9740 C.3   396  PRO396      0.0268
    162  CG       -19.4630  -75.3540  -53.2060 C.3   396  PRO396      0.0207
    163  CD       -19.2400  -76.2260  -54.4200 C.3   396  PRO396      0.0892
    164  N        -25.0850  -74.1120  -53.7750 N.3   398  ASP398     -0.1225
    165  CA       -25.3340  -72.6980  -53.9750 C.3   398  ASP398      0.1805
    166  C        -24.3450  -72.1060  -54.9640 C.2   398  ASP398      0.2597
    167  O        -24.6700  -71.1090  -55.6200 O.2   398  ASP398     -0.2718
    168  CB       -25.3470  -71.9440  -52.6340 C.3   398  ASP398      0.1424
    169  CG       -24.0140  -71.9920  -51.8880 C.2   398  ASP398      0.3668
    170  OD1      -23.1020  -72.7790  -52.2350 O.co2 398  ASP398     -0.2456
    171  OD2      -23.8910  -71.2200  -50.9150 O.co2 398  ASP398     -0.2456
    172  N        -23.1720  -72.7280  -55.1320 N.am  399  ALA399     -0.1979
    173  CA       -22.2380  -72.2690  -56.1570 C.3   399  ALA399      0.1597
    174  C        -22.7130  -72.6540  -57.5550 C.2   399  ALA399      0.2287
    175  O        -22.7110  -71.8130  -58.4600 O.2   399  ALA399     -0.2864
    176  CB       -20.8290  -72.8180  -55.9020 C.3   399  ALA399      0.0319
    177  N        -25.4800  -70.1530  -58.3360 N.3   402  ARG402     -0.1245
    178  CA       -24.9670  -68.8390  -58.7200 C.3   402  ARG402      0.1563
    179  C        -24.3240  -68.8710  -60.1100 C.2   402  ARG402      0.2260
    180  O        -24.5280  -67.9540  -60.9150 O.2   402  ARG402     -0.2867
    181  CB       -23.9600  -68.3380  -57.6790 C.3   402  ARG402      0.0307
    182  CG       -23.6730  -66.8460  -57.7910 C.3   402  ARG402      0.0489
    183  CD       -22.9390  -66.3130  -56.5520 C.3   402  ARG402      0.2205
    184  NE       -23.2370  -64.8970  -56.3590 N.pl3 402  ARG402     -0.0865
    185  CZ       -22.6030  -63.8960  -56.9600 C.cat 402  ARG402      0.5346
    186  NH1      -21.6080  -64.1220  -57.8050 N.pl3 402  ARG402      0.1354
    187  NH2      -22.9610  -62.6540  -56.6940 N.pl3 402  ARG402      0.1354
@<TRIPOS>BOND
     1    26    27    2
     2    26    25    1
     3    32    33    1
     4   180   179    2
     5    42    43    2
     6    42    41    1
     7    33    34    1
     8    33    36    1
     9   179   178    1
    10    25    24    1
    11    25    28    1
    12    40    34   am
    13    40    41    1
    14    34    35    2
    15    41    44    1
    16    44    45    1
    17    36    37    1
    18    36    38    1
    19    28    29    1
    20   178   177    1
    21   178   181    1
    22   175   174    2
    23    47    45   ar
    24    47    49   ar
    25    37    39    1
    26    45    46   ar
    27    31    29    1
    28   186   185    1
    29   182   181    1
    30   182   183    1
    31    18    17    2
    32    29    30    1
    33   174   173    1
    34    17    16    1
    35    49    48   ar
    36   185   187    1
    37   185   184    2
    38    46    48   ar
    39   183   184    1
    40   173   176    1
    41   173   172    1
    42    16    15    1
    43    16    19    1
    44    85    84   ar
    45    85    83   ar
    46   167   166    2
    47   160   159    2
    48    84    82   ar
    49    83    81   ar
    50   172   166   am
    51   166   165    1
    52    19    20    1
    53    20    21    1
    54    75    74    2
    55    82    79   ar
    56    22    21   ar
    57   157   163    1
    58   157   158    1
    59   163   162    1
    60   159   158    1
    61    81    79   ar
    62    81    80   ar
    63     4     3    2
    64    79    77   ar
    65    13    14   ar
    66    13    11   ar
    67    21    23   ar
    68   165   164    1
    69   165   168    1
    70    14    12   ar
    71    80    78   ar
    72   158   161    1
    73    74    73    1
    74    74    86   am
    75   115   113   ar
    76   115   114   ar
    77     3     2    1
    78    11     8   ar
    79    73    76    1
    80    73    72    1
    81    77    78   ar
    82    77    76    1
    83   162   161    1
    84    53    52    2
    85   113   111   ar
    86    56    55    2
    87    12    10   ar
    88   114   112   ar
    89   168   169    1
    90    87    86    1
    91    87    90    1
    92    87    88    1
    93    51    52    1
    94    51    50    1
    95    51    54    1
    96     8    10   ar
    97     8     6   ar
    98   170   169   ar
    99    92    91   ar
   100    10     9   ar
   101    90    91    1
   102    91    93   ar
   103     2     1    1
   104     2     5    1
   105    55    54    1
   106    55    57   am
   107   169   171   ar
   108   111   110   ar
   109   111   109   ar
   110    88    89    2
   111     6     5    1
   112     6     7   ar
   113   112   109   ar
   114     9     7   ar
   115   110   108   ar
   116   109   107   ar
   117   108   107   ar
   118   107   106    1
   119   137   136    1
   120   138   136    1
   121   136   135    2
   122   101    99   am
   123   121   120    1
   124   121   122    1
   125   106   103    1
   126    94    95    1
   127   120   117    1
   128    99    98    1
   129    99   100    2
   130   135   134    1
   131   122   116    1
   132    98    95    1
   133   102   103    1
   134   103   104    1
   135    95    96    1
   136   134   133    1
   137    70    71   ar
   138    70    68   ar
   139    71    69   ar
   140    96    97    2
   141   117   116    1
   142   117   118    1
   143   123   118   am
   144   123   124    1
   145   127   124    1
   146   104   105    2
   147   118   119    2
   148    68    65   ar
   149   124   125    1
   150   133   132    1
   151    69    67   ar
   152   155   154   ar
   153   132   129    1
   154    65    67   ar
   155    65    63   ar
   156    67    66   ar
   157   125   126    2
   158   154   156   ar
   159   154   153    1
   160   129   128    1
   161   129   130    1
   162   152   153    1
   163   152   149    1
   164    63    62    1
   165    63    64   ar
   166    66    64   ar
   167    62    59    1
   168    59    58    1
   169    59    60    1
   170   130   139   am
   171   130   131    2
   172   147   145   am
   173   149   150    1
   174   149   148    1
   175    61    60    2
   176   139   140    1
   177   143   140    1
   178   143   144    1
   179   150   151    2
   180   140   141    1
   181   145   144    1
   182   145   146    2
   183   141   142    2
