@<TRIPOS>MOLECULE
tmp/5g60D00.pdb
 219 212 0 0 0
SMALL
GASTEIGER

@<TRIPOS>ATOM
      1  N         54.3750   17.2630   71.7580 N.3     9  SER9       -0.1217
      2  CA        53.0750   17.5220   71.1780 C.3     9  SER9        0.1889
      3  C         53.0100   17.3660   69.6460 C.2     9  SER9        0.2288
      4  O         53.9320   17.7330   68.9110 O.2     9  SER9       -0.2866
      5  CB        52.6290   18.9260   71.5460 C.3     9  SER9        0.2089
      6  OG        51.4460   19.2470   70.8900 O.3     9  SER9       -0.2183
      7  N         61.9940   13.1890   78.5550 N.3    61  ASN61      -0.1240
      8  CA        60.5790   13.4950   78.7850 C.3    61  ASN61       0.1653
      9  C         59.7680   12.2150   78.8520 C.2    61  ASN61       0.2266
     10  O         58.6800   12.1320   78.3300 O.2    61  ASN61      -0.2867
     11  CB        60.0460   14.4600   77.7040 C.3    61  ASN61       0.1155
     12  CG        58.7920   15.2020   78.1450 C.2    61  ASN61       0.2627
     13  OD1       58.6210   15.4880   79.3330 O.2    61  ASN61      -0.2716
     14  ND2       57.9160   15.5400   77.1800 N.am   61  ASN61      -0.0877
     15  N         60.9320   15.7780   87.1580 N.3   118  TRP118     -0.1241
     16  CA        60.3380   17.0610   86.9150 C.3   118  TRP118      0.1605
     17  C         59.8370   17.5710   88.2480 C.2   118  TRP118      0.2264
     18  O         59.2190   16.8350   89.0130 O.2   118  TRP118     -0.2867
     19  CB        59.1930   16.8920   85.9060 C.3   118  TRP118      0.0550
     20  CG        58.2980   18.0530   85.6610 C.ar  118  TRP118      0.0003
     21  CD1       58.4950   19.0580   84.7980 C.ar  118  TRP118      0.0946
     22  CD2       57.0340   18.2730   86.2540 C.ar  118  TRP118      0.0152
     23  NE1       57.4450   19.9350   84.8270 N.ar  118  TRP118     -0.2442
     24  CE2       56.5140   19.4530   85.6940 C.ar  118  TRP118      0.0810
     25  CE3       56.2780   17.5790   87.2080 C.ar  118  TRP118      0.0012
     26  CZ2       55.2640   19.9440   86.0340 C.ar  118  TRP118      0.0191
     27  CZ3       55.0560   18.0500   87.5450 C.ar  118  TRP118      0.0001
     28  CH2       54.5470   19.2230   86.9600 C.ar  118  TRP118      0.0015
     29  N         57.9740   20.9860   90.0240 N.3   120  GLU120     -0.1245
     30  CA        57.2240   22.1970   89.7320 C.3   120  GLU120      0.1567
     31  C         56.4250   22.5940   90.9530 C.2   120  GLU120      0.2260
     32  O         55.4020   21.9570   91.2740 O.2   120  GLU120     -0.2867
     33  CB        56.2870   22.0000   88.5340 C.3   120  GLU120      0.0388
     34  CG        55.8280   23.3050   87.9280 C.3   120  GLU120      0.1160
     35  CD        54.6070   23.1610   87.0440 C.2   120  GLU120      0.3649
     36  OE1       53.6150   22.5850   87.5510 O.co2 120  GLU120     -0.2457
     37  OE2       54.7010   23.5700   85.8520 O.co2 120  GLU120     -0.2457
     38  N         53.9840   24.7940   92.8430 N.3   122  LEU122     -0.1245
     39  CA        52.7910   25.6420   92.6490 C.3   122  LEU122      0.1561
     40  C         51.7760   25.2240   93.6860 C.2   122  LEU122      0.2260
     41  O         50.9250   24.3540   93.4390 O.2   122  LEU122     -0.2867
     42  CB        52.1990   25.4830   91.2340 C.3   122  LEU122      0.0270
     43  CG        53.0140   26.1380   90.1250 C.3   122  LEU122      0.0019
     44  CD1       52.5760   25.6410   88.7690 C.3   122  LEU122      0.0001
     45  CD2       52.9290   27.6660   90.1770 C.3   122  LEU122      0.0001
     46  N         48.1270   23.3440   93.1280 N.3   129  ILE129     -0.1231
     47  CA        47.4780   23.3830   91.8220 C.3   129  ILE129      0.1692
     48  C         46.9630   22.0190   91.3390 C.2   129  ILE129      0.2592
     49  O         46.0170   21.9710   90.5410 O.2   129  ILE129     -0.2718
     50  CB        48.3980   24.0240   90.7290 C.3   129  ILE129      0.0266
     51  CG1       47.5430   24.6280   89.6090 C.3   129  ILE129      0.0019
     52  CG2       49.4640   23.0200   90.2170 C.3   129  ILE129      0.0020
     53  CD1       48.2340   25.7450   88.8900 C.3   129  ILE129      0.0001
     54  N         47.5510   20.9290   91.8410 N.am  130  HIS130     -0.1976
     55  CA        47.1330   19.5670   91.4750 C.3   130  HIS130      0.1656
     56  C         45.9780   18.9930   92.2490 C.2   130  HIS130      0.2291
     57  O         45.5000   17.9420   91.8630 O.2   130  HIS130     -0.2864
     58  CB        48.3370   18.5890   91.6190 C.3   130  HIS130      0.0771
     59  CG        49.5170   19.0430   90.8420 C.ar  130  HIS130      0.0820
     60  ND1       49.6170   18.8510   89.4850 N.ar  130  HIS130     -0.2267
     61  CD2       50.5680   19.8190   91.1970 C.ar  130  HIS130      0.1154
     62  CE1       50.7020   19.4590   89.0440 C.ar  130  HIS130      0.1986
     63  NE2       51.2910   20.0560   90.0620 N.ar  130  HIS130     -0.2212
     64  N         41.5230   15.5170   82.8750 N.3   188  ASN188     -0.1225
     65  CA        40.9900   16.8190   83.2500 C.3   188  ASN188      0.1785
     66  C         39.5940   17.0870   82.7930 C.2   188  ASN188      0.2597
     67  O         39.0000   18.0420   83.2440 O.2   188  ASN188     -0.2718
     68  CB        41.9010   17.9370   82.7280 C.3   188  ASN188      0.1169
     69  CG        43.3160   17.8020   83.2250 C.2   188  ASN188      0.2627
     70  OD1       43.5610   17.1670   84.2540 O.2   188  ASN188     -0.2716
     71  ND2       44.2560   18.3670   82.4920 N.am  188  ASN188     -0.0877
     72  N         39.0410   16.2560   81.9210 N.am  189  GLU189     -0.1979
     73  CA        37.7230   16.5360   81.3320 C.3   189  GLU189      0.1602
     74  C         36.6590   15.5690   81.8100 C.2   189  GLU189      0.2287
     75  O         35.5050   15.6990   81.4310 O.2   189  GLU189     -0.2864
     76  CB        37.8010   16.5750   79.7910 C.3   189  GLU189      0.0415
     77  CG        38.4800   17.8240   79.2100 C.3   189  GLU189      0.1163
     78  CD        39.9720   17.8810   79.4560 C.2   189  GLU189      0.3649
     79  OE1       40.6710   16.8410   79.2880 O.co2 189  GLU189     -0.2457
     80  OE2       40.4360   18.9690   79.8290 O.co2 189  GLU189     -0.2457
     81  N         39.1020   15.2810   72.1680 N.3   249  TRP249     -0.1241
     82  CA        39.4250   16.6110   72.6240 C.3   249  TRP249      0.1605
     83  C         39.1450   17.6840   71.6020 C.2   249  TRP249      0.2264
     84  O         38.6840   18.7450   71.9680 O.2   249  TRP249     -0.2867
     85  CB        40.8800   16.6280   73.1080 C.3   249  TRP249      0.0550
     86  CG        41.4620   17.9290   73.4250 C.ar  249  TRP249      0.0003
     87  CD1       42.4480   18.5850   72.7230 C.ar  249  TRP249      0.0946
     88  CD2       41.1740   18.7310   74.5610 C.ar  249  TRP249      0.0152
     89  NE1       42.7930   19.7520   73.3750 N.ar  249  TRP249     -0.2442
     90  CE2       42.0180   19.8710   74.4950 C.ar  249  TRP249      0.0810
     91  CE3       40.2890   18.5980   75.6410 C.ar  249  TRP249      0.0012
     92  CZ2       41.9930   20.8720   75.4630 C.ar  249  TRP249      0.0191
     93  CZ3       40.2410   19.6030   76.5790 C.ar  249  TRP249      0.0001
     94  CH2       41.1020   20.7240   76.4980 C.ar  249  TRP249      0.0015
     95  N         40.7260   21.4600   82.8600 N.3   267  TRP267     -0.1227
     96  CA        41.7400   22.0590   83.7500 C.3   267  TRP267      0.1737
     97  C         41.6160   23.5920   83.8200 C.2   267  TRP267      0.2595
     98  O         41.6080   24.1800   84.8710 O.2   267  TRP267     -0.2718
     99  CB        43.1300   21.6670   83.2810 C.3   267  TRP267      0.0564
    100  CG        44.2870   22.2080   84.1060 C.ar  267  TRP267      0.0003
    101  CD1       44.9170   23.3900   83.9440 C.ar  267  TRP267      0.0946
    102  CD2       44.9350   21.5490   85.2030 C.ar  267  TRP267      0.0152
    103  NE1       45.9260   23.5010   84.8680 N.ar  267  TRP267     -0.2442
    104  CE2       45.9570   22.3820   85.6420 C.ar  267  TRP267      0.0810
    105  CE3       44.7440   20.3370   85.8430 C.ar  267  TRP267      0.0012
    106  CZ2       46.7960   22.0440   86.7120 C.ar  267  TRP267      0.0191
    107  CZ3       45.5780   19.9940   86.8690 C.ar  267  TRP267      0.0001
    108  CH2       46.5940   20.8410   87.2980 C.ar  267  TRP267      0.0015
    109  N         41.4990   24.2210   82.6790 N.am  268  ASP268     -0.1974
    110  CA        41.4270   25.6600   82.5630 C.3   268  ASP268      0.1709
    111  C         40.4520   25.9710   81.3940 C.2   268  ASP268      0.2293
    112  O         40.6940   25.6200   80.2240 O.2   268  ASP268     -0.2864
    113  CB        42.8270   26.1790   82.3090 C.3   268  ASP268      0.1436
    114  CG        42.8960   27.7000   82.1110 C.2   268  ASP268      0.3671
    115  OD1       41.8960   28.3560   81.7240 O.co2 268  ASP268     -0.2456
    116  OD2       44.0070   28.2270   82.2480 O.co2 268  ASP268     -0.2456
    117  N         41.2910   26.9370   77.6910 N.3   271  ASN271     -0.1240
    118  CA        41.5800   25.9850   76.5990 C.3   271  ASN271      0.1653
    119  C         40.3370   25.4690   75.8730 C.2   271  ASN271      0.2266
    120  O         40.4760   24.8470   74.8280 O.2   271  ASN271     -0.2867
    121  CB        42.3500   24.7660   77.1300 C.3   271  ASN271      0.1155
    122  CG        43.7300   25.1380   77.7060 C.2   271  ASN271      0.2627
    123  OD1       44.4500   26.0200   77.1780 O.2   271  ASN271     -0.2716
    124  ND2       44.1260   24.4420   78.7500 N.am  271  ASN271     -0.0877
    125  N         61.3670   12.0780   84.1400 N.3   306  LYS306     -0.1245
    126  CA        61.3230   12.7060   82.8640 C.3   306  LYS306      0.1561
    127  C         62.6260   12.5670   82.1370 C.2   306  LYS306      0.2260
    128  O         62.8540   13.2920   81.1830 O.2   306  LYS306     -0.2867
    129  CB        60.9720   14.1830   82.9950 C.3   306  LYS306      0.0271
    130  CG        59.5730   14.4110   83.5110 C.3   306  LYS306      0.0035
    131  CD        58.5110   13.9500   82.5440 C.3   306  LYS306      0.0206
    132  CE        57.1840   13.7210   83.2520 C.3   306  LYS306      0.1093
    133  NZ        56.1510   13.6670   82.1840 N.3   306  LYS306     -0.1314
    134  N         57.8810   25.8820   80.1830 N.3   337  TRP337     -0.1241
    135  CA        56.8190   26.8150   79.8030 C.3   337  TRP337      0.1605
    136  C         56.8780   27.5040   78.4450 C.2   337  TRP337      0.2264
    137  O         55.8210   27.8760   77.9280 O.2   337  TRP337     -0.2867
    138  CB        56.6630   27.8720   80.9190 C.3   337  TRP337      0.0550
    139  CG        55.9590   27.2950   82.1660 C.ar  337  TRP337      0.0003
    140  CD1       54.9500   26.3800   82.1570 C.ar  337  TRP337      0.0946
    141  CD2       56.1160   27.6820   83.5420 C.ar  337  TRP337      0.0152
    142  NE1       54.4940   26.1590   83.4010 N.ar  337  TRP337     -0.2442
    143  CE2       55.1740   26.9340   84.2870 C.ar  337  TRP337      0.0810
    144  CE3       56.9370   28.5930   84.2170 C.ar  337  TRP337      0.0012
    145  CZ2       55.0310   27.0480   85.6960 C.ar  337  TRP337      0.0191
    146  CZ3       56.8030   28.6970   85.6540 C.ar  337  TRP337      0.0001
    147  CH2       55.8660   27.9310   86.3520 C.ar  337  TRP337      0.0015
    148  N         46.6610   29.1850   76.4970 N.3   368  PRO368     -0.2102
    149  CA        47.9380   28.9670   77.1880 C.3   368  PRO368      0.1504
    150  C         48.6250   27.6950   76.7150 C.2   368  PRO368      0.2575
    151  O         49.7260   27.7530   76.2150 O.2   368  PRO368     -0.2718
    152  CB        47.5190   28.8430   78.6690 C.3   368  PRO368      0.0282
    153  CG        46.0810   28.4050   78.6750 C.3   368  PRO368      0.0208
    154  CD        45.4920   28.9580   77.3890 C.3   368  PRO368      0.0893
    155  N         47.9150   26.5900   76.7900 N.am  369  ALA369     -0.1980
    156  CA        48.4100   25.2840   76.4200 C.3   369  ALA369      0.1597
    157  C         48.8080   25.1690   74.9460 C.2   369  ALA369      0.2287
    158  O         49.5900   24.2900   74.6040 O.2   369  ALA369     -0.2864
    159  CB        47.3630   24.2340   76.7210 C.3   369  ALA369      0.0319
    160  N         52.2910   26.9860   74.4830 N.3   372  ARG372     -0.1231
    161  CA        53.1430   26.2350   75.3470 C.3   372  ARG372      0.1694
    162  C         53.5920   24.9300   74.6650 C.2   372  ARG372      0.2591
    163  O         54.7990   24.6120   74.6380 O.2   372  ARG372     -0.2718
    164  CB        52.4420   25.9460   76.7080 C.3   372  ARG372      0.0321
    165  CG        53.3450   25.1420   77.6600 C.3   372  ARG372      0.0489
    166  CD        52.6950   24.7450   78.9740 C.3   372  ARG372      0.2205
    167  NE        53.6770   24.0260   79.7820 N.pl3 372  ARG372     -0.0865
    168  CZ        53.4570   23.5450   81.0000 C.cat 372  ARG372      0.5346
    169  NH1       52.2510   23.6570   81.5560 N.pl3 372  ARG372      0.1354
    170  NH2       54.4440   22.9150   81.6500 N.pl3 372  ARG372      0.1354
    171  N         52.6520   24.1610   74.1270 N.am  373  GLN373     -0.1979
    172  CA        53.0120   22.8280   73.6530 C.3   373  GLN373      0.1601
    173  C         53.8140   22.9190   72.3800 C.2   373  GLN373      0.2287
    174  O         54.5940   22.0240   72.0820 O.2   373  GLN373     -0.2864
    175  CB        51.7970   21.9290   73.5420 C.3   373  GLN373      0.0394
    176  CG        50.9110   22.1230   72.3420 C.3   373  GLN373      0.0908
    177  CD        49.6210   21.3100   72.5080 C.2   373  GLN373      0.2608
    178  OE1       49.4960   20.1790   72.0340 O.2   373  GLN373     -0.2717
    179  NE2       48.6890   21.8690   73.2420 N.am  373  GLN373     -0.0878
    180  N         57.5270   24.6860   74.5450 N.3   376  GLU376     -0.1245
    181  CA        58.1470   23.9750   75.6460 C.3   376  GLU376      0.1567
    182  C         59.0110   22.7910   75.1390 C.2   376  GLU376      0.2260
    183  O         58.8760   22.3450   73.9800 O.2   376  GLU376     -0.2867
    184  CB        57.0560   23.4410   76.5920 C.3   376  GLU376      0.0388
    185  CG        56.4140   22.1410   76.1080 C.3   376  GLU376      0.1160
    186  CD        55.1740   21.7440   76.8820 C.2   376  GLU376      0.3649
    187  OE1       55.0570   21.9700   78.1200 O.co2 376  GLU376     -0.2457
    188  OE2       54.2920   21.1850   76.2190 O.co2 376  GLU376     -0.2457
    189  N         53.3140   32.2490   86.3870 N.3   395  PRO395     -0.2116
    190  CA        52.3800   32.4850   85.2590 C.3   395  PRO395      0.1372
    191  C         51.0290   32.9950   85.7600 C.2   395  PRO395      0.2244
    192  O         50.5410   32.4930   86.7630 O.2   395  PRO395     -0.2868
    193  CB        52.2160   31.0770   84.6180 C.3   395  PRO395      0.0268
    194  CG        53.3640   30.2560   85.1470 C.3   395  PRO395      0.0207
    195  CD        53.6460   30.8200   86.5240 C.3   395  PRO395      0.0892
    196  N         48.0530   32.4500   84.6210 N.3   397  ASP397     -0.1225
    197  CA        47.0250   31.4030   84.6590 C.3   397  ASP397      0.1805
    198  C         47.2160   30.4260   85.8240 C.2   397  ASP397      0.2597
    199  O         46.2580   29.8970   86.4070 O.2   397  ASP397     -0.2718
    200  CB        46.8720   30.6980   83.2650 C.3   397  ASP397      0.1424
    201  CG        48.0970   29.8780   82.8290 C.2   397  ASP397      0.3668
    202  OD1       49.2040   29.9990   83.4340 O.co2 397  ASP397     -0.2456
    203  OD2       47.9210   29.1040   81.8390 O.co2 397  ASP397     -0.2456
    204  N         48.4650   30.1700   86.1680 N.am  398  ALA398     -0.1979
    205  CA        48.7660   29.3240   87.3180 C.3   398  ALA398      0.1597
    206  C         48.3470   30.0120   88.6130 C.2   398  ALA398      0.2287
    207  O         47.7950   29.3770   89.5100 O.2   398  ALA398     -0.2864
    208  CB        50.2640   29.0190   87.3720 C.3   398  ALA398      0.0319
    209  N         44.6570   30.0270   88.9390 N.3   401  ARG401     -0.1245
    210  CA        44.1060   28.7140   89.2730 C.3   401  ARG401      0.1563
    211  C         44.2690   28.3760   90.7270 C.2   401  ARG401      0.2260
    212  O         43.4100   27.7290   91.3110 O.2   401  ARG401     -0.2867
    213  CB        44.7290   27.5950   88.4070 C.3   401  ARG401      0.0307
    214  CG        43.9710   26.2810   88.4520 C.3   401  ARG401      0.0489
    215  CD        44.5200   25.2830   87.4260 C.3   401  ARG401      0.2205
    216  NE        43.5060   24.2930   87.1040 N.pl3 401  ARG401     -0.0865
    217  CZ        43.2900   23.1760   87.7520 C.cat 401  ARG401      0.5346
    218  NH1       44.0070   22.8190   88.8170 N.pl3 401  ARG401      0.1354
    219  NH2       42.3110   22.3860   87.3450 N.pl3 401  ARG401      0.1354
@<TRIPOS>BOND
     1     4     3    2
     2     3     2    1
     3     6     5    1
     4     2     5    1
     5     2     1    1
     6    83    84    2
     7    83    82    1
     8   178   177    2
     9   174   173    2
    10    81    82    1
    11   176   177    1
    12   176   175    1
    13   173   172    1
    14   177   179   am
    15    82    85    1
    16    87    89   ar
    17    87    86   ar
    18    85    86    1
    19    89    90   ar
    20    86    88   ar
    21   175   172    1
    22   172   171    1
    23   183   182    2
    24   171   162   am
    25   160   161    1
    26    90    88   ar
    27    90    92   ar
    28   180   181    1
    29    88    91   ar
    30   158   157    2
    31   163   162    2
    32   162   161    1
    33   120   119    2
    34   157   156    1
    35   182   181    1
    36   161   164    1
    37    92    94   ar
    38    91    93   ar
    39   181   184    1
    40   119   118    1
    41   185   184    1
    42   185   186    1
    43   151   150    2
    44   188   186   ar
    45   156   159    1
    46   156   155    1
    47   148   149    1
    48   148   154    1
    49    94    93   ar
    50   118   121    1
    51   118   117    1
    52   164   165    1
    53   150   155   am
    54   150   149    1
    55   186   187   ar
    56   121   122    1
    57   123   122    2
    58    14    12   am
    59   149   152    1
    60   154   153    1
    61   165   166    1
    62    11    12    1
    63    11     8    1
    64   122   124   am
    65   137   136    2
    66    12    13    2
    67    10     9    2
    68   136   135    1
    69     7     8    1
    70   152   153    1
    71     8     9    1
    72   166   167    1
    73    77    78    1
    74    77    76    1
    75    79    78   ar
    76    78    80   ar
    77   167   168    2
    78    76    73    1
    79   135   134    1
    80   135   138    1
    81   112   111    2
    82   138   139    1
    83   168   169    1
    84   168   170    1
    85   128   127    2
    86    73    74    1
    87    73    72    1
    88   111   110    1
    89    75    74    2
    90   115   114   ar
    91   203   201   ar
    92    72    66   am
    93   114   116   ar
    94   114   113    1
    95   127   126    1
    96   140   139   ar
    97   140   142   ar
    98   139   141   ar
    99   133   132    1
   100   113   110    1
   101    71    69   am
   102   131   132    1
   103   131   130    1
   104   110   109    1
   105   109    97   am
   106    68    69    1
   107    68    65    1
   108    66    67    2
   109    66    65    1
   110   201   200    1
   111   201   202   ar
   112    95    96    1
   113   126   129    1
   114   126   125    1
   115    64    65    1
   116   129   130    1
   117    69    70    2
   118   200   197    1
   119    99    96    1
   120    99   100    1
   121   142   143   ar
   122   141   144   ar
   123   141   143   ar
   124    96    97    1
   125    97    98    2
   126   101   100   ar
   127   101   103   ar
   128   100   102   ar
   129   144   146   ar
   130   143   145   ar
   131   193   194    1
   132   193   190    1
   133   196   197    1
   134   197   198    1
   135    21    23   ar
   136    21    20   ar
   137    23    24   ar
   138   103   104   ar
   139   194   195    1
   140   102   104   ar
   141   102   105   ar
   142   190   191    1
   143   190   189    1
   144   104   106   ar
   145   146   147   ar
   146    20    19    1
   147    20    22   ar
   148    24    26   ar
   149    24    22   ar
   150   145   147   ar
   151   191   192    2
   152   198   204   am
   153   198   199    2
   154   105   107   ar
   155    37    35   ar
   156    19    16    1
   157    26    28   ar
   158   204   205    1
   159    22    25   ar
   160   189   195    1
   161   106   108   ar
   162   107   108   ar
   163    16    15    1
   164    16    17    1
   165    28    27   ar
   166    35    36   ar
   167    35    34    1
   168   216   215    1
   169   216   217    2
   170    25    27   ar
   171   205   208    1
   172   205   206    1
   173   219   217    1
   174   215   214    1
   175   217   218    1
   176    34    33    1
   177    17    18    2
   178   213   214    1
   179   213   210    1
   180    33    30    1
   181   206   207    2
   182    44    43    1
   183    53    51    1
   184   209   210    1
   185    62    60   ar
   186    62    63   ar
   187   210   211    1
   188    60    59   ar
   189    51    50    1
   190    30    29    1
   191    30    31    1
   192    63    61   ar
   193    43    45    1
   194    43    42    1
   195    52    50    1
   196    49    48    2
   197   211   212    2
   198    50    47    1
   199    59    61   ar
   200    59    58    1
   201    31    32    2
   202    42    39    1
   203    48    47    1
   204    48    54   am
   205    55    58    1
   206    55    54    1
   207    55    56    1
   208    47    46    1
   209    57    56    2
   210    39    38    1
   211    39    40    1
   212    41    40    2
