@<TRIPOS>MOLECULE
tmp/5g61D00.pdb
 222 215 0 0 0
SMALL
GASTEIGER

@<TRIPOS>ATOM
      1  N        172.8600  -57.8960  173.0440 N.3     8  ALA8       -0.1245
      2  CA       171.4360  -58.1820  173.0970 C.3     8  ALA8        0.1562
      3  C        171.2500  -59.6960  173.1060 C.2     8  ALA8        0.2260
      4  O        172.0330  -60.4300  172.4850 O.2     8  ALA8       -0.2867
      5  CB       170.7120  -57.5630  171.8970 C.3     8  ALA8        0.0290
      6  N        176.4290  -58.0350  168.8540 N.3    62  ASN62      -0.1240
      7  CA       175.0690  -58.3610  168.4280 C.3    62  ASN62       0.1653
      8  C        174.2450  -57.0840  168.2060 C.2    62  ASN62       0.2266
      9  O        173.0060  -57.0880  168.3150 O.2    62  ASN62      -0.2867
     10  CB       174.3830  -59.2990  169.4440 C.3    62  ASN62       0.1155
     11  CG       173.3310  -60.1930  168.8100 C.2    62  ASN62       0.2627
     12  OD1      173.1590  -60.1890  167.5940 O.2    62  ASN62      -0.2716
     13  ND2      172.6530  -60.9880  169.6220 N.am   62  ASN62      -0.0877
     14  N        177.0140  -60.5690  159.9660 N.3   119  TRP119     -0.1241
     15  CA       176.5430  -61.9430  160.0610 C.3   119  TRP119      0.1605
     16  C        176.3190  -62.4420  158.6420 C.2   119  TRP119      0.2264
     17  O        175.7190  -61.7440  157.8250 O.2   119  TRP119     -0.2867
     18  CB       175.2640  -62.0000  160.8860 C.3   119  TRP119      0.0550
     19  CG       174.4020  -63.2080  160.7250 C.ar  119  TRP119      0.0003
     20  CD1      174.4750  -64.3810  161.4340 C.ar  119  TRP119      0.0946
     21  CD2      173.2780  -63.3380  159.8510 C.ar  119  TRP119      0.0152
     22  NE1      173.4860  -65.2480  161.0230 N.ar  119  TRP119     -0.2442
     23  CE2      172.7330  -64.6300  160.0590 C.ar  119  TRP119      0.0810
     24  CE3      172.6780  -62.4880  158.9080 C.ar  119  TRP119      0.0012
     25  CZ2      171.6120  -65.0880  159.3610 C.ar  119  TRP119      0.0191
     26  CZ3      171.5730  -62.9460  158.2150 C.ar  119  TRP119      0.0001
     27  CH2      171.0500  -64.2360  158.4440 C.ar  119  TRP119      0.0015
     28  N        175.0760  -65.9170  156.5240 N.3   121  GLU121     -0.1245
     29  CA       174.5090  -67.2580  156.6160 C.3   121  GLU121      0.1567
     30  C        173.9680  -67.6590  155.2490 C.2   121  GLU121      0.2260
     31  O        173.0350  -67.0350  154.7330 O.2   121  GLU121     -0.2867
     32  CB       173.4260  -67.3090  157.6970 C.3   121  GLU121      0.0388
     33  CG       172.7990  -68.6480  157.8920 C.3   121  GLU121      0.1160
     34  CD       171.5360  -68.5550  158.6990 C.2   121  GLU121      0.3649
     35  OE1      170.5520  -68.0030  158.1700 O.co2 121  GLU121     -0.2457
     36  OE2      171.5340  -69.0060  159.8710 O.co2 121  GLU121     -0.2457
     37  N        171.9770  -69.8640  152.8300 N.3   123  LEU123     -0.1245
     38  CA       170.8670  -70.8260  152.8430 C.3   123  LEU123      0.1561
     39  C        169.9700  -70.4890  151.6520 C.2   123  LEU123      0.2260
     40  O        169.0200  -69.7100  151.7700 O.2   123  LEU123     -0.2867
     41  CB       170.0990  -70.7920  154.1540 C.3   123  LEU123      0.0270
     42  CG       170.7850  -71.4150  155.3720 C.3   123  LEU123      0.0019
     43  CD1      170.0860  -71.0090  156.6770 C.3   123  LEU123      0.0001
     44  CD2      170.8240  -72.9290  155.2210 C.3   123  LEU123      0.0001
     45  N        166.2730  -68.8570  151.6240 N.3   130  ILE130     -0.1231
     46  CA       165.3250  -69.1440  152.7030 C.3   130  ILE130      0.1692
     47  C        164.6570  -67.8880  153.2590 C.2   130  ILE130      0.2592
     48  O        163.7040  -67.9840  154.0430 O.2   130  ILE130     -0.2718
     49  CB       166.0090  -69.9150  153.8510 C.3   130  ILE130      0.0266
     50  CG1      164.9620  -70.6730  154.6690 C.3   130  ILE130      0.0019
     51  CG2      166.8310  -68.9660  154.7350 C.3   130  ILE130      0.0020
     52  CD1      165.5330  -71.5040  155.7610 C.3   130  ILE130      0.0001
     53  N        165.1270  -66.7130  152.8750 N.am  131  HIS131     -0.1976
     54  CA       164.4860  -65.4660  153.2430 C.3   131  HIS131      0.1656
     55  C        163.4090  -65.0230  152.2550 C.2   131  HIS131      0.2291
     56  O        162.5970  -64.1570  152.6170 O.2   131  HIS131     -0.2864
     57  CB       165.5540  -64.3820  153.3930 C.3   131  HIS131      0.0771
     58  CG       166.6390  -64.7580  154.3540 C.ar  131  HIS131      0.0820
     59  ND1      166.5170  -64.5920  155.7200 N.ar  131  HIS131     -0.2267
     60  CD2      167.8510  -65.3270  154.1500 C.ar  131  HIS131      0.1154
     61  CE1      167.6130  -65.0330  156.3120 C.ar  131  HIS131      0.1986
     62  NE2      168.4410  -65.4780  155.3820 N.ar  131  HIS131     -0.2212
     63  N        157.2510  -58.7420  160.0130 N.3   188  GLY188     -0.1210
     64  CA       157.7160  -59.9760  160.6090 C.3   188  GLY188      0.1956
     65  C        156.9300  -61.1930  160.1600 C.2   188  GLY188      0.2612
     66  O        155.9800  -61.1220  159.3730 O.2   188  GLY188     -0.2717
     67  N        157.3520  -62.3290  160.7130 N.am  189  ASN189     -0.1960
     68  CA       156.9480  -63.6250  160.1910 C.3   189  ASN189      0.1819
     69  C        155.5080  -63.9880  160.5140 C.2   189  ASN189      0.2621
     70  O        155.0390  -65.0170  160.0290 O.2   189  ASN189     -0.2715
     71  CB       157.8550  -64.7400  160.7230 C.3   189  ASN189      0.1195
     72  CG       159.3420  -64.3830  160.6810 C.2   189  ASN189      0.2630
     73  OD1      159.8700  -63.7760  159.7090 O.2   189  ASN189     -0.2716
     74  ND2      160.0350  -64.7690  161.7450 N.am  189  ASN189     -0.0877
     75  N        154.7900  -63.1960  161.3070 N.am  190  GLU190     -0.1977
     76  CA       153.4220  -63.5520  161.6620 C.3   190  GLU190      0.1602
     77  C        152.3900  -62.5980  161.0740 C.2   190  GLU190      0.2287
     78  O        151.1950  -62.7220  161.3790 O.2   190  GLU190     -0.2864
     79  CB       153.2640  -63.6400  163.1880 C.3   190  GLU190      0.0415
     80  CG       153.9730  -64.8120  163.7960 C.3   190  GLU190      0.1163
     81  CD       155.4960  -64.6620  163.7730 C.2   190  GLU190      0.3649
     82  OE1      155.9990  -63.5410  164.0140 O.co2 190  GLU190     -0.2457
     83  OE2      156.1840  -65.6650  163.4850 O.co2 190  GLU190     -0.2457
     84  N        153.3120  -62.3790  170.8970 N.3   250  TRP250     -0.1241
     85  CA       153.8470  -63.6690  170.4830 C.3   250  TRP250      0.1605
     86  C        153.4830  -64.7730  171.4740 C.2   250  TRP250      0.2264
     87  O        153.0620  -65.8630  171.0690 O.2   250  TRP250     -0.2867
     88  CB       155.3540  -63.5500  170.3100 C.3   250  TRP250      0.0550
     89  CG       156.0730  -64.8200  170.0180 C.ar  250  TRP250      0.0003
     90  CD1      156.9590  -65.4420  170.8280 C.ar  250  TRP250      0.0946
     91  CD2      156.0020  -65.6120  168.8170 C.ar  250  TRP250      0.0152
     92  NE1      157.4530  -66.5800  170.2230 N.ar  250  TRP250     -0.2442
     93  CE2      156.8800  -66.7070  168.9870 C.ar  250  TRP250      0.0810
     94  CE3      155.2800  -65.5040  167.6180 C.ar  250  TRP250      0.0012
     95  CZ2      157.0570  -67.6910  168.0060 C.ar  250  TRP250      0.0191
     96  CZ3      155.4570  -66.4730  166.6450 C.ar  250  TRP250      0.0001
     97  CH2      156.3460  -67.5570  166.8480 C.ar  250  TRP250      0.0015
     98  N        157.0900  -68.2400  160.4790 N.3   268  TRP268     -0.1227
     99  CA       158.2620  -68.7770  159.7830 C.3   268  TRP268      0.1737
    100  C        158.2500  -70.3100  159.7530 C.2   268  TRP268      0.2595
    101  O        158.5350  -70.9230  158.7170 O.2   268  TRP268     -0.2718
    102  CB       159.5260  -68.2520  160.4750 C.3   268  TRP268      0.0564
    103  CG       160.8400  -68.6040  159.8460 C.ar  268  TRP268      0.0003
    104  CD1      161.6200  -69.7010  160.1180 C.ar  268  TRP268      0.0946
    105  CD2      161.5550  -67.8400  158.8610 C.ar  268  TRP268      0.0152
    106  NE1      162.7590  -69.6780  159.3500 N.ar  268  TRP268     -0.2442
    107  CE2      162.7500  -68.5390  158.5790 C.ar  268  TRP268      0.0810
    108  CE3      161.2990  -66.6310  158.1900 C.ar  268  TRP268      0.0012
    109  CZ2      163.6900  -68.0630  157.6570 C.ar  268  TRP268      0.0191
    110  CZ3      162.2180  -66.1630  157.2870 C.ar  268  TRP268      0.0001
    111  CH2      163.4050  -66.8770  157.0250 C.ar  268  TRP268      0.0015
    112  N        157.9510  -70.9470  160.8910 N.am  269  ASP269     -0.1974
    113  CA       158.0460  -72.4020  161.0370 C.3   269  ASP269      0.1709
    114  C        156.9690  -72.8740  162.0020 C.2   269  ASP269      0.2293
    115  O        157.0220  -72.5450  163.1930 O.2   269  ASP269     -0.2864
    116  CB       159.4400  -72.8250  161.5420 C.3   269  ASP269      0.1436
    117  CG       159.6140  -74.3540  161.6180 C.2   269  ASP269      0.3671
    118  OD1      158.6290  -75.0670  161.9120 O.co2 269  ASP269     -0.2456
    119  OD2      160.7400  -74.8480  161.3820 O.co2 269  ASP269     -0.2456
    120  N        157.2460  -73.7400  165.8150 N.3   272  ASN272     -0.1240
    121  CA       157.2450  -72.7880  166.9140 C.3   272  ASN272      0.1653
    122  C        155.8470  -72.3910  167.3760 C.2   272  ASN272      0.2266
    123  O        155.7240  -71.8130  168.4590 O.2   272  ASN272     -0.2867
    124  CB       158.0440  -71.5390  166.5280 C.3   272  ASN272      0.1155
    125  CG       159.5170  -71.8520  166.2450 C.2   272  ASN272      0.2627
    126  OD1      160.1520  -72.6250  166.9670 O.2   272  ASN272     -0.2716
    127  ND2      160.0600  -71.2550  165.1810 N.am  272  ASN272     -0.0877
    128  N        176.6250  -56.6400  163.0720 N.3   307  LYS307     -0.1245
    129  CA       176.3960  -57.4020  164.2860 C.3   307  LYS307      0.1561
    130  C        177.4900  -57.1280  165.3150 C.2   307  LYS307      0.2260
    131  O        177.5230  -57.7910  166.3640 O.2   307  LYS307     -0.2867
    132  CB       176.2870  -58.8980  163.9640 C.3   307  LYS307      0.0271
    133  CG       174.9350  -59.3170  163.4200 C.3   307  LYS307      0.0035
    134  CD       173.8220  -58.8430  164.3570 C.3   307  LYS307      0.0206
    135  CE       172.5010  -59.5470  164.1180 C.3   307  LYS307      0.1093
    136  NZ       172.4170  -60.8530  164.8450 N.3   307  LYS307     -0.1314
    137  N        173.7010  -71.0870  166.0430 N.3   338  TRP338     -0.1241
    138  CA       172.6200  -72.0490  166.2230 C.3   338  TRP338      0.1605
    139  C        172.5720  -72.7460  167.5790 C.2   338  TRP338      0.2264
    140  O        171.4870  -73.2020  167.9760 O.2   338  TRP338     -0.2867
    141  CB       172.6820  -73.1130  165.1160 C.3   338  TRP338      0.0550
    142  CG       172.1790  -72.6030  163.8010 C.ar  338  TRP338      0.0003
    143  CD1      171.1030  -71.7940  163.6060 C.ar  338  TRP338      0.0946
    144  CD2      172.7380  -72.8480  162.5010 C.ar  338  TRP338      0.0152
    145  NE1      170.9390  -71.5300  162.2640 N.ar  338  TRP338     -0.2442
    146  CE2      171.9270  -72.1700  161.5620 C.ar  338  TRP338      0.0810
    147  CE3      173.8370  -73.5810  162.0360 C.ar  338  TRP338      0.0012
    148  CZ2      172.1790  -72.2050  160.1830 C.ar  338  TRP338      0.0191
    149  CZ3      174.0880  -73.6090  160.6580 C.ar  338  TRP338      0.0001
    150  CH2      173.2590  -72.9270  159.7570 C.ar  338  TRP338      0.0015
    151  N        162.1340  -75.2270  167.6520 N.3   369  PRO369     -0.2102
    152  CA       163.4950  -74.8140  167.2860 C.3   369  PRO369      0.1504
    153  C        163.8560  -73.4200  167.7830 C.2   369  PRO369      0.2575
    154  O        164.9790  -73.1950  168.2500 O.2   369  PRO369     -0.2718
    155  CB       163.4650  -74.8910  165.7540 C.3   369  PRO369      0.0282
    156  CG       162.0320  -74.7330  165.3970 C.3   369  PRO369      0.0208
    157  CD       161.2910  -75.4490  166.4660 C.3   369  PRO369      0.0893
    158  N        162.9360  -72.4690  167.7150 N.am  370  ALA370     -0.1980
    159  CA       163.2880  -71.1340  168.1590 C.3   370  ALA370      0.1597
    160  C        163.5270  -71.0770  169.6560 C.2   370  ALA370      0.2287
    161  O        164.2190  -70.1710  170.1300 O.2   370  ALA370     -0.2864
    162  CB       162.1980  -70.1440  167.7770 C.3   370  ALA370      0.0319
    163  N        167.1750  -72.5940  170.4740 N.3   373  ARG373     -0.1231
    164  CA       168.1400  -71.6850  169.8740 C.3   373  ARG373      0.1694
    165  C        168.3220  -70.4360  170.7350 C.2   373  ARG373      0.2591
    166  O        169.4380  -70.1250  171.1470 O.2   373  ARG373     -0.2718
    167  CB       167.6970  -71.3230  168.4620 C.3   373  ARG373      0.0321
    168  CG       168.8060  -70.7770  167.6080 C.3   373  ARG373      0.0489
    169  CD       168.3480  -70.3740  166.2220 C.3   373  ARG373      0.2205
    170  NE       169.4030  -69.6070  165.5670 N.pl3 373  ARG373     -0.0865
    171  CZ       169.3300  -69.0980  164.3460 C.cat 373  ARG373      0.5346
    172  NH1      168.2380  -69.2490  163.5900 N.pl3 373  ARG373      0.1354
    173  NH2      170.3720  -68.4410  163.8810 N.pl3 373  ARG373      0.1354
    174  N        167.2260  -69.7430  171.0700 N.am  374  GLN374     -0.1979
    175  CA       167.3030  -68.5550  171.9310 C.3   374  GLN374      0.1601
    176  C        168.1600  -68.7600  173.1770 C.2   374  GLN374      0.2287
    177  O        168.8970  -67.8560  173.5820 O.2   374  GLN374     -0.2864
    178  CB       165.9140  -68.1420  172.3980 C.3   374  GLN374      0.0394
    179  CG       165.0490  -67.5340  171.3610 C.3   374  GLN374      0.0908
    180  CD       163.6630  -67.3690  171.8700 C.2   374  GLN374      0.2608
    181  OE1      163.4200  -66.5770  172.7760 O.2   374  GLN374     -0.2717
    182  NE2      162.7480  -68.1540  171.3440 N.am  374  GLN374     -0.0878
    183  N        172.1090  -70.1070  171.5400 N.3   377  GLU377     -0.1245
    184  CA       172.5620  -69.0420  170.6490 C.3   377  GLU377      0.1567
    185  C        173.4770  -68.0170  171.3360 C.2   377  GLU377      0.2260
    186  O        173.2730  -67.6960  172.5140 O.2   377  GLU377     -0.2867
    187  CB       171.2850  -68.3630  170.1220 C.3   377  GLU377      0.0388
    188  CG       171.3490  -67.1520  169.2650 C.3   377  GLU377      0.1160
    189  CD       170.0480  -66.9380  168.4500 C.2   377  GLU377      0.3649
    190  OE1      168.8590  -66.9990  168.9540 O.co2 377  GLU377     -0.2457
    191  OE2      170.2560  -66.7330  167.2300 O.co2 377  GLU377     -0.2457
    192  N        171.0500  -77.6230  159.2110 N.3   396  PRO396     -0.2116
    193  CA       169.8810  -77.8430  160.0720 C.3   396  PRO396      0.1372
    194  C        168.7740  -78.5760  159.3180 C.2   396  PRO396      0.2244
    195  O        168.5760  -78.3820  158.1140 O.2   396  PRO396     -0.2868
    196  CB       169.4550  -76.4210  160.4600 C.3   396  PRO396      0.0268
    197  CG       170.6880  -75.6130  160.3430 C.3   396  PRO396      0.0207
    198  CD       171.4700  -76.2090  159.2040 C.3   396  PRO396      0.0892
    199  N        165.4350  -78.3570  160.0590 N.3   398  ASP398     -0.1225
    200  CA       164.3980  -77.3550  159.8420 C.3   398  ASP398      0.1805
    201  C        164.7640  -76.3730  158.7390 C.2   398  ASP398      0.2597
    202  O        163.8640  -75.7790  158.1250 O.2   398  ASP398     -0.2718
    203  CB       164.1120  -76.5920  161.1360 C.3   398  ASP398      0.1424
    204  CG       165.2630  -75.7030  161.5600 C.2   398  ASP398      0.3668
    205  OD1      166.4170  -76.0320  161.2200 O.co2 398  ASP398     -0.2456
    206  OD2      165.0190  -74.6880  162.2580 O.co2 398  ASP398     -0.2456
    207  N        166.0630  -76.2040  158.4610 N.am  399  ALA399     -0.1979
    208  CA       166.4800  -75.3070  157.3950 C.3   399  ALA399      0.1597
    209  C        166.3870  -75.9910  156.0360 C.2   399  ALA399      0.2287
    210  O        165.8600  -75.4020  155.0820 O.2   399  ALA399     -0.2864
    211  CB       167.8970  -74.7930  157.6520 C.3   399  ALA399      0.0319
    212  N        162.5170  -76.2580  155.2750 N.3   402  ARG402     -0.1245
    213  CA       161.9120  -75.0040  154.8170 C.3   402  ARG402      0.1563
    214  C        162.3360  -74.6890  153.3830 C.2   402  ARG402      0.2260
    215  O        161.4960  -74.3820  152.5250 O.2   402  ARG402     -0.2867
    216  CB       162.2850  -73.8490  155.7510 C.3   402  ARG402      0.0307
    217  CG       161.3800  -72.6290  155.5960 C.3   402  ARG402      0.0489
    218  CD       161.6150  -71.6040  156.6840 C.3   402  ARG402      0.2205
    219  NE       160.5240  -70.6370  156.8630 N.pl3 402  ARG402     -0.0865
    220  CZ       160.4060  -69.4880  156.1880 C.cat 402  ARG402      0.5346
    221  NH1      161.2930  -69.1800  155.2470 N.pl3 402  ARG402      0.1354
    222  NH2      159.3870  -68.6540  156.4370 N.pl3 402  ARG402      0.1354
@<TRIPOS>BOND
     1    45    46    1
     2    39    40    2
     3    39    38    1
     4    55    56    2
     5    55    54    1
     6   215   214    2
     7    46    47    1
     8    46    49    1
     9    37    38    1
    10    38    41    1
    11    53    54    1
    12    53    47   am
    13    54    57    1
    14    47    48    2
    15   214   213    1
    16    57    58    1
    17    49    50    1
    18    49    51    1
    19    60    58   ar
    20    60    62   ar
    21    41    42    1
    22    58    59   ar
    23    50    52    1
    24    31    30    2
    25   213   212    1
    26   213   216    1
    27   210   209    2
    28    44    42    1
    29   221   220    1
    30    30    29    1
    31    42    43    1
    32    62    61   ar
    33   217   216    1
    34   217   218    1
    35    59    61   ar
    36   209   208    1
    37   220   222    1
    38   220   219    2
    39    28    29    1
    40    29    32    1
    41   218   219    1
    42   111   110   ar
    43   111   109   ar
    44   110   108   ar
    45   208   211    1
    46   208   207    1
    47   109   107   ar
    48    32    33    1
    49    17    16    2
    50    33    34    1
    51   195   194    2
    52   202   201    2
    53    35    34   ar
    54   108   105   ar
    55    26    27   ar
    56    26    24   ar
    57    27    25   ar
    58   207   201   am
    59   107   105   ar
    60   107   106   ar
    61    16    15    1
    62    34    36   ar
    63   101   100    2
    64   201   200    1
    65   105   103   ar
    66    24    21   ar
    67   198   192    1
    68   198   197    1
    69   192   193    1
    70   194   193    1
    71   106   104   ar
    72    25    23   ar
    73    66    65    2
    74    73    72    2
    75   100    99    1
    76   100   112   am
    77   150   148   ar
    78   150   149   ar
    79    99   102    1
    80    99    98    1
    81   200   199    1
    82   200   203    1
    83   103   104   ar
    84   103   102    1
    85    21    23   ar
    86    21    19   ar
    87    14    15    1
    88    63    64    1
    89    70    69    2
    90    23    22   ar
    91    15    18    1
    92   193   196    1
    93    65    64    1
    94    65    67   am
    95   148   146   ar
    96    68    69    1
    97    68    67    1
    98    68    71    1
    99   197   196    1
   100    69    75   am
   101   149   147   ar
   102    72    71    1
   103    72    74   am
   104    19    18    1
   105    19    20   ar
   106   112   113    1
   107    22    20   ar
   108   113   116    1
   109   113   114    1
   110    77    78    2
   111    77    76    1
   112   203   204    1
   113   205   204   ar
   114    75    76    1
   115   119   117   ar
   116   116   117    1
   117   204   206   ar
   118   146   145   ar
   119   146   144   ar
   120   117   118   ar
   121    76    79    1
   122   114   115    2
   123   147   144   ar
   124   145   143   ar
   125   144   142   ar
   126   128   129    1
   127    79    80    1
   128   133   132    1
   129   133   134    1
   130    83    81   ar
   131   172   171    1
   132   143   142   ar
   133    81    80    1
   134    81    82   ar
   135   142   141    1
   136   173   171    1
   137   132   129    1
   138   135   134    1
   139   135   136    1
   140   129   130    1
   141   171   170    2
   142   141   138    1
   143   127   125   am
   144   130   131    2
   145   156   155    1
   146   156   157    1
   147   170   169    1
   148   155   152    1
   149   120   121    1
   150   137   138    1
   151   169   168    1
   152   138   139    1
   153   125   124    1
   154   125   126    2
   155   157   151    1
   156   124   121    1
   157    96    97   ar
   158    96    94   ar
   159    97    95   ar
   160   121   122    1
   161   191   189   ar
   162   152   151    1
   163   152   153    1
   164   122   123    2
   165   139   140    2
   166    12    11    2
   167   168   167    1
   168    94    91   ar
   169   158   153   am
   170   158   159    1
   171   162   159    1
   172   153   154    2
   173    95    93   ar
   174   159   160    1
   175     8     9    2
   176     8     7    1
   177     7     6    1
   178     7    10    1
   179   189   190   ar
   180   189   188    1
   181   167   164    1
   182    11    10    1
   183    11    13   am
   184    91    93   ar
   185    91    89   ar
   186    93    92   ar
   187   188   187    1
   188   160   161    2
   189   164   163    1
   190   164   165    1
   191    89    88    1
   192    89    90   ar
   193   187   184    1
   194    92    90   ar
   195    88    85    1
   196    85    84    1
   197    85    86    1
   198   184   185    1
   199   184   183    1
   200   165   174   am
   201   165   166    2
   202    87    86    2
   203   174   175    1
   204   185   186    2
   205   182   180   am
   206   179   180    1
   207   179   178    1
   208   180   181    2
   209     5     2    1
   210   175   178    1
   211   175   176    1
   212     4     3    2
   213     1     2    1
   214     2     3    1
   215   176   177    2
