@<TRIPOS>MOLECULE
tmp/5g66A01.pdb
 128 128 0 0 0
SMALL
GASTEIGER

@<TRIPOS>ATOM
      1  N         -1.6480   13.0570   19.1970 N.3    65  CYS65      -0.1235
      2  CA        -1.9620   13.8680   20.3630 C.3    65  CYS65       0.1677
      3  C         -3.3260   13.5370   20.9450 C.2    65  CYS65       0.2270
      4  O         -4.3470   13.6800   20.2700 O.2    65  CYS65      -0.2867
      5  CB        -1.9500   15.3740   19.9890 C.3    65  CYS65       0.0956
      6  SG        -2.3670   16.4260   21.3970 S.3    65  CYS65      -0.0801
      7  N         15.1290   21.2780   21.8590 N.3   127  HIS127     -0.1226
      8  CA        14.0290   20.3350   21.6330 C.3   127  HIS127      0.1752
      9  C         12.7420   20.8710   22.2920 C.2   127  HIS127      0.2595
     10  O         11.6940   20.9100   21.6710 O.2   127  HIS127     -0.2718
     11  CB        14.3850   18.9600   22.1930 C.3   127  HIS127      0.0759
     12  CG        13.1940   18.0370   22.2820 C.ar  127  HIS127      0.0818
     13  ND1       12.4960   17.6300   21.1650 N.ar  127  HIS127     -0.2268
     14  CD2       12.6080   17.4300   23.3400 C.ar  127  HIS127      0.1154
     15  CE1       11.5130   16.8200   21.5320 C.ar  127  HIS127      0.1986
     16  NE2       11.5460   16.6930   22.8480 N.ar  127  HIS127     -0.2212
     17  N         12.8290   21.2590   23.5600 N.am  128  GLN128     -0.1979
     18  CA        11.8050   22.0750   24.2130 C.3   128  GLN128      0.1601
     19  C         12.4680   23.3260   24.7850 C.2   128  GLN128      0.2287
     20  O         13.6460   23.3090   25.1420 O.2   128  GLN128     -0.2864
     21  CB        11.1400   21.3400   25.3540 C.3   128  GLN128      0.0394
     22  CG        10.2780   20.0940   24.8520 C.3   128  GLN128      0.0908
     23  CD         9.7170   19.2850   25.9900 C.2   128  GLN128      0.2608
     24  OE1        9.5840   19.7780   27.1040 O.2   128  GLN128     -0.2717
     25  NE2        9.4120   18.0220   25.7170 N.am  128  GLN128     -0.0878
     26  N          5.7180   21.8770   29.0050 N.3   215  PRO215     -0.2116
     27  CA         6.4110   21.2770   27.8610 C.3   215  PRO215      0.1372
     28  C          6.2040   22.1580   26.6320 C.2   215  PRO215      0.2244
     29  O          5.0710   22.3700   26.2320 O.2   215  PRO215     -0.2868
     30  CB         5.7100   19.9040   27.6960 C.3   215  PRO215      0.0268
     31  CG         4.3030   20.1700   28.1740 C.3   215  PRO215      0.0207
     32  CD         4.3470   21.3050   29.1840 C.3   215  PRO215      0.0892
     33  N          7.3900   22.5140   22.9990 N.3   217  ILE217     -0.1245
     34  CA         8.1440   21.7900   21.9690 C.3   217  ILE217      0.1561
     35  C          8.5520   22.7620   20.8910 C.2   217  ILE217      0.2260
     36  O          7.6980   23.4780   20.3440 O.2   217  ILE217     -0.2867
     37  CB         7.3310   20.5950   21.3920 C.3   217  ILE217      0.0252
     38  CG1        7.3680   19.4370   22.4040 C.3   217  ILE217      0.0019
     39  CG2        7.9200   20.1180   20.0580 C.3   217  ILE217      0.0019
     40  CD1        6.7140   19.7170   23.7730 C.3   217  ILE217      0.0001
     41  N          9.7530   21.4160   16.0430 N.3   220  MET220     -0.1245
     42  CA         8.9410   20.9060   14.9380 C.3   220  MET220      0.1570
     43  C          8.5440   22.0140   13.9640 C.2   220  MET220      0.2261
     44  O          8.5630   23.1860   14.3190 O.2   220  MET220     -0.2867
     45  CB         7.6820   20.1590   15.4530 C.3   220  MET220      0.0387
     46  CG         8.0930   18.8790   16.2490 C.3   220  MET220      0.0595
     47  SD         6.6130   17.9540   16.8960 S.3   220  MET220     -0.1393
     48  CE         5.9390   17.3070   15.3540 C.3   220  MET220      0.0692
     49  N          5.4140   25.4710   20.5030 N.3   234  PHE234     -0.1227
     50  CA         4.0500   25.3950   21.0310 C.3   234  PHE234      0.1736
     51  C          4.0310   24.5410   22.2920 C.2   234  PHE234      0.2595
     52  O          4.9030   23.6510   22.4570 O.2   234  PHE234     -0.2718
     53  CB         3.1100   24.7800   19.9890 C.3   234  PHE234      0.0547
     54  CG         3.5580   23.4580   19.4640 C.ar  234  PHE234     -0.0202
     55  CD1        3.1810   22.2710   20.1090 C.ar  234  PHE234     -0.0042
     56  CD2        4.2890   23.3940   18.2850 C.ar  234  PHE234     -0.0042
     57  CE1        3.6100   21.0000   19.5780 C.ar  234  PHE234     -0.0003
     58  CE2        4.7180   22.1780   17.7530 C.ar  234  PHE234     -0.0003
     59  CZ         4.3760   20.9540   18.4060 C.ar  234  PHE234     -0.0000
     60  N          3.0460   24.7870   23.1630 N.am  235  ASN235     -0.1960
     61  CA         2.9610   24.0440   24.4050 C.3   235  ASN235      0.1819
     62  C          1.5130   23.6930   24.7280 C.2   235  ASN235      0.2622
     63  O          0.5850   24.3600   24.2880 O.2   235  ASN235     -0.2715
     64  CB         3.4690   24.8700   25.5690 C.3   235  ASN235      0.1195
     65  CG         2.5730   26.0380   25.8740 C.2   235  ASN235      0.2630
     66  OD1        2.6190   27.0740   25.1910 O.2   235  ASN235     -0.2716
     67  ND2        1.7180   25.8740   26.8910 N.am  235  ASN235     -0.0877
     68  N          1.3810   22.6930   25.5750 N.am  236  GLY236     -0.1940
     69  CA         0.1490   22.4350   26.2970 C.3   236  GLY236      0.2014
     70  C          0.5010   22.3660   27.7710 C.2   236  GLY236      0.2639
     71  O          1.5260   22.9480   28.2250 O.2   236  GLY236     -0.2714
     72  N         -0.3570   21.6850   28.5380 N.am  237  TRP237     -0.1959
     73  CA        -0.0050   21.1910   29.8610 C.3   237  TRP237      0.1771
     74  C          0.3140   19.7160   29.7070 C.2   237  TRP237      0.2620
     75  O          0.0130   19.0830   28.6750 O.2   237  TRP237     -0.2715
     76  CB        -1.1270   21.3850   30.8660 C.3   237  TRP237      0.0590
     77  CG        -2.4500   20.8750   30.3710 C.ar  237  TRP237      0.0006
     78  CD1       -2.8840   19.5490   30.3670 C.ar  237  TRP237      0.0946
     79  CD2       -3.5070   21.6510   29.7780 C.ar  237  TRP237      0.0152
     80  NE1       -4.1690   19.4900   29.8240 N.ar  237  TRP237     -0.2442
     81  CE2       -4.5600   20.7520   29.4600 C.ar  237  TRP237      0.0810
     82  CE3       -3.6820   23.0220   29.5350 C.ar  237  TRP237      0.0012
     83  CZ2       -5.7580   21.1760   28.8640 C.ar  237  TRP237      0.0191
     84  CZ3       -4.8850   23.4680   28.9280 C.ar  237  TRP237      0.0001
     85  CH2       -5.9070   22.5320   28.6080 C.ar  237  TRP237      0.0015
     86  N          0.9900   19.1710   30.7160 N.am  238  TYR238     -0.1960
     87  CA         1.4300   17.7670   30.6550 C.3   238  TYR238      0.1771
     88  C          0.2630   16.8350   30.9220 C.2   238  TYR238      0.2619
     89  O         -0.5910   17.1220   31.7320 O.2   238  TYR238     -0.2715
     90  CB         2.4540   17.5000   31.7330 C.3   238  TYR238      0.0574
     91  CG         3.8860   17.6840   31.2780 C.ar  238  TYR238     -0.0198
     92  CD1        4.4280   16.7930   30.3470 C.ar  238  TYR238     -0.0009
     93  CD2        4.6980   18.6760   31.8120 C.ar  238  TYR238     -0.0009
     94  CE1        5.7490   16.9010   29.9230 C.ar  238  TYR238      0.0417
     95  CE2        6.0700   18.8030   31.3890 C.ar  238  TYR238      0.0417
     96  CZ         6.5590   17.9030   30.4560 C.ar  238  TYR238      0.1957
     97  OH         7.8710   17.9470   30.0080 O.3   238  TYR238     -0.2866
     98  N          0.3350   15.6490   30.3220 N.am  239  MET239     -0.1977
     99  CA        -0.3980   14.4990   30.8590 C.3   239  MET239      0.1605
    100  C          0.5630   13.8120   31.8130 C.2   239  MET239      0.2287
    101  O          1.7710   13.6880   31.4890 O.2   239  MET239     -0.2864
    102  CB        -0.8470   13.5780   29.7270 C.3   239  MET239      0.0413
    103  CG        -1.7050   12.3730   30.2250 C.3   239  MET239      0.0598
    104  SD        -2.4640   11.4970   28.8410 S.3   239  MET239     -0.1393
    105  CE        -1.1350   10.4750   28.2290 C.3   239  MET239      0.0692
    106  N          3.4650   11.3600   30.9960 N.3   242  GLU242     -0.1245
    107  CA         4.6660   11.7760   30.2470 C.3   242  GLU242      0.1567
    108  C          5.8510   11.9340   31.1750 C.2   242  GLU242      0.2260
    109  O          6.9910   11.6030   30.7910 O.2   242  GLU242     -0.2867
    110  CB         4.4350   13.1030   29.4910 C.3   242  GLU242      0.0388
    111  CG         3.2970   12.9560   28.4400 C.3   242  GLU242      0.1160
    112  CD         3.0420   14.2980   27.7880 C.2   242  GLU242      0.3649
    113  OE1        3.8020   14.6010   26.8140 O.co2 242  GLU242     -0.2457
    114  OE2        2.1700   15.0530   28.3070 O.co2 242  GLU242     -0.2457
    115  N          0.6030    5.8870   19.7040 N.3   328  TRP328     -0.1241
    116  CA         0.9170    7.0300   20.5630 C.3   328  TRP328      0.1605
    117  C         -0.2380    7.5040   21.4410 C.2   328  TRP328      0.2264
    118  O         -0.0020    8.1270   22.4690 O.2   328  TRP328     -0.2867
    119  CB         1.4100    8.2390   19.7290 C.3   328  TRP328      0.0550
    120  CG         2.8260    8.0840   19.2200 C.ar  328  TRP328      0.0003
    121  CD1        3.3230    7.0680   18.4360 C.ar  328  TRP328      0.0946
    122  CD2        3.9050    8.9860   19.4510 C.ar  328  TRP328      0.0152
    123  NE1        4.6820    7.2860   18.1720 N.ar  328  TRP328     -0.2442
    124  CE2        5.0490    8.4600   18.7860 C.ar  328  TRP328      0.0810
    125  CE3        4.0230   10.1960   20.1550 C.ar  328  TRP328      0.0012
    126  CZ2        6.2960    9.1170   18.8100 C.ar  328  TRP328      0.0191
    127  CZ3        5.2650   10.8510   20.1670 C.ar  328  TRP328      0.0001
    128  CH2        6.3750   10.2930   19.4990 C.ar  328  TRP328      0.0015
@<TRIPOS>BOND
     1    43    44    2
     2    43    42    1
     3    42    45    1
     4    42    41    1
     5    48    47    1
     6    45    46    1
     7    46    47    1
     8    58    56   ar
     9    58    59   ar
    10   123   121   ar
    11   123   124   ar
    12    56    54   ar
    13    59    57   ar
    14   121   120   ar
    15   124   126   ar
    16   124   122   ar
    17   126   128   ar
    18     1     2    1
    19   120   122   ar
    20   120   119    1
    21   122   125   ar
    22    54    53    1
    23    54    55   ar
    24   128   127   ar
    25    57    55   ar
    26   115   116    1
    27   119   116    1
    28     5     2    1
    29     5     6    1
    30    53    50    1
    31    39    37    1
    32   125   127   ar
    33     4     3    2
    34    36    35    2
    35     2     3    1
    36    49    50    1
    37   116   117    1
    38    35    34    1
    39    50    51    1
    40    13    15   ar
    41    13    12   ar
    42    37    34    1
    43    37    38    1
    44   117   118    2
    45    15    16   ar
    46     8     7    1
    47     8    11    1
    48     8     9    1
    49    10     9    2
    50    34    33    1
    51    11    12    1
    52    12    14   ar
    53     9    17   am
    54    51    52    2
    55    51    60   am
    56    38    40    1
    57    16    14   ar
    58    60    61    1
    59    17    18    1
    60    18    19    1
    61    18    21    1
    62    63    62    2
    63    61    62    1
    64    61    64    1
    65    62    68   am
    66    19    20    2
    67    22    21    1
    68    22    23    1
    69    66    65    2
    70    64    65    1
    71    68    69    1
    72    25    23   am
    73    65    67   am
    74    23    24    2
    75    29    28    2
    76    69    70    1
    77    28    27    1
    78   113   112   ar
    79    30    27    1
    80    30    31    1
    81    70    71    2
    82    70    72   am
    83   112   114   ar
    84   112   111    1
    85    27    26    1
    86    31    32    1
    87   105   104    1
    88   111   110    1
    89    72    73    1
    90    85    83   ar
    91    85    84   ar
    92    75    74    2
    93   104   103    1
    94    83    81   ar
    95    84    82   ar
    96    26    32    1
    97    81    79   ar
    98    81    80   ar
    99   110   107    1
   100    82    79   ar
   101    74    73    1
   102    74    86   am
   103   102   103    1
   104   102    99    1
   105    79    77   ar
   106    80    78   ar
   107    73    76    1
   108    94    92   ar
   109    94    96   ar
   110    97    96    1
   111   107   106    1
   112   107   108    1
   113    98    99    1
   114    98    88   am
   115    92    91   ar
   116    78    77   ar
   117    77    76    1
   118    96    95   ar
   119    87    86    1
   120    87    88    1
   121    87    90    1
   122   109   108    2
   123    99   100    1
   124    88    89    2
   125    91    90    1
   126    91    93   ar
   127    95    93   ar
   128   101   100    2
