@<TRIPOS>MOLECULE
tmp/5g67A02.pdb
 167 162 0 0 0
SMALL
GASTEIGER

@<TRIPOS>ATOM
      1  N         -1.5610   13.2150   19.3080 N.3    65  CYS65      -0.1235
      2  CA        -1.9650   14.0350   20.4480 C.3    65  CYS65       0.1677
      3  C         -3.3180   13.6810   21.0600 C.2    65  CYS65       0.2270
      4  O         -4.3590   13.7780   20.3990 O.2    65  CYS65      -0.2867
      5  CB        -1.9760   15.5110   20.0650 C.3    65  CYS65       0.0956
      6  SG        -2.4920   16.5680   21.4250 S.3    65  CYS65      -0.0801
      7  N         15.0980   21.4710   22.1510 N.3   127  HIS127     -0.1226
      8  CA        13.9630   20.5790   21.9340 C.3   127  HIS127      0.1752
      9  C         12.7340   21.1860   22.6130 C.2   127  HIS127      0.2595
     10  O         11.6580   21.2630   22.0240 O.2   127  HIS127     -0.2718
     11  CB        14.2240   19.1710   22.4760 C.3   127  HIS127      0.0759
     12  CG        12.9650   18.3850   22.6880 C.ar  127  HIS127      0.0818
     13  ND1       12.0620   18.1460   21.6770 N.ar  127  HIS127     -0.2268
     14  CD2       12.4350   17.8350   23.8090 C.ar  127  HIS127      0.1154
     15  CE1       11.0370   17.4580   22.1590 C.ar  127  HIS127      0.1986
     16  NE2       11.2330   17.2670   23.4510 N.ar  127  HIS127     -0.2212
     17  N         12.9180   21.6250   23.8530 N.am  128  GLN128     -0.1979
     18  CA        11.9260   22.4370   24.5570 C.3   128  GLN128      0.1601
     19  C         12.5980   23.6780   25.1470 C.2   128  GLN128      0.2287
     20  O         13.7850   23.6430   25.4820 O.2   128  GLN128     -0.2864
     21  CB        11.2250   21.6430   25.6650 C.3   128  GLN128      0.0394
     22  CG        10.2470   20.5740   25.1450 C.3   128  GLN128      0.0908
     23  CD         9.7880   19.6060   26.2310 C.2   128  GLN128      0.2608
     24  OE1        9.5500   19.9990   27.3850 O.2   128  GLN128     -0.2717
     25  NE2        9.6580   18.3280   25.8640 N.am  128  GLN128     -0.0878
     26  N         14.1990   22.7050   29.6030 N.3   131  ARG131     -0.1245
     27  CA        14.6550   21.3210   29.5270 C.3   131  ARG131      0.1563
     28  C         15.9350   21.1770   30.3560 C.2   131  ARG131      0.2260
     29  O         16.7170   22.1220   30.4460 O.2   131  ARG131     -0.2867
     30  CB        14.9520   20.9520   28.0680 C.3   131  ARG131      0.0307
     31  CG        15.0940   19.4600   27.7860 C.3   131  ARG131      0.0489
     32  CD        13.7870   18.7050   28.0300 C.3   131  ARG131      0.2205
     33  NE        13.7680   17.4320   27.3020 N.pl3 131  ARG131     -0.0865
     34  CZ        12.8240   16.5020   27.4480 C.cat 131  ARG131      0.5346
     35  NH1       11.8190   16.6980   28.3090 N.pl3 131  ARG131      0.1354
     36  NH2       12.8810   15.3720   26.7310 N.pl3 131  ARG131      0.1354
     37  N         18.7230   12.2970   27.5020 N.3   146  ALA146     -0.1245
     38  CA        18.1770   12.7200   26.2150 C.3   146  ALA146      0.1562
     39  C         18.6890   14.0950   25.8100 C.2   146  ALA146      0.2260
     40  O         18.5320   14.5000   24.6690 O.2   146  ALA146     -0.2867
     41  CB        16.6590   12.7330   26.2560 C.3   146  ALA146      0.0290
     42  N          5.8660   22.2150   29.3460 N.3   215  PRO215     -0.2116
     43  CA         6.5970   21.6690   28.2010 C.3   215  PRO215      0.1372
     44  C          6.3590   22.5320   26.9710 C.2   215  PRO215      0.2244
     45  O          5.2340   22.5780   26.4660 O.2   215  PRO215     -0.2868
     46  CB         5.9780   20.2810   28.0190 C.3   215  PRO215      0.0268
     47  CG         4.5790   20.4070   28.5470 C.3   215  PRO215      0.0207
     48  CD         4.5610   21.5520   29.5410 C.3   215  PRO215      0.0892
     49  N          7.4820   22.8530   23.3420 N.3   217  ILE217     -0.1245
     50  CA         8.1940   22.1630   22.2670 C.3   217  ILE217      0.1561
     51  C          8.6130   23.1560   21.1900 C.2   217  ILE217      0.2260
     52  O          7.7820   23.8750   20.6250 O.2   217  ILE217     -0.2867
     53  CB         7.3530   21.0280   21.6540 C.3   217  ILE217      0.0252
     54  CG1        7.3220   19.8160   22.5970 C.3   217  ILE217      0.0019
     55  CG2        7.9470   20.5880   20.3210 C.3   217  ILE217      0.0019
     56  CD1        6.4710   19.9970   23.8020 C.3   217  ILE217      0.0001
     57  N          9.7800   21.5600   16.3740 N.3   220  MET220     -0.1245
     58  CA         8.9620   21.0290   15.2800 C.3   220  MET220      0.1570
     59  C          8.5980   22.1060   14.2690 C.2   220  MET220      0.2261
     60  O          8.4690   23.2810   14.6140 O.2   220  MET220     -0.2867
     61  CB         7.7000   20.3470   15.8080 C.3   220  MET220      0.0387
     62  CG         7.9930   19.1520   16.6980 C.3   220  MET220      0.0595
     63  SD         6.4800   18.3340   17.2810 S.3   220  MET220     -0.1393
     64  CE         6.0080   17.4760   15.8000 C.3   220  MET220      0.0692
     65  N          5.4490   25.7870   20.7300 N.3   234  PHE234     -0.1241
     66  CA         4.0970   25.6870   21.2800 C.3   234  PHE234      0.1605
     67  C          4.0900   24.8980   22.5800 C.2   234  PHE234      0.2264
     68  O          5.0400   24.1660   22.8780 O.2   234  PHE234     -0.2867
     69  CB         3.1570   25.0150   20.2840 C.3   234  PHE234      0.0534
     70  CG         3.5440   23.5910   19.9400 C.ar  234  PHE234     -0.0203
     71  CD1        3.2210   22.5350   20.7900 C.ar  234  PHE234     -0.0042
     72  CD2        4.2360   23.3140   18.7660 C.ar  234  PHE234     -0.0042
     73  CE1        3.5770   21.2170   20.4680 C.ar  234  PHE234     -0.0003
     74  CE2        4.6020   22.0190   18.4390 C.ar  234  PHE234     -0.0003
     75  CZ         4.2670   20.9590   19.2860 C.ar  234  PHE234     -0.0000
     76  N          1.1370   22.8610   25.5450 N.3   236  GLY236     -0.1210
     77  CA        -0.0890   22.6590   26.2910 C.3   236  GLY236      0.1956
     78  C          0.3190   22.5380   27.7510 C.2   236  GLY236      0.2612
     79  O          1.2700   23.1930   28.1860 O.2   236  GLY236     -0.2717
     80  N         -0.4060   21.7160   28.5070 N.am  237  TRP237     -0.1962
     81  CA         0.0400   21.2710   29.8240 C.3   237  TRP237      0.1771
     82  C          0.3510   19.7750   29.7610 C.2   237  TRP237      0.2620
     83  O         -0.0330   19.0960   28.8120 O.2   237  TRP237     -0.2715
     84  CB        -1.0180   21.5560   30.8900 C.3   237  TRP237      0.0590
     85  CG        -2.3830   21.0360   30.5040 C.ar  237  TRP237      0.0006
     86  CD1       -2.8340   19.7380   30.5920 C.ar  237  TRP237      0.0946
     87  CD2       -3.4640   21.8010   29.9530 C.ar  237  TRP237      0.0152
     88  NE1       -4.1450   19.6630   30.1480 N.ar  237  TRP237     -0.2442
     89  CE2       -4.5450   20.9090   29.7400 C.ar  237  TRP237      0.0810
     90  CE3       -3.6240   23.1570   29.6230 C.ar  237  TRP237      0.0012
     91  CZ2       -5.7630   21.3290   29.1970 C.ar  237  TRP237      0.0191
     92  CZ3       -4.8350   23.5710   29.0870 C.ar  237  TRP237      0.0001
     93  CH2       -5.8930   22.6610   28.8890 C.ar  237  TRP237      0.0015
     94  N          1.0750   19.2690   30.7530 N.am  238  TYR238     -0.1960
     95  CA         1.4860   17.8650   30.7620 C.3   238  TYR238      0.1771
     96  C          0.3270   16.9220   31.0600 C.2   238  TYR238      0.2619
     97  O         -0.5650   17.2540   31.8480 O.2   238  TYR238     -0.2715
     98  CB         2.5100   17.6320   31.8650 C.3   238  TYR238      0.0574
     99  CG         3.9500   17.7620   31.4320 C.ar  238  TYR238     -0.0198
    100  CD1        4.5100   16.8420   30.5560 C.ar  238  TYR238     -0.0009
    101  CD2        4.7590   18.7770   31.9310 C.ar  238  TYR238     -0.0009
    102  CE1        5.8450   16.9290   30.1700 C.ar  238  TYR238      0.0417
    103  CE2        6.1080   18.8690   31.5540 C.ar  238  TYR238      0.0417
    104  CZ         6.6380   17.9460   30.6680 C.ar  238  TYR238      0.1957
    105  OH         7.9630   18.0260   30.2720 O.3   238  TYR238     -0.2866
    106  N          0.3730   15.7290   30.4670 N.am  239  MET239     -0.1977
    107  CA        -0.3750   14.5930   31.0030 C.3   239  MET239      0.1605
    108  C          0.5880   13.9050   31.9640 C.2   239  MET239      0.2287
    109  O          1.7620   13.7360   31.6360 O.2   239  MET239     -0.2864
    110  CB        -0.8090   13.6380   29.8930 C.3   239  MET239      0.0413
    111  CG        -1.6940   12.4940   30.3730 C.3   239  MET239      0.0598
    112  SD        -2.4910   11.6230   29.0140 S.3   239  MET239     -0.1393
    113  CE        -1.1280   10.6850   28.3340 C.3   239  MET239      0.0692
    114  N          3.5320   11.4030   31.2190 N.3   242  GLU242     -0.1245
    115  CA         4.6960   11.8420   30.4330 C.3   242  GLU242      0.1567
    116  C          5.8990   11.9870   31.3520 C.2   242  GLU242      0.2260
    117  O          7.0380   11.7710   30.9560 O.2   242  GLU242     -0.2867
    118  CB         4.4370   13.1920   29.7530 C.3   242  GLU242      0.0388
    119  CG         3.3390   13.1800   28.6860 C.3   242  GLU242      0.1160
    120  CD         3.2050   14.5390   28.0130 C.2   242  GLU242      0.3649
    121  OE1        4.1100   14.9030   27.2310 O.co2 242  GLU242     -0.2457
    122  OE2        2.2230   15.2550   28.2960 O.co2 242  GLU242     -0.2457
    123  N          9.6830   10.2060   31.4780 N.3   247  ASN247     -0.1240
    124  CA        10.8010   11.0860   31.8190 C.3   247  ASN247      0.1653
    125  C         11.5300   10.6190   33.0720 C.2   247  ASN247      0.2266
    126  O         12.7590   10.5670   33.1050 O.2   247  ASN247     -0.2867
    127  CB        10.3250   12.5320   32.0240 C.3   247  ASN247      0.1155
    128  CG         9.6900   13.1290   30.7730 C.2   247  ASN247      0.2627
    129  OD1        9.7820   12.5630   29.6830 O.2   247  ASN247     -0.2716
    130  ND2        9.0550   14.2920   30.9270 N.am  247  ASN247     -0.0877
    131  N         16.2290    7.3380   30.5410 N.3   253  ARG253     -0.1245
    132  CA        16.0080    8.6930   31.0450 C.3   253  ARG253      0.1563
    133  C         16.5000    8.7530   32.4890 C.2   253  ARG253      0.2260
    134  O         17.6380    8.3700   32.7550 O.2   253  ARG253     -0.2867
    135  CB        14.5420    9.1010   30.8960 C.3   253  ARG253      0.0307
    136  CG        14.0860    9.1230   29.4250 C.3   253  ARG253      0.0489
    137  CD        14.8230   10.2000   28.6030 C.3   253  ARG253      0.2205
    138  NE        14.5310   11.5710   29.0510 N.pl3 253  ARG253     -0.0865
    139  CZ        13.3420   12.1710   28.9470 C.cat 253  ARG253      0.5346
    140  NH1       12.2990   11.5310   28.4040 N.pl3 253  ARG253      0.1354
    141  NH2       13.1890   13.4240   29.3820 N.pl3 253  ARG253      0.1354
    142  N          0.6450    5.8800   19.8900 N.3   328  TRP328     -0.1241
    143  CA         1.0080    7.0260   20.7270 C.3   328  TRP328      0.1605
    144  C         -0.1270    7.5290   21.6070 C.2   328  TRP328      0.2264
    145  O          0.1200    8.0940   22.6770 O.2   328  TRP328     -0.2867
    146  CB         1.5700    8.1790   19.8850 C.3   328  TRP328      0.0550
    147  CG         3.0190    8.0200   19.5720 C.ar  328  TRP328      0.0003
    148  CD1        3.6050    6.9750   18.9020 C.ar  328  TRP328      0.0946
    149  CD2        4.0770    8.9290   19.9090 C.ar  328  TRP328      0.0152
    150  NE1        4.9670    7.1800   18.8050 N.ar  328  TRP328     -0.2442
    151  CE2        5.2810    8.3690   19.4150 C.ar  328  TRP328      0.0810
    152  CE3        4.1250   10.1620   20.5670 C.ar  328  TRP328      0.0012
    153  CZ2        6.5250    9.0030   19.5720 C.ar  328  TRP328      0.0191
    154  CZ3        5.3650   10.7910   20.7190 C.ar  328  TRP328      0.0001
    155  CH2        6.5440   10.2050   20.2190 C.ar  328  TRP328      0.0015
    156  N          8.3990   16.6450   12.5150 N.3   356  TYR356     -0.1241
    157  CA         9.7840   16.5420   12.9460 C.3   356  TYR356      0.1605
    158  C         10.6740   17.1960   11.8940 C.2   356  TYR356      0.2264
    159  O         10.3070   17.2550   10.7230 O.2   356  TYR356     -0.2867
    160  CB        10.1850   15.0700   13.0690 C.3   356  TYR356      0.0534
    161  CG         9.6580   14.3430   14.2910 C.ar  356  TYR356     -0.0201
    162  CD1        9.0360   15.0240   15.3280 C.ar  356  TYR356     -0.0009
    163  CD2        9.8150   12.9720   14.4160 C.ar  356  TYR356     -0.0009
    164  CE1        8.5700   14.3470   16.4510 C.ar  356  TYR356      0.0417
    165  CE2        9.3480   12.2910   15.5300 C.ar  356  TYR356      0.0417
    166  CZ         8.7300   12.9780   16.5390 C.ar  356  TYR356      0.1957
    167  OH         8.2900   12.2930   17.6470 O.3   356  TYR356     -0.2866
@<TRIPOS>BOND
     1   159   158    2
     2   158   157    1
     3   156   157    1
     4   157   160    1
     5   160   161    1
     6    59    60    2
     7    59    58    1
     8   161   163   ar
     9   161   162   ar
    10   163   165   ar
    11    58    61    1
    12    58    57    1
    13   162   164   ar
    14   165   166   ar
    15    64    63    1
    16    61    62    1
    17   164   166   ar
    18   166   167    1
    19    62    63    1
    20    74    72   ar
    21    74    75   ar
    22    72    70   ar
    23   150   148   ar
    24   150   151   ar
    25   148   147   ar
    26    75    73   ar
    27     1     2    1
    28   151   153   ar
    29   151   149   ar
    30   147   146    1
    31   147   149   ar
    32   153   155   ar
    33   146   143    1
    34   142   143    1
    35   149   152   ar
    36    70    69    1
    37    70    71   ar
    38     5     2    1
    39     5     6    1
    40   155   154   ar
    41    69    66    1
    42    55    53    1
    43     4     3    2
    44     2     3    1
    45    73    71   ar
    46   152   154   ar
    47    52    51    2
    48   143   144    1
    49    65    66    1
    50    51    50    1
    51    66    67    1
    52   144   145    2
    53    53    50    1
    54    53    54    1
    55    13    15   ar
    56    13    12   ar
    57     8     7    1
    58     8    11    1
    59     8     9    1
    60    10     9    2
    61    15    16   ar
    62    50    49    1
    63    11    12    1
    64    67    68    2
    65    54    56    1
    66     9    17   am
    67    12    14   ar
    68    16    14   ar
    69    17    18    1
    70    18    19    1
    71    18    21    1
    72    40    39    2
    73    22    21    1
    74    22    23    1
    75    19    20    2
    76    76    77    1
    77    39    38    1
    78    25    23   am
    79    38    41    1
    80    38    37    1
    81    23    24    2
    82    77    78    1
    83    45    44    2
    84    36    34    1
    85    44    43    1
    86   121   120   ar
    87    33    34    2
    88    33    32    1
    89    34    35    1
    90    78    79    2
    91    78    80   am
    92    31    32    1
    93    31    30    1
    94   120   122   ar
    95   120   119    1
    96    46    43    1
    97    46    47    1
    98    30    27    1
    99    43    42    1
   100   113   112    1
   101   140   139    1
   102    80    81    1
   103    47    48    1
   104   137   138    1
   105   137   136    1
   106   119   118    1
   107    83    82    2
   108    93    92   ar
   109    93    91   ar
   110   139   138    2
   111   139   141    1
   112   112   111    1
   113    92    90   ar
   114    91    89   ar
   115    42    48    1
   116   136   135    1
   117    27    26    1
   118    27    28    1
   119    90    87   ar
   120   129   128    2
   121    89    87   ar
   122    89    88   ar
   123   118   115    1
   124    82    81    1
   125    82    94   am
   126    81    84    1
   127   110   111    1
   128   110   107    1
   129    87    85   ar
   130    88    86   ar
   131   102   100   ar
   132   102   104   ar
   133   105   104    1
   134    28    29    2
   135   115   114    1
   136   115   116    1
   137   106   107    1
   138   106    96   am
   139    85    86   ar
   140    85    84    1
   141   131   132    1
   142   100    99   ar
   143   104   103   ar
   144    94    95    1
   145    95    96    1
   146    95    98    1
   147   128   130   am
   148   128   127    1
   149   135   132    1
   150   117   116    2
   151   107   108    1
   152   132   133    1
   153    96    97    2
   154    99    98    1
   155    99   101   ar
   156   123   124    1
   157   103   101   ar
   158   109   108    2
   159   124   127    1
   160   124   125    1
   161   133   134    2
   162   125   126    2
