@<TRIPOS>MOLECULE
tmp/5g68A03.pdb
 110 103 0 0 0
SMALL
GASTEIGER

@<TRIPOS>ATOM
      1  N          6.6240   33.1260   29.9620 N.3    97  GLU97      -0.1245
      2  CA         5.8800   33.8380   30.9980 C.3    97  GLU97       0.1567
      3  C          4.3730   33.7210   30.7230 C.2    97  GLU97       0.2260
      4  O          3.6040   33.4010   31.6420 O.2    97  GLU97      -0.2867
      5  CB         6.3370   35.3020   31.0510 C.3    97  GLU97       0.0388
      6  CG         5.6410   36.1090   32.0940 C.3    97  GLU97       0.1160
      7  CD         6.2150   37.5220   32.1390 C.2    97  GLU97       0.3649
      8  OE1        7.2420   37.7240   32.8170 O.co2  97  GLU97      -0.2457
      9  OE2        5.6600   38.4180   31.4700 O.co2  97  GLU97      -0.2457
     10  N          3.0710   30.0580   30.9830 N.3   100  THR100     -0.1218
     11  CA         3.0880   29.6130   32.3860 C.3   100  THR100      0.1862
     12  C          1.8890   30.1910   33.1540 C.2   100  THR100      0.2287
     13  O          1.2110   29.4780   33.9230 O.2   100  THR100     -0.2866
     14  CB         4.4060   29.9750   33.1010 C.3   100  THR100      0.1770
     15  OG1        5.4720   29.2940   32.4390 O.3   100  THR100     -0.2211
     16  CG2        4.3570   29.4850   34.5070 C.3   100  THR100      0.0375
     17  N          1.4300   31.9230   35.7940 N.3   102  ASN102     -0.1240
     18  CA         1.3840   31.6610   37.2340 C.3   102  ASN102      0.1653
     19  C          0.9490   30.2400   37.5830 C.2   102  ASN102      0.2266
     20  O          0.5610   29.9670   38.7210 O.2   102  ASN102     -0.2867
     21  CB         0.5040   32.7170   37.9360 C.3   102  ASN102      0.1155
     22  CG         1.1730   34.0760   37.9540 C.2   102  ASN102      0.2627
     23  OD1        2.3830   34.1520   38.2000 O.2   102  ASN102     -0.2716
     24  ND2        0.4220   35.1420   37.6530 N.am  102  ASN102     -0.0877
     25  N         26.1100   23.3660   36.0130 N.3   162  GLU162     -0.1245
     26  CA        26.5470   23.0450   37.3720 C.3   162  GLU162      0.1567
     27  C         26.7130   21.5390   37.6150 C.2   162  GLU162      0.2260
     28  O         27.2450   21.1460   38.6570 O.2   162  GLU162     -0.2867
     29  CB        25.5430   23.5670   38.3730 C.3   162  GLU162      0.0388
     30  CG        25.7680   25.0260   38.6160 C.3   162  GLU162      0.1160
     31  CD        24.5790   25.6950   39.2390 C.2   162  GLU162      0.3649
     32  OE1       24.3540   25.5270   40.4560 O.co2 162  GLU162     -0.2457
     33  OE2       23.8750   26.4130   38.5040 O.co2 162  GLU162     -0.2457
     34  N         19.5740   18.2610   37.3210 N.3   166  PHE166     -0.1241
     35  CA        18.4900   19.1050   36.8000 C.3   166  PHE166      0.1605
     36  C         19.0080   20.4710   36.4040 C.2   166  PHE166      0.2264
     37  O         18.4400   21.5050   36.8030 O.2   166  PHE166     -0.2867
     38  CB        17.3830   19.2730   37.8580 C.3   166  PHE166      0.0534
     39  CG        16.8100   17.9610   38.3460 C.ar  166  PHE166     -0.0203
     40  CD1       15.9360   17.2320   37.5560 C.ar  166  PHE166     -0.0042
     41  CD2       17.1650   17.4590   39.5880 C.ar  166  PHE166     -0.0042
     42  CE1       15.4230   15.9800   37.9900 C.ar  166  PHE166     -0.0003
     43  CE2       16.6510   16.2300   40.0310 C.ar  166  PHE166     -0.0003
     44  CZ        15.7840   15.4990   39.2450 C.ar  166  PHE166     -0.0000
     45  N         19.1670   23.5900   34.1460 N.3   168  LEU168     -0.1245
     46  CA        18.3900   24.1320   33.0020 C.3   168  LEU168      0.1561
     47  C         19.3360   24.4740   31.8310 C.2   168  LEU168      0.2260
     48  O         20.2650   25.2690   31.9940 O.2   168  LEU168     -0.2867
     49  CB        17.6660   25.4390   33.4210 C.3   168  LEU168      0.0270
     50  CG        16.6130   25.1620   34.5010 C.3   168  LEU168      0.0019
     51  CD1       16.1680   26.5100   35.0350 C.3   168  LEU168      0.0001
     52  CD2       15.4270   24.4240   33.9160 C.3   168  LEU168      0.0001
     53  N         15.8660   32.3980   36.2300 N.3   188  ARG188     -0.1231
     54  CA        15.1360   31.4780   37.0930 C.3   188  ARG188      0.1694
     55  C         13.7580   32.0280   37.4990 C.2   188  ARG188      0.2593
     56  O         12.8410   31.2290   37.7630 O.2   188  ARG188     -0.2718
     57  CB        15.9760   31.0970   38.3210 C.3   188  ARG188      0.0321
     58  CG        17.0520   30.0780   37.9640 C.3   188  ARG188      0.0489
     59  CD        18.0840   29.9430   39.0730 C.3   188  ARG188      0.2205
     60  NE        19.0140   28.8500   38.7820 N.pl3 188  ARG188     -0.0865
     61  CZ        19.9420   28.3940   39.6260 C.cat 188  ARG188      0.5346
     62  NH1       20.0920   28.9540   40.8310 N.pl3 188  ARG188      0.1354
     63  NH2       20.7270   27.3800   39.2610 N.pl3 188  ARG188      0.1354
     64  N         13.6080   33.3540   37.5130 N.am  189  SER189     -0.1938
     65  CA        12.2950   33.9430   37.7910 C.3   189  SER189      0.2055
     66  C         11.1790   33.5280   36.8110 C.2   189  SER189      0.2643
     67  O          9.9900   33.6690   37.1340 O.2   189  SER189     -0.2714
     68  CB        12.3970   35.4790   37.7990 C.3   189  SER189      0.2130
     69  OG        12.8110   35.9290   36.5190 O.3   189  SER189     -0.2179
     70  N         11.5430   33.0630   35.6100 N.am  190  LEU190     -0.1963
     71  CA        10.5610   32.6870   34.5930 C.3   190  LEU190      0.1728
     72  C         10.1710   31.2030   34.6670 C.2   190  LEU190      0.2616
     73  O          9.1770   30.7750   34.0570 O.2   190  LEU190     -0.2715
     74  CB        11.1440   32.9060   33.1960 C.3   190  LEU190      0.0311
     75  CG        11.3220   34.3330   32.6740 C.3   190  LEU190      0.0022
     76  CD1       11.9520   34.2610   31.2730 C.3   190  LEU190      0.0001
     77  CD2        9.9720   35.0080   32.6180 C.3   190  LEU190      0.0001
     78  N         10.9490   30.4140   35.4050 N.am  191  VAL191     -0.1963
     79  CA        10.8140   28.9570   35.3580 C.3   191  VAL191      0.1727
     80  C         10.1740   28.3920   36.6070 C.2   191  VAL191      0.2616
     81  O         10.7900   28.4170   37.6670 O.2   191  VAL191     -0.2715
     82  CB        12.2120   28.2790   35.1860 C.3   191  VAL191      0.0290
     83  CG1       12.0720   26.7610   35.1700 C.3   191  VAL191      0.0023
     84  CG2       12.8360   28.7270   33.8760 C.3   191  VAL191      0.0023
     85  N          8.9490   27.8750   36.4970 N.am  192  ILE192     -0.1963
     86  CA         8.3600   27.1670   37.6320 C.3   192  ILE192      0.1727
     87  C          8.7910   25.6910   37.6190 C.2   192  ILE192      0.2616
     88  O          8.7550   25.0100   36.5750 O.2   192  ILE192     -0.2715
     89  CB         6.7900   27.1680   37.5980 C.3   192  ILE192      0.0290
     90  CG1        6.2300   28.5780   37.6950 C.3   192  ILE192      0.0022
     91  CG2        6.2500   26.3810   38.7960 C.3   192  ILE192      0.0023
     92  CD1        4.7150   28.5530   37.9370 C.3   192  ILE192      0.0001
     93  N          9.2130   25.2060   38.7860 N.am  193  GLU193     -0.1977
     94  CA         9.5050   23.7820   38.9370 C.3   193  GLU193      0.1602
     95  C          8.6770   23.2320   40.0870 C.2   193  GLU193      0.2287
     96  O          8.2700   23.9670   41.0140 O.2   193  GLU193     -0.2864
     97  CB        10.9910   23.5610   39.2670 C.3   193  GLU193      0.0415
     98  CG        11.9400   23.9580   38.1410 C.3   193  GLU193      0.1163
     99  CD        13.4050   23.6430   38.4580 C.2   193  GLU193      0.3649
    100  OE1       13.8920   24.0610   39.5290 O.co2 193  GLU193     -0.2457
    101  OE2       14.0580   22.9470   37.6310 O.co2 193  GLU193     -0.2457
    102  N         12.2910   16.4040   40.9700 N.3   210  LYS210     -0.1245
    103  CA        11.5140   17.5970   40.6180 C.3   210  LYS210      0.1561
    104  C         11.3060   17.5280   39.1150 C.2   210  LYS210      0.2260
    105  O         11.9540   16.7280   38.4540 O.2   210  LYS210     -0.2867
    106  CB        12.2330   18.8860   41.0210 C.3   210  LYS210      0.0271
    107  CG        13.5060   19.2120   40.2120 C.3   210  LYS210      0.0035
    108  CD        14.0460   20.5920   40.6870 C.3   210  LYS210      0.0206
    109  CE        15.4550   20.8800   40.1780 C.3   210  LYS210      0.1093
    110  NZ        15.9790   22.2730   40.5180 N.3   210  LYS210     -0.1314
@<TRIPOS>BOND
     1     1     2    1
     2     3     2    1
     3     3     4    2
     4    10    11    1
     5     2     5    1
     6     5     6    1
     7    76    75    1
     8     9     7   ar
     9    47    48    2
    10    47    46    1
    11     6     7    1
    12     7     8   ar
    13    11    14    1
    14    11    12    1
    15    15    14    1
    16    77    75    1
    17    75    74    1
    18    46    49    1
    19    46    45    1
    20    14    16    1
    21    12    13    2
    22    74    71    1
    23    49    50    1
    24    84    82    1
    25    52    50    1
    26    73    72    2
    27    50    51    1
    28    71    72    1
    29    71    70    1
    30    72    78   am
    31    83    82    1
    32    82    79    1
    33    79    78    1
    34    79    80    1
    35    70    66   am
    36    17    18    1
    37    25    26    1
    38    53    54    1
    39    36    35    1
    40    36    37    2
    41    85    80   am
    42    85    86    1
    43    69    68    1
    44    88    87    2
    45    80    81    2
    46    35    34    1
    47    35    38    1
    48    66    67    2
    49    66    65    1
    50    54    55    1
    51    54    57    1
    52    18    19    1
    53    18    21    1
    54    26    27    1
    55    26    29    1
    56    55    64   am
    57    55    56    2
    58    64    65    1
    59    40    42   ar
    60    40    39   ar
    61    19    20    2
    62    89    86    1
    63    89    90    1
    64    89    91    1
    65    27    28    2
    66    87    86    1
    67    87    93   am
    68   101    99   ar
    69    24    22   am
    70    90    92    1
    71    65    68    1
    72    38    39    1
    73    21    22    1
    74    22    23    2
    75    58    57    1
    76    58    59    1
    77    42    44   ar
    78    98    99    1
    79    98    97    1
    80    39    41   ar
    81    29    30    1
    82   105   104    2
    83    99   100   ar
    84    33    31   ar
    85    30    31    1
    86    60    59    1
    87    60    61    2
    88    93    94    1
    89    94    97    1
    90    94    95    1
    91   104   103    1
    92    31    32   ar
    93    44    43   ar
    94    63    61    1
    95    41    43   ar
    96    61    62    1
    97    95    96    2
    98   109   110    1
    99   109   108    1
   100   107   108    1
   101   107   106    1
   102   103   102    1
   103   103   106    1
