@<TRIPOS>MOLECULE
tmp/5g68A02.pdb
 179 173 0 0 0
SMALL
GASTEIGER

@<TRIPOS>ATOM
      1  N         -1.6210   13.1870   19.4660 N.3    65  CYS65      -0.1235
      2  CA        -1.9640   14.0250   20.6250 C.3    65  CYS65       0.1677
      3  C         -3.3470   13.6780   21.2240 C.2    65  CYS65       0.2270
      4  O         -4.4020   13.8430   20.5630 O.2    65  CYS65      -0.2867
      5  CB        -2.0390   15.4930   20.1860 C.3    65  CYS65       0.0956
      6  SG        -2.4300   16.6030   21.5450 S.3    65  CYS65      -0.0801
      7  N         15.1380   21.3030   22.2280 N.3   127  HIS127     -0.1226
      8  CA        13.9890   20.4150   21.9920 C.3   127  HIS127      0.1752
      9  C         12.7660   21.0250   22.7010 C.2   127  HIS127      0.2595
     10  O         11.6560   21.0770   22.1350 O.2   127  HIS127     -0.2718
     11  CB        14.2540   19.0030   22.5200 C.3   127  HIS127      0.0759
     12  CG        12.9980   18.1910   22.6370 C.ar  127  HIS127      0.0818
     13  ND1       12.1640   17.9820   21.5610 N.ar  127  HIS127     -0.2268
     14  CD2       12.3830   17.6380   23.7100 C.ar  127  HIS127      0.1154
     15  CE1       11.0940   17.3030   21.9620 C.ar  127  HIS127      0.1986
     16  NE2       11.1950   17.0870   23.2620 N.ar  127  HIS127     -0.2212
     17  N         12.9420   21.4690   23.9470 N.am  128  GLN128     -0.1979
     18  CA        11.9050   22.2490   24.6480 C.3   128  GLN128      0.1601
     19  C         12.5800   23.4710   25.2360 C.2   128  GLN128      0.2287
     20  O         13.8000   23.4370   25.5430 O.2   128  GLN128     -0.2864
     21  CB        11.2500   21.4550   25.7730 C.3   128  GLN128      0.0394
     22  CG        10.3810   20.2630   25.2300 C.3   128  GLN128      0.0908
     23  CD         9.8040   19.4170   26.3510 C.2   128  GLN128      0.2608
     24  OE1        9.5540   19.9130   27.4590 O.2   128  GLN128     -0.2717
     25  NE2        9.5750   18.1260   26.0730 N.am  128  GLN128     -0.0878
     26  N         14.3210   22.5880   29.7360 N.3   131  ARG131     -0.1245
     27  CA        14.6470   21.1570   29.6640 C.3   131  ARG131      0.1563
     28  C         15.9820   21.0020   30.4240 C.2   131  ARG131      0.2260
     29  O         16.7640   21.9550   30.5390 O.2   131  ARG131     -0.2867
     30  CB        14.8870   20.7760   28.2140 C.3   131  ARG131      0.0307
     31  CG        15.0530   19.3090   27.9060 C.3   131  ARG131      0.0489
     32  CD        13.7450   18.6170   28.0150 C.3   131  ARG131      0.2205
     33  NE        13.7630   17.3290   27.2900 N.pl3 131  ARG131     -0.0865
     34  CZ        12.8020   16.4020   27.4140 C.cat 131  ARG131      0.5346
     35  NH1       11.7930   16.6010   28.2800 N.pl3 131  ARG131      0.1354
     36  NH2       12.8820   15.2490   26.7040 N.pl3 131  ARG131      0.1354
     37  N         18.5810   12.1640   27.5190 N.3   146  ALA146     -0.1245
     38  CA        17.9700   12.5450   26.2550 C.3   146  ALA146      0.1562
     39  C         18.6020   13.8590   25.8140 C.2   146  ALA146      0.2260
     40  O         18.5720   14.1910   24.6440 O.2   146  ALA146     -0.2867
     41  CB        16.4590   12.6990   26.3730 C.3   146  ALA146      0.0290
     42  N          5.9270   22.1380   29.4570 N.3   215  PRO215     -0.2116
     43  CA         6.6590   21.5620   28.3190 C.3   215  PRO215      0.1372
     44  C          6.4240   22.3890   27.0460 C.2   215  PRO215      0.2244
     45  O          5.2830   22.4520   26.5510 O.2   215  PRO215     -0.2868
     46  CB         6.0660   20.1580   28.1970 C.3   215  PRO215      0.0268
     47  CG         4.6140   20.2720   28.7210 C.3   215  PRO215      0.0207
     48  CD         4.6240   21.4650   29.6910 C.3   215  PRO215      0.0892
     49  N          7.5120   22.7160   23.4000 N.3   217  ILE217     -0.1245
     50  CA         8.2290   21.9830   22.3490 C.3   217  ILE217      0.1561
     51  C          8.6530   22.9860   21.2630 C.2   217  ILE217      0.2260
     52  O          7.8090   23.7340   20.7100 O.2   217  ILE217     -0.2867
     53  CB         7.3790   20.8540   21.7700 C.3   217  ILE217      0.0252
     54  CG1        7.3580   19.6410   22.7530 C.3   217  ILE217      0.0019
     55  CG2        8.0000   20.3750   20.4490 C.3   217  ILE217      0.0019
     56  CD1        6.5770   19.8850   23.9800 C.3   217  ILE217      0.0001
     57  N          9.7640   21.4560   16.4070 N.3   220  MET220     -0.1245
     58  CA         8.9340   20.9220   15.3180 C.3   220  MET220      0.1570
     59  C          8.5840   21.9880   14.3130 C.2   220  MET220      0.2261
     60  O          8.4920   23.1690   14.6650 O.2   220  MET220     -0.2867
     61  CB         7.6430   20.3010   15.8520 C.3   220  MET220      0.0387
     62  CG         7.9320   19.1180   16.7590 C.3   220  MET220      0.0595
     63  SD         6.3980   18.3030   17.3570 S.3   220  MET220     -0.1393
     64  CE         6.0690   17.2680   15.9460 C.3   220  MET220      0.0692
     65  N          5.5230   25.6350   20.7580 N.3   234  PHE234     -0.1241
     66  CA         4.1840   25.5880   21.3290 C.3   234  PHE234      0.1605
     67  C          4.1550   24.8360   22.6610 C.2   234  PHE234      0.2264
     68  O          5.0660   24.0460   22.9620 O.2   234  PHE234     -0.2867
     69  CB         3.2250   24.8980   20.3460 C.3   234  PHE234      0.0534
     70  CG         3.5990   23.4790   20.0240 C.ar  234  PHE234     -0.0203
     71  CD1        3.1980   22.4550   20.8550 C.ar  234  PHE234     -0.0042
     72  CD2        4.3100   23.1700   18.8570 C.ar  234  PHE234     -0.0042
     73  CE1        3.5270   21.1140   20.5720 C.ar  234  PHE234     -0.0003
     74  CE2        4.6430   21.8720   18.5340 C.ar  234  PHE234     -0.0003
     75  CZ         4.2560   20.8110   19.3990 C.ar  234  PHE234     -0.0000
     76  N          1.1850   22.7980   25.5560 N.3   236  GLY236     -0.1210
     77  CA        -0.0090   22.5900   26.3430 C.3   236  GLY236      0.1956
     78  C          0.4370   22.4540   27.7900 C.2   236  GLY236      0.2612
     79  O          1.3580   23.1680   28.2560 O.2   236  GLY236     -0.2717
     80  N         -0.2180   21.5500   28.5280 N.am  237  TRP237     -0.1962
     81  CA         0.2630   21.1900   29.8640 C.3   237  TRP237      0.1771
     82  C          0.5390   19.6990   29.8490 C.2   237  TRP237      0.2620
     83  O          0.1790   19.0160   28.8930 O.2   237  TRP237     -0.2715
     84  CB        -0.8090   21.4950   30.9220 C.3   237  TRP237      0.0590
     85  CG        -2.1750   20.9790   30.5490 C.ar  237  TRP237      0.0006
     86  CD1       -2.6440   19.6640   30.6120 C.ar  237  TRP237      0.0946
     87  CD2       -3.2620   21.7700   30.0470 C.ar  237  TRP237      0.0152
     88  NE1       -3.9780   19.6240   30.1890 N.ar  237  TRP237     -0.2442
     89  CE2       -4.3670   20.9030   29.8480 C.ar  237  TRP237      0.0810
     90  CE3       -3.4110   23.1410   29.7550 C.ar  237  TRP237      0.0012
     91  CZ2       -5.5870   21.3480   29.3310 C.ar  237  TRP237      0.0191
     92  CZ3       -4.6290   23.5930   29.2740 C.ar  237  TRP237      0.0001
     93  CH2       -5.7150   22.7110   29.0740 C.ar  237  TRP237      0.0015
     94  N          1.2410   19.2090   30.8720 N.am  238  TYR238     -0.1960
     95  CA         1.6100   17.7880   30.8910 C.3   238  TYR238      0.1771
     96  C          0.4280   16.8600   31.1400 C.2   238  TYR238      0.2619
     97  O         -0.5000   17.1750   31.8970 O.2   238  TYR238     -0.2715
     98  CB         2.6000   17.5470   32.0310 C.3   238  TYR238      0.0574
     99  CG         4.0350   17.6980   31.5920 C.ar  238  TYR238     -0.0198
    100  CD1        4.5770   16.8000   30.6570 C.ar  238  TYR238     -0.0009
    101  CD2        4.8290   18.7270   32.1000 C.ar  238  TYR238     -0.0009
    102  CE1        5.8960   16.8950   30.2560 C.ar  238  TYR238      0.0417
    103  CE2        6.1760   18.8330   31.6890 C.ar  238  TYR238      0.0417
    104  CZ         6.6730   17.9260   30.7830 C.ar  238  TYR238      0.1957
    105  OH         7.9880   17.9990   30.3540 O.3   238  TYR238     -0.2866
    106  N          0.5090   15.6680   30.5570 N.am  239  MET239     -0.1977
    107  CA        -0.2390   14.5160   31.1020 C.3   239  MET239      0.1605
    108  C          0.7510   13.8420   32.0470 C.2   239  MET239      0.2287
    109  O          1.9560   13.7140   31.7280 O.2   239  MET239     -0.2864
    110  CB        -0.6460   13.5760   29.9840 C.3   239  MET239      0.0413
    111  CG        -1.5700   12.4480   30.4470 C.3   239  MET239      0.0598
    112  SD        -2.3810   11.5610   29.0830 S.3   239  MET239     -0.1393
    113  CE        -1.0560   10.4930   28.4240 C.3   239  MET239      0.0692
    114  N          3.6390   11.3740   31.2020 N.3   242  GLU242     -0.1245
    115  CA         4.8320   11.7540   30.4330 C.3   242  GLU242      0.1567
    116  C          6.0160   11.9170   31.3890 C.2   242  GLU242      0.2260
    117  O          7.1500   11.5850   31.0320 O.2   242  GLU242     -0.2867
    118  CB         4.5970   13.1320   29.7660 C.3   242  GLU242      0.0388
    119  CG         3.4770   13.0890   28.6760 C.3   242  GLU242      0.1160
    120  CD         3.3300   14.4720   28.0470 C.2   242  GLU242      0.3649
    121  OE1        4.2090   14.8150   27.1890 O.co2 242  GLU242     -0.2457
    122  OE2        2.4180   15.1900   28.4770 O.co2 242  GLU242     -0.2457
    123  N          7.6420    7.9070   32.0300 N.3   246  ARG246     -0.1245
    124  CA         8.6270    7.9320   30.9560 C.3   246  ARG246      0.1563
    125  C          9.8370    8.7530   31.3710 C.2   246  ARG246      0.2260
    126  O         10.9140    8.1950   31.5200 O.2   246  ARG246     -0.2867
    127  CB         8.0140    8.5070   29.6720 C.3   246  ARG246      0.0307
    128  CG         6.7400    7.7650   29.1620 C.3   246  ARG246      0.0489
    129  CD         7.0020    6.2520   28.8130 C.3   246  ARG246      0.2205
    130  NE         8.2330    6.0780   28.0390 N.pl3 246  ARG246     -0.0865
    131  CZ         8.3720    6.3680   26.7410 C.cat 246  ARG246      0.5346
    132  NH1        7.3330    6.8000   26.0170 N.pl3 246  ARG246      0.1354
    133  NH2        9.5760    6.2430   26.1840 N.pl3 246  ARG246      0.1354
    134  N         16.2440    7.0870   30.6130 N.3   253  ARG253     -0.1245
    135  CA        16.0590    8.4740   31.0630 C.3   253  ARG253      0.1563
    136  C         16.5390    8.5590   32.5310 C.2   253  ARG253      0.2260
    137  O         17.6680    8.1300   32.8150 O.2   253  ARG253     -0.2867
    138  CB        14.5850    8.9110   30.8760 C.3   253  ARG253      0.0307
    139  CG        14.1300    8.8900   29.3880 C.3   253  ARG253      0.0489
    140  CD        14.8220    9.9990   28.5360 C.3   253  ARG253      0.2205
    141  NE        14.5380   11.3680   29.0240 N.pl3 253  ARG253     -0.0865
    142  CZ        13.3780   11.9940   28.8890 C.cat 253  ARG253      0.5346
    143  NH1       12.3630   11.3520   28.3070 N.pl3 253  ARG253      0.1354
    144  NH2       13.2200   13.2610   29.3400 N.pl3 253  ARG253      0.1354
    145  N          0.5680    5.8610   19.9360 N.3   328  TRP328     -0.1241
    146  CA         0.9270    7.0000   20.8000 C.3   328  TRP328      0.1605
    147  C         -0.1860    7.5200   21.7070 C.2   328  TRP328      0.2264
    148  O          0.1050    8.1130   22.7700 O.2   328  TRP328     -0.2867
    149  CB         1.4880    8.1760   19.9470 C.3   328  TRP328      0.0550
    150  CG         2.9030    7.9380   19.5580 C.ar  328  TRP328      0.0003
    151  CD1        3.4060    6.8790   18.8520 C.ar  328  TRP328      0.0946
    152  CD2        4.0220    8.7600   19.9150 C.ar  328  TRP328      0.0152
    153  NE1        4.7980    7.0070   18.7130 N.ar  328  TRP328     -0.2442
    154  CE2        5.1800    8.1510   19.3690 C.ar  328  TRP328      0.0810
    155  CE3        4.1490    9.9630   20.6140 C.ar  328  TRP328      0.0012
    156  CZ2        6.4690    8.7070   19.5130 C.ar  328  TRP328      0.0191
    157  CZ3        5.4500   10.5220   20.7480 C.ar  328  TRP328      0.0001
    158  CH2        6.5780    9.8670   20.2010 C.ar  328  TRP328      0.0015
    159  N          8.3260   16.5290   12.7240 N.3   356  TYR356     -0.1241
    160  CA         9.7240   16.5050   13.1640 C.3   356  TYR356      0.1605
    161  C         10.6070   17.1040   12.0780 C.2   356  TYR356      0.2264
    162  O         10.2590   17.0950   10.9040 O.2   356  TYR356     -0.2867
    163  CB        10.1480   15.0410   13.3350 C.3   356  TYR356      0.0534
    164  CG         9.6080   14.3130   14.5520 C.ar  356  TYR356     -0.0201
    165  CD1        9.0920   14.9890   15.6550 C.ar  356  TYR356     -0.0009
    166  CD2        9.6850   12.9210   14.6010 C.ar  356  TYR356     -0.0009
    167  CE1        8.6100   14.2860   16.7680 C.ar  356  TYR356      0.0417
    168  CE2        9.2210   12.2160   15.6930 C.ar  356  TYR356      0.0417
    169  CZ         8.6940   12.8940   16.7650 C.ar  356  TYR356      0.1957
    170  OH         8.2560   12.1910   17.8700 O.3   356  TYR356     -0.2866
    171  N         17.8340   17.5510   13.5120 N.3   359  LYS359     -0.1245
    172  CA        18.5570   18.3480   14.5080 C.3   359  LYS359      0.1561
    173  C         19.7910   19.0120   13.8970 C.2   359  LYS359      0.2260
    174  O         20.6030   18.3480   13.2510 O.2   359  LYS359     -0.2867
    175  CB        19.0040   17.4590   15.6760 C.3   359  LYS359      0.0271
    176  CG        17.8630   17.0220   16.5930 C.3   359  LYS359      0.0035
    177  CD        18.3590   16.0470   17.6580 C.3   359  LYS359      0.0206
    178  CE        17.2250   15.6350   18.6110 C.3   359  LYS359      0.1093
    179  NZ        17.6250   14.4340   19.3910 N.3   359  LYS359     -0.1314
@<TRIPOS>BOND
     1   162   161    2
     2   161   160    1
     3   159   160    1
     4   160   163    1
     5   174   173    2
     6   163   164    1
     7   171   172    1
     8   173   172    1
     9    59    60    2
    10    59    58    1
    11   172   175    1
    12   164   166   ar
    13   164   165   ar
    14   166   168   ar
    15    58    61    1
    16    58    57    1
    17   165   167   ar
    18   175   176    1
    19   168   169   ar
    20    61    62    1
    21    64    63    1
    22   176   177    1
    23    62    63    1
    24   169   167   ar
    25   169   170    1
    26   177   178    1
    27    74    72   ar
    28    74    75   ar
    29   178   179    1
    30   153   151   ar
    31   153   154   ar
    32   151   150   ar
    33    72    70   ar
    34   154   156   ar
    35   154   152   ar
    36    75    73   ar
    37     1     2    1
    38   156   158   ar
    39   150   152   ar
    40   150   149    1
    41   152   155   ar
    42   145   146    1
    43   149   146    1
    44    70    69    1
    45    70    71   ar
    46     5     2    1
    47     5     6    1
    48   158   157   ar
    49    69    66    1
    50    55    53    1
    51     4     3    2
    52    73    71   ar
    53   155   157   ar
    54     2     3    1
    55    52    51    2
    56    65    66    1
    57   146   147    1
    58    51    50    1
    59    66    67    1
    60    13    15   ar
    61    13    12   ar
    62   147   148    2
    63    53    50    1
    64    53    54    1
    65    15    16   ar
    66     8     7    1
    67     8    11    1
    68     8     9    1
    69    10     9    2
    70    50    49    1
    71    11    12    1
    72    12    14   ar
    73    67    68    2
    74     9    17   am
    75    54    56    1
    76    16    14   ar
    77    17    18    1
    78    40    39    2
    79    18    19    1
    80    18    21    1
    81    22    21    1
    82    22    23    1
    83    19    20    2
    84    76    77    1
    85    39    38    1
    86   132   131    1
    87    25    23   am
    88   133   131    1
    89    38    41    1
    90    38    37    1
    91    77    78    1
    92    23    24    2
    93    45    44    2
    94    36    34    1
    95   131   130    2
    96    44    43    1
    97   121   120   ar
    98    33    34    2
    99    33    32    1
   100    34    35    1
   101    78    79    2
   102    78    80   am
   103    31    32    1
   104    31    30    1
   105   130   129    1
   106   120   122   ar
   107   120   119    1
   108    46    43    1
   109    46    47    1
   110    30    27    1
   111   143   142    1
   112    43    42    1
   113   113   112    1
   114    80    81    1
   115   140   141    1
   116   140   139    1
   117   119   118    1
   118    47    48    1
   119   129   128    1
   120   142   141    2
   121   142   144    1
   122    83    82    2
   123    93    92   ar
   124    93    91   ar
   125   112   111    1
   126   128   127    1
   127    92    90   ar
   128    91    89   ar
   129   139   138    1
   130    42    48    1
   131    27    26    1
   132    27    28    1
   133   127   124    1
   134    90    87   ar
   135   118   115    1
   136    89    87   ar
   137    89    88   ar
   138    82    81    1
   139    82    94   am
   140    81    84    1
   141   110   111    1
   142   110   107    1
   143    87    85   ar
   144    88    86   ar
   145   102   100   ar
   146   102   104   ar
   147   105   104    1
   148    28    29    2
   149   115   114    1
   150   115   116    1
   151    85    86   ar
   152    85    84    1
   153   106   107    1
   154   106    96   am
   155   134   135    1
   156   100    99   ar
   157   104   103   ar
   158    94    95    1
   159   138   135    1
   160    95    96    1
   161    95    98    1
   162   124   125    1
   163   124   123    1
   164   117   116    2
   165   135   136    1
   166   107   108    1
   167    96    97    2
   168   125   126    2
   169    99    98    1
   170    99   101   ar
   171   103   101   ar
   172   109   108    2
   173   136   137    2
