@<TRIPOS>MOLECULE
tmp/5g69A02.pdb
 164 158 0 0 0
SMALL
GASTEIGER

@<TRIPOS>ATOM
      1  N         -1.5380   13.1520   19.4600 N.3    65  CYS65      -0.1235
      2  CA        -1.9130   13.9810   20.6040 C.3    65  CYS65       0.1677
      3  C         -3.2700   13.6240   21.2050 C.2    65  CYS65       0.2270
      4  O         -4.2920   13.6570   20.5170 O.2    65  CYS65      -0.2867
      5  CB        -1.9160   15.4560   20.2100 C.3    65  CYS65       0.0956
      6  SG        -2.5120   16.5230   21.5250 S.3    65  CYS65      -0.0801
      7  N         14.9580   21.4040   22.2050 N.3   127  HIS127     -0.1226
      8  CA        13.7880   20.5640   21.9970 C.3   127  HIS127      0.1752
      9  C         12.6050   21.2000   22.7150 C.2   127  HIS127      0.2595
     10  O         11.5080   21.2960   22.1660 O.2   127  HIS127     -0.2718
     11  CB        14.0130   19.1500   22.5240 C.3   127  HIS127      0.0759
     12  CG        12.7530   18.3440   22.6150 C.ar  127  HIS127      0.0818
     13  ND1       11.8900   18.1940   21.5490 N.ar  127  HIS127     -0.2268
     14  CD2       12.1970   17.6690   23.6460 C.ar  127  HIS127      0.1154
     15  CE1       10.8630   17.4490   21.9170 C.ar  127  HIS127      0.1986
     16  NE2       11.0220   17.1180   23.1860 N.ar  127  HIS127     -0.2212
     17  N         12.8410   21.6310   23.9510 N.am  128  GLN128     -0.1979
     18  CA        11.8590   22.3990   24.7070 C.3   128  GLN128      0.1601
     19  C         12.5350   23.6300   25.3010 C.2   128  GLN128      0.2287
     20  O         13.7290   23.5930   25.6040 O.2   128  GLN128     -0.2864
     21  CB        11.2240   21.5400   25.8060 C.3   128  GLN128      0.0394
     22  CG        10.3500   20.4070   25.2660 C.3   128  GLN128      0.0908
     23  CD         9.7930   19.5030   26.3530 C.2   128  GLN128      0.2608
     24  OE1        9.4650   19.9530   27.4500 O.2   128  GLN128     -0.2717
     25  NE2        9.6830   18.2150   26.0460 N.am  128  GLN128     -0.0878
     26  N         14.1670   22.6510   29.7270 N.3   131  ARG131     -0.1245
     27  CA        14.6000   21.2620   29.6550 C.3   131  ARG131      0.1563
     28  C         15.8770   21.1320   30.4840 C.2   131  ARG131      0.2260
     29  O         16.6380   22.0940   30.6010 O.2   131  ARG131     -0.2867
     30  CB        14.8780   20.8920   28.1940 C.3   131  ARG131      0.0307
     31  CG        15.0690   19.4040   27.9110 C.3   131  ARG131      0.0489
     32  CD        13.7660   18.6550   28.0270 C.3   131  ARG131      0.2205
     33  NE        13.7680   17.4180   27.2460 N.pl3 131  ARG131     -0.0865
     34  CZ        12.8390   16.4740   27.3540 C.cat 131  ARG131      0.5346
     35  NH1       11.8450   16.6240   28.2210 N.pl3 131  ARG131      0.1354
     36  NH2       12.9070   15.3750   26.6080 N.pl3 131  ARG131      0.1354
     37  N         18.5270   12.2870   27.5570 N.3   146  ALA146     -0.1245
     38  CA        17.9410   12.7340   26.2940 C.3   146  ALA146      0.1562
     39  C         18.4900   14.0930   25.8450 C.2   146  ALA146      0.2260
     40  O         18.2870   14.5020   24.6990 O.2   146  ALA146     -0.2867
     41  CB        16.4260   12.7890   26.4050 C.3   146  ALA146      0.0290
     42  N          5.7440   22.1380   29.4820 N.3   215  PRO215     -0.2116
     43  CA         6.4490   21.5850   28.3200 C.3   215  PRO215      0.1372
     44  C          6.2440   22.4700   27.0890 C.2   215  PRO215      0.2244
     45  O          5.1340   22.5380   26.5630 O.2   215  PRO215     -0.2868
     46  CB         5.7810   20.2170   28.1260 C.3   215  PRO215      0.0268
     47  CG         4.3930   20.3870   28.6700 C.3   215  PRO215      0.0207
     48  CD         4.4720   21.4400   29.7550 C.3   215  PRO215      0.0892
     49  N          7.4640   22.7300   23.4720 N.3   217  ILE217     -0.1245
     50  CA         8.1960   22.0800   22.3830 C.3   217  ILE217      0.1561
     51  C          8.5840   23.0960   21.3110 C.2   217  ILE217      0.2260
     52  O          7.7300   23.8220   20.7960 O.2   217  ILE217     -0.2867
     53  CB         7.3880   20.9200   21.7700 C.3   217  ILE217      0.0252
     54  CG1        7.4100   19.7030   22.7030 C.3   217  ILE217      0.0019
     55  CG2        7.9580   20.5250   20.4100 C.3   217  ILE217      0.0019
     56  CD1        6.5700   19.8520   23.9650 C.3   217  ILE217      0.0001
     57  N          9.8020   21.5420   16.4410 N.3   220  MET220     -0.1245
     58  CA         8.9330   21.0000   15.4000 C.3   220  MET220      0.1570
     59  C          8.5640   22.0740   14.3780 C.2   220  MET220      0.2261
     60  O          8.4680   23.2590   14.7130 O.2   220  MET220     -0.2867
     61  CB         7.6660   20.3840   16.0060 C.3   220  MET220      0.0387
     62  CG         7.9270   19.1760   16.8910 C.3   220  MET220      0.0595
     63  SD         6.4100   18.3350   17.4060 S.3   220  MET220     -0.1393
     64  CE         5.9640   17.4920   15.8890 C.3   220  MET220      0.0692
     65  N          5.4090   25.7730   20.8750 N.3   234  PHE234     -0.1241
     66  CA         4.0590   25.6590   21.4130 C.3   234  PHE234      0.1605
     67  C          4.0580   24.8580   22.7120 C.2   234  PHE234      0.2264
     68  O          4.9960   24.1010   22.9810 O.2   234  PHE234     -0.2867
     69  CB         3.1330   24.9950   20.3900 C.3   234  PHE234      0.0534
     70  CG         3.5300   23.5840   20.0290 C.ar  234  PHE234     -0.0203
     71  CD1        3.1980   22.5160   20.8540 C.ar  234  PHE234     -0.0042
     72  CD2        4.2230   23.3280   18.8560 C.ar  234  PHE234     -0.0042
     73  CE1        3.5530   21.2200   20.5190 C.ar  234  PHE234     -0.0003
     74  CE2        4.5860   22.0380   18.5150 C.ar  234  PHE234     -0.0003
     75  CZ         4.2500   20.9810   19.3470 C.ar  234  PHE234     -0.0000
     76  N          1.2480   22.8120   25.7990 N.3   236  GLY236     -0.1210
     77  CA         0.0040   22.5300   26.4880 C.3   236  GLY236      0.1956
     78  C          0.3580   22.4350   27.9590 C.2   236  GLY236      0.2612
     79  O          1.3250   23.0630   28.4070 O.2   236  GLY236     -0.2717
     80  N         -0.4250   21.6700   28.7130 N.am  237  TRP237     -0.1962
     81  CA        -0.0320   21.2740   30.0610 C.3   237  TRP237      0.1771
     82  C          0.3040   19.7880   30.0270 C.2   237  TRP237      0.2620
     83  O         -0.0570   19.0910   29.0770 O.2   237  TRP237     -0.2715
     84  CB        -1.1480   21.5550   31.0660 C.3   237  TRP237      0.0590
     85  CG        -2.4650   21.0160   30.6340 C.ar  237  TRP237      0.0006
     86  CD1       -2.8800   19.7160   30.6870 C.ar  237  TRP237      0.0946
     87  CD2       -3.5490   21.7650   30.0800 C.ar  237  TRP237      0.0152
     88  NE1       -4.1610   19.6120   30.1950 N.ar  237  TRP237     -0.2442
     89  CE2       -4.5920   20.8570   29.8180 C.ar  237  TRP237      0.0810
     90  CE3       -3.7370   23.1180   29.7810 C.ar  237  TRP237      0.0012
     91  CZ2       -5.8060   21.2600   29.2650 C.ar  237  TRP237      0.0191
     92  CZ3       -4.9390   23.5150   29.2360 C.ar  237  TRP237      0.0001
     93  CH2       -5.9600   22.5910   28.9840 C.ar  237  TRP237      0.0015
     94  N          1.0020   19.3000   31.0480 N.am  238  TYR238     -0.1960
     95  CA         1.4300   17.9030   31.0710 C.3   238  TYR238      0.1771
     96  C          0.2860   16.9250   31.3320 C.2   238  TYR238      0.2619
     97  O         -0.6670   17.2430   32.0470 O.2   238  TYR238     -0.2715
     98  CB         2.4900   17.6990   32.1540 C.3   238  TYR238      0.0574
     99  CG         3.9220   17.8000   31.6720 C.ar  238  TYR238     -0.0198
    100  CD1        4.4400   16.8760   30.7730 C.ar  238  TYR238     -0.0009
    101  CD2        4.7650   18.7970   32.1450 C.ar  238  TYR238     -0.0009
    102  CE1        5.7550   16.9560   30.3400 C.ar  238  TYR238      0.0417
    103  CE2        6.0840   18.8810   31.7230 C.ar  238  TYR238      0.0417
    104  CZ         6.5710   17.9580   30.8240 C.ar  238  TYR238      0.1957
    105  OH         7.8820   18.0450   30.3960 O.3   238  TYR238     -0.2866
    106  N          0.3840   15.7370   30.7430 N.am  239  MET239     -0.1977
    107  CA        -0.3540   14.5870   31.2480 C.3   239  MET239      0.1605
    108  C          0.6250   13.9010   32.1920 C.2   239  MET239      0.2287
    109  O          1.8040   13.7620   31.8590 O.2   239  MET239     -0.2864
    110  CB        -0.7720   13.6490   30.1150 C.3   239  MET239      0.0413
    111  CG        -1.6300   12.4750   30.5710 C.3   239  MET239      0.0598
    112  SD        -2.4530   11.6260   29.2070 S.3   239  MET239     -0.1393
    113  CE        -1.0830   10.7240   28.4810 C.3   239  MET239      0.0692
    114  N          3.5380   11.3670   31.3690 N.3   242  GLU242     -0.1245
    115  CA         4.7110   11.8140   30.6250 C.3   242  GLU242      0.1567
    116  C          5.8960   11.9830   31.5620 C.2   242  GLU242      0.2260
    117  O          7.0380   11.7270   31.1890 O.2   242  GLU242     -0.2867
    118  CB         4.4400   13.1480   29.9330 C.3   242  GLU242      0.0388
    119  CG         3.3300   13.1240   28.8980 C.3   242  GLU242      0.1160
    120  CD         3.1670   14.4750   28.2350 C.2   242  GLU242      0.3649
    121  OE1        4.0560   14.8470   27.4430 O.co2 242  GLU242     -0.2457
    122  OE2        2.1630   15.1690   28.5130 O.co2 242  GLU242     -0.2457
    123  N          9.5860   10.1390   31.7020 N.3   247  ASN247     -0.1240
    124  CA        10.7070   11.0310   32.0060 C.3   247  ASN247      0.1653
    125  C         11.5000   10.6080   33.2420 C.2   247  ASN247      0.2266
    126  O         12.7310   10.6240   33.2390 O.2   247  ASN247     -0.2867
    127  CB        10.2220   12.4820   32.1670 C.3   247  ASN247      0.1155
    128  CG         9.6230   13.0490   30.8870 C.2   247  ASN247      0.2627
    129  OD1        9.7220   12.4430   29.8220 O.2   247  ASN247     -0.2716
    130  ND2        9.0020   14.2220   30.9890 N.am  247  ASN247     -0.0877
    131  N         16.2350    7.3230   30.6840 N.3   253  ARG253     -0.1245
    132  CA        16.0300    8.6720   31.2110 C.3   253  ARG253      0.1563
    133  C         16.5150    8.7300   32.6590 C.2   253  ARG253      0.2260
    134  O         17.6660    8.3960   32.9340 O.2   253  ARG253     -0.2867
    135  CB        14.5610    9.0900   31.1090 C.3   253  ARG253      0.0307
    136  CG        14.0020    9.0770   29.6910 C.3   253  ARG253      0.0489
    137  CD        14.6770   10.1090   28.7810 C.3   253  ARG253      0.2205
    138  NE        14.4400   11.4920   29.2020 N.pl3 253  ARG253     -0.0865
    139  CZ        13.2820   12.1350   29.0590 C.cat 253  ARG253      0.5346
    140  NH1       12.2360   11.5190   28.5190 N.pl3 253  ARG253      0.1354
    141  NH2       13.1620   13.3970   29.4640 N.pl3 253  ARG253      0.1354
    142  N          0.6790    5.8790   20.0310 N.3   328  TRP328     -0.1241
    143  CA         1.0430    7.0380   20.8440 C.3   328  TRP328      0.1605
    144  C         -0.0990    7.5420   21.7220 C.2   328  TRP328      0.2264
    145  O          0.1390    8.1600   22.7610 O.2   328  TRP328     -0.2867
    146  CB         1.5600    8.1800   19.9580 C.3   328  TRP328      0.0550
    147  CG         3.0150    8.0640   19.6410 C.ar  328  TRP328      0.0003
    148  CD1        3.6230    7.0610   18.9430 C.ar  328  TRP328      0.0946
    149  CD2        4.0510    8.9830   20.0080 C.ar  328  TRP328      0.0152
    150  NE1        4.9740    7.2970   18.8560 N.ar  328  TRP328     -0.2442
    151  CE2        5.2620    8.4710   19.5010 C.ar  328  TRP328      0.0810
    152  CE3        4.0710   10.1900   20.7140 C.ar  328  TRP328      0.0012
    153  CZ2        6.4840    9.1260   19.6790 C.ar  328  TRP328      0.0191
    154  CZ3        5.2850   10.8380   20.8900 C.ar  328  TRP328      0.0001
    155  CH2        6.4740   10.3030   20.3750 C.ar  328  TRP328      0.0015
    156  N         17.9610   17.7080   13.4340 N.3   359  LYS359     -0.1245
    157  CA        18.6640   18.4650   14.4630 C.3   359  LYS359      0.1561
    158  C         19.9250   19.0940   13.8710 C.2   359  LYS359      0.2260
    159  O         20.6940   18.4160   13.1890 O.2   359  LYS359     -0.2867
    160  CB        19.0190   17.5600   15.6480 C.3   359  LYS359      0.0271
    161  CG        17.8160   17.1470   16.4970 C.3   359  LYS359      0.0035
    162  CD        18.1930   16.1120   17.5540 C.3   359  LYS359      0.0206
    163  CE        17.0260   15.8230   18.4960 C.3   359  LYS359      0.1093
    164  NZ        15.8050   15.3780   17.7680 N.3   359  LYS359     -0.1314
@<TRIPOS>BOND
     1   159   158    2
     2   156   157    1
     3   158   157    1
     4    59    60    2
     5    59    58    1
     6   157   160    1
     7    58    61    1
     8    58    57    1
     9   160   161    1
    10    64    63    1
    11    61    62    1
    12   161   162    1
    13    62    63    1
    14   162   163    1
    15   164   163    1
    16    74    72   ar
    17    74    75   ar
    18    72    70   ar
    19   150   148   ar
    20   150   151   ar
    21   148   147   ar
    22    75    73   ar
    23     1     2    1
    24   151   153   ar
    25   151   149   ar
    26   147   146    1
    27   147   149   ar
    28   153   155   ar
    29   146   143    1
    30   149   152   ar
    31    70    69    1
    32    70    71   ar
    33   142   143    1
    34     5     2    1
    35     5     6    1
    36   155   154   ar
    37    69    66    1
    38    55    53    1
    39     4     3    2
    40    73    71   ar
    41     2     3    1
    42   152   154   ar
    43    52    51    2
    44   143   144    1
    45    65    66    1
    46    51    50    1
    47    66    67    1
    48    13    15   ar
    49    13    12   ar
    50   144   145    2
    51    53    50    1
    52    53    54    1
    53    15    16   ar
    54     8     7    1
    55     8    11    1
    56     8     9    1
    57    10     9    2
    58    50    49    1
    59    11    12    1
    60    12    14   ar
    61    54    56    1
    62    67    68    2
    63     9    17   am
    64    16    14   ar
    65    17    18    1
    66    40    39    2
    67    18    19    1
    68    18    21    1
    69    22    21    1
    70    22    23    1
    71    19    20    2
    72    76    77    1
    73    39    38    1
    74    25    23   am
    75    38    41    1
    76    38    37    1
    77    23    24    2
    78    77    78    1
    79    45    44    2
    80    36    34    1
    81    44    43    1
    82    33    34    2
    83    33    32    1
    84    34    35    1
    85   121   120   ar
    86    31    32    1
    87    31    30    1
    88    78    79    2
    89    78    80   am
    90    46    43    1
    91    46    47    1
    92    30    27    1
    93   120   122   ar
    94   120   119    1
    95    43    42    1
    96   113   112    1
    97   140   139    1
    98    47    48    1
    99    80    81    1
   100   137   138    1
   101   137   136    1
   102   119   118    1
   103    93    92   ar
   104    93    91   ar
   105   139   138    2
   106   139   141    1
   107    83    82    2
   108   112   111    1
   109    92    90   ar
   110    91    89   ar
   111    42    48    1
   112    27    26    1
   113    27    28    1
   114   136   135    1
   115    90    87   ar
   116    89    87   ar
   117    89    88   ar
   118   129   128    2
   119   118   115    1
   120    82    81    1
   121    82    94   am
   122    81    84    1
   123    87    85   ar
   124   110   111    1
   125   110   107    1
   126    88    86   ar
   127   102   100   ar
   128   102   104   ar
   129   105   104    1
   130    28    29    2
   131   115   114    1
   132   115   116    1
   133    85    86   ar
   134    85    84    1
   135   131   132    1
   136   106   107    1
   137   106    96   am
   138   100    99   ar
   139   104   103   ar
   140   128   130   am
   141   128   127    1
   142    94    95    1
   143    95    96    1
   144    95    98    1
   145   135   132    1
   146   117   116    2
   147   132   133    1
   148   107   108    1
   149    96    97    2
   150    99   101   ar
   151    99    98    1
   152   123   124    1
   153   103   101   ar
   154   109   108    2
   155   124   127    1
   156   124   125    1
   157   133   134    2
   158   126   125    2
