@<TRIPOS>MOLECULE
tmp/5g6cA02.pdb
 175 171 0 0 0
SMALL
GASTEIGER

@<TRIPOS>ATOM
      1  N         -1.6470   13.1560   18.7670 N.3    65  CYS65      -0.1235
      2  CA        -2.0160   13.9840   19.9110 C.3    65  CYS65       0.1677
      3  C         -3.3650   13.6280   20.5320 C.2    65  CYS65       0.2270
      4  O         -4.4010   13.6910   19.8720 O.2    65  CYS65      -0.2867
      5  CB        -2.0010   15.4620   19.5280 C.3    65  CYS65       0.0956
      6  SG        -2.5590   16.5240   20.8550 S.3    65  CYS65      -0.0801
      7  N         14.9880   21.3870   21.5890 N.3   127  HIS127     -0.1226
      8  CA        13.8800   20.4740   21.3500 C.3   127  HIS127      0.1752
      9  C         12.6500   21.0390   22.0440 C.2   127  HIS127      0.2595
     10  O         11.5700   21.1140   21.4650 O.2   127  HIS127     -0.2718
     11  CB        14.1780   19.0710   21.8740 C.3   127  HIS127      0.0759
     12  CG        12.9460   18.2240   22.0220 C.ar  127  HIS127      0.0818
     13  ND1       12.1550   17.8850   20.9500 N.ar  127  HIS127     -0.2268
     14  CD2       12.3590   17.6980   23.1190 C.ar  127  HIS127      0.1154
     15  CE1       11.1330   17.1580   21.3810 C.ar  127  HIS127      0.1986
     16  NE2       11.2290   17.0330   22.6860 N.ar  127  HIS127     -0.2212
     17  N         12.8270   21.4270   23.3000 N.am  128  GLN128     -0.1979
     18  CA        11.8410   22.2330   23.9970 C.3   128  GLN128      0.1601
     19  C         12.5300   23.4820   24.5470 C.2   128  GLN128      0.2287
     20  O         13.7220   23.4520   24.8610 O.2   128  GLN128     -0.2864
     21  CB        11.1640   21.4390   25.1140 C.3   128  GLN128      0.0394
     22  CG        10.1710   20.3810   24.6050 C.3   128  GLN128      0.0908
     23  CD         9.7030   19.4340   25.6930 C.2   128  GLN128      0.2608
     24  OE1        9.4580   19.8420   26.8290 O.2   128  GLN128     -0.2717
     25  NE2        9.5800   18.1560   25.3510 N.am  128  GLN128     -0.0878
     26  N         14.2320   22.4830   28.8540 N.3   131  ARG131     -0.1245
     27  CA        14.6870   21.1020   28.8260 C.3   131  ARG131      0.1563
     28  C         15.9500   20.9920   29.6800 C.2   131  ARG131      0.2260
     29  O         16.7280   21.9440   29.7680 O.2   131  ARG131     -0.2867
     30  CB        14.9880   20.6830   27.3830 C.3   131  ARG131      0.0307
     31  CG        15.1050   19.1810   27.1500 C.3   131  ARG131      0.0489
     32  CD        13.7480   18.4930   27.2710 C.3   131  ARG131      0.2205
     33  NE        13.7680   17.1630   26.6670 N.pl3 131  ARG131     -0.0865
     34  CZ        12.7780   16.2800   26.7640 C.cat 131  ARG131      0.5346
     35  NH1       11.6810   16.5840   27.4490 N.pl3 131  ARG131      0.1354
     36  NH2       12.8880   15.0900   26.1820 N.pl3 131  ARG131      0.1354
     37  N         18.6100   12.1410   26.8250 N.3   146  ALA146     -0.1245
     38  CA        18.0240   12.6010   25.5750 C.3   146  ALA146      0.1562
     39  C         18.6050   13.9500   25.1600 C.2   146  ALA146      0.2260
     40  O         18.5350   14.3320   23.9930 O.2   146  ALA146     -0.2867
     41  CB        16.5140   12.6890   25.6970 C.3   146  ALA146      0.0290
     42  N          5.8000   21.9970   28.7880 N.3   215  PRO215     -0.2116
     43  CA         6.4800   21.4100   27.6320 C.3   215  PRO215      0.1372
     44  C          6.2320   22.2580   26.3880 C.2   215  PRO215      0.2244
     45  O          5.1000   22.3730   25.9200 O.2   215  PRO215     -0.2868
     46  CB         5.8160   20.0360   27.5020 C.3   215  PRO215      0.0268
     47  CG         4.4160   20.2440   28.0280 C.3   215  PRO215      0.0207
     48  CD         4.4900   21.3690   29.0470 C.3   215  PRO215      0.0892
     49  N          7.4450   22.3960   22.7480 N.3   217  VAL217     -0.1245
     50  CA         8.1770   21.7900   21.6400 C.3   217  VAL217      0.1561
     51  C          8.5490   22.8350   20.5870 C.2   217  VAL217      0.2260
     52  O          7.6840   23.5360   20.0570 O.2   217  VAL217     -0.2867
     53  CB         7.3760   20.6290   21.0190 C.3   217  VAL217      0.0252
     54  CG1        8.0870   20.0710   19.7970 C.3   217  VAL217      0.0019
     55  CG2        7.1730   19.5420   22.0510 C.3   217  VAL217      0.0019
     56  N          9.7620   21.5420   15.6740 N.3   220  MET220     -0.1245
     57  CA         8.8670   21.0200   14.6420 C.3   220  MET220      0.1570
     58  C          8.4570   22.0910   13.6370 C.2   220  MET220      0.2261
     59  O          8.3500   23.2690   13.9780 O.2   220  MET220     -0.2867
     60  CB         7.6220   20.3720   15.2600 C.3   220  MET220      0.0387
     61  CG         7.9130   19.1870   16.1710 C.3   220  MET220      0.0595
     62  SD         6.4270   18.2540   16.6090 S.3   220  MET220     -0.1393
     63  CE         6.1680   17.3420   15.0930 C.3   220  MET220      0.0692
     64  N          5.3510   25.5420   20.1230 N.3   234  PHE234     -0.1227
     65  CA         4.0090   25.4240   20.6860 C.3   234  PHE234      0.1736
     66  C          4.0160   24.6550   21.9990 C.2   234  PHE234      0.2595
     67  O          4.9490   23.8980   22.2810 O.2   234  PHE234     -0.2718
     68  CB         3.0620   24.7580   19.6890 C.3   234  PHE234      0.0547
     69  CG         3.5180   23.3970   19.2260 C.ar  234  PHE234     -0.0202
     70  CD1        3.2310   22.2600   19.9710 C.ar  234  PHE234     -0.0042
     71  CD2        4.2210   23.2540   18.0390 C.ar  234  PHE234     -0.0042
     72  CE1        3.6400   21.0040   19.5410 C.ar  234  PHE234     -0.0003
     73  CE2        4.6330   22.0010   17.6040 C.ar  234  PHE234     -0.0003
     74  CZ         4.3410   20.8750   18.3570 C.ar  234  PHE234     -0.0000
     75  N          2.9640   24.8410   22.7900 N.am  235  ASN235     -0.1960
     76  CA         2.8480   24.1490   24.0620 C.3   235  ASN235      0.1819
     77  C          1.4080   23.8100   24.4120 C.2   235  ASN235      0.2622
     78  O          0.4750   24.4860   23.9830 O.2   235  ASN235     -0.2715
     79  CB         3.4350   24.9980   25.1840 C.3   235  ASN235      0.1195
     80  CG         2.5530   26.1820   25.5340 C.2   235  ASN235      0.2630
     81  OD1        2.4830   27.1550   24.7860 O.2   235  ASN235     -0.2716
     82  ND2        1.8680   26.1010   26.6690 N.am  235  ASN235     -0.0877
     83  N          1.2410   22.7480   25.1900 N.am  236  GLY236     -0.1940
     84  CA        -0.0130   22.4740   25.8610 C.3   236  GLY236      0.2014
     85  C          0.3440   22.3610   27.3270 C.2   236  GLY236      0.2639
     86  O          1.3490   22.9350   27.7690 O.2   236  GLY236     -0.2714
     87  N         -0.4660   21.6330   28.0860 N.am  237  TRP237     -0.1959
     88  CA        -0.0520   21.2070   29.4170 C.3   237  TRP237      0.1771
     89  C          0.2840   19.7260   29.3580 C.2   237  TRP237      0.2620
     90  O         -0.0100   19.0630   28.3700 O.2   237  TRP237     -0.2715
     91  CB        -1.1350   21.4760   30.4570 C.3   237  TRP237      0.0590
     92  CG        -2.4760   20.9730   30.0540 C.ar  237  TRP237      0.0006
     93  CD1       -2.9130   19.6830   30.0900 C.ar  237  TRP237      0.0946
     94  CD2       -3.5650   21.7550   29.5500 C.ar  237  TRP237      0.0152
     95  NE1       -4.2100   19.6100   29.6390 N.ar  237  TRP237     -0.2442
     96  CE2       -4.6340   20.8690   29.3040 C.ar  237  TRP237      0.0810
     97  CE3       -3.7420   23.1180   29.2920 C.ar  237  TRP237      0.0012
     98  CZ2       -5.8590   21.3010   28.8050 C.ar  237  TRP237      0.0191
     99  CZ3       -4.9610   23.5450   28.7970 C.ar  237  TRP237      0.0001
    100  CH2       -6.0020   22.6400   28.5590 C.ar  237  TRP237      0.0015
    101  N          0.9140   19.2170   30.4090 N.am  238  TYR238     -0.1960
    102  CA         1.3740   17.8350   30.4290 C.3   238  TYR238      0.1771
    103  C          0.2440   16.8490   30.7230 C.2   238  TYR238      0.2619
    104  O         -0.6910   17.1470   31.4690 O.2   238  TYR238     -0.2715
    105  CB         2.4540   17.6600   31.4960 C.3   238  TYR238      0.0574
    106  CG         3.8900   17.7710   31.0100 C.ar  238  TYR238     -0.0198
    107  CD1        4.4230   16.8280   30.1360 C.ar  238  TYR238     -0.0009
    108  CD2        4.7240   18.7870   31.4620 C.ar  238  TYR238     -0.0009
    109  CE1        5.7340   16.9080   29.7030 C.ar  238  TYR238      0.0417
    110  CE2        6.0480   18.8760   31.0340 C.ar  238  TYR238      0.0417
    111  CZ         6.5440   17.9300   30.1550 C.ar  238  TYR238      0.1957
    112  OH         7.8490   17.9960   29.7170 O.3   238  TYR238     -0.2866
    113  N          0.3340   15.6710   30.1190 N.am  239  MET239     -0.1977
    114  CA        -0.3680   14.5060   30.6280 C.3   239  MET239      0.1605
    115  C          0.6270   13.8480   31.5670 C.2   239  MET239      0.2287
    116  O          1.7880   13.6800   31.2060 O.2   239  MET239     -0.2864
    117  CB        -0.7510   13.5660   29.4900 C.3   239  MET239      0.0413
    118  CG        -1.6330   12.3950   29.9230 C.3   239  MET239      0.0598
    119  SD        -2.4810   11.6070   28.5440 S.3   239  MET239     -0.1393
    120  CE        -1.1400   10.7590   27.7230 C.3   239  MET239      0.0692
    121  N          3.5070   11.3920   30.6390 N.3   242  GLU242     -0.1245
    122  CA         4.6690   11.8670   29.8960 C.3   242  GLU242      0.1567
    123  C          5.8680   12.0140   30.8180 C.2   242  GLU242      0.2260
    124  O          7.0050   11.7480   30.4280 O.2   242  GLU242     -0.2867
    125  CB         4.3710   13.2000   29.2190 C.3   242  GLU242      0.0388
    126  CG         3.3450   13.1030   28.1110 C.3   242  GLU242      0.1160
    127  CD         3.1250   14.4370   27.4270 C.2   242  GLU242      0.3649
    128  OE1        3.8620   14.7340   26.4630 O.co2 242  GLU242     -0.2457
    129  OE2        2.2220   15.1830   27.8570 O.co2 242  GLU242     -0.2457
    130  N         16.2620    7.2860   29.9340 N.3   253  ARG253     -0.1245
    131  CA        16.0590    8.6290   30.4550 C.3   253  ARG253      0.1563
    132  C         16.5250    8.6600   31.9020 C.2   253  ARG253      0.2260
    133  O         17.6600    8.3040   32.1890 O.2   253  ARG253     -0.2867
    134  CB        14.5910    9.0430   30.3420 C.3   253  ARG253      0.0307
    135  CG        14.0430    9.0150   28.9200 C.3   253  ARG253      0.0489
    136  CD        14.7150   10.0400   28.0070 C.3   253  ARG253      0.2205
    137  NE        14.4700   11.4240   28.4120 N.pl3 253  ARG253     -0.0865
    138  CZ        13.2900   12.0420   28.3290 C.cat 253  ARG253      0.5346
    139  NH1       12.2130   11.4020   27.8680 N.pl3 253  ARG253      0.1354
    140  NH2       13.1830   13.3100   28.7190 N.pl3 253  ARG253      0.1354
    141  N          0.5970    5.9110   19.3670 N.3   328  TRP328     -0.1241
    142  CA         0.9690    7.0780   20.1620 C.3   328  TRP328      0.1605
    143  C         -0.1780    7.5900   21.0270 C.2   328  TRP328      0.2264
    144  O          0.0510    8.2540   22.0440 O.2   328  TRP328     -0.2867
    145  CB         1.4900    8.2070   19.2660 C.3   328  TRP328      0.0550
    146  CG         2.9390    8.0680   18.9190 C.ar  328  TRP328      0.0003
    147  CD1        3.5310    7.0230   18.2680 C.ar  328  TRP328      0.0946
    148  CD2        3.9820    9.0120   19.1990 C.ar  328  TRP328      0.0152
    149  NE1        4.8810    7.2550   18.1340 N.ar  328  TRP328     -0.2442
    150  CE2        5.1810    8.4710   18.6910 C.ar  328  TRP328      0.0810
    151  CE3        4.0160   10.2630   19.8250 C.ar  328  TRP328      0.0012
    152  CZ2        6.4030    9.1350   18.7940 C.ar  328  TRP328      0.0191
    153  CZ3        5.2320   10.9210   19.9290 C.ar  328  TRP328      0.0001
    154  CH2        6.4090   10.3550   19.4140 C.ar  328  TRP328      0.0015
    155  N          8.2630   16.6960   11.7020 N.3   356  TYR356     -0.1241
    156  CA         9.6630   16.5950   12.0770 C.3   356  TYR356      0.1605
    157  C         10.5080   17.2540   11.0080 C.2   356  TYR356      0.2264
    158  O         10.1440   17.2620    9.8320 O.2   356  TYR356     -0.2867
    159  CB        10.0860   15.1280   12.1960 C.3   356  TYR356      0.0534
    160  CG         9.5640   14.4140   13.4180 C.ar  356  TYR356     -0.0201
    161  CD1        9.1270   15.1200   14.5300 C.ar  356  TYR356     -0.0009
    162  CD2        9.5130   13.0250   13.4610 C.ar  356  TYR356     -0.0009
    163  CE1        8.6500   14.4620   15.6530 C.ar  356  TYR356      0.0417
    164  CE2        9.0350   12.3590   14.5770 C.ar  356  TYR356      0.0417
    165  CZ         8.6090   13.0820   15.6690 C.ar  356  TYR356      0.1957
    166  OH         8.1400   12.4290   16.7820 O.3   356  TYR356     -0.2866
    167  N         17.6370   17.8460   12.6300 N.3   359  LYS359     -0.1245
    168  CA        18.3910   18.6280   13.5950 C.3   359  LYS359      0.1561
    169  C         19.5650   19.3060   12.8930 C.2   359  LYS359      0.2260
    170  O         20.2020   18.7090   12.0240 O.2   359  LYS359     -0.2867
    171  CB        18.9060   17.7370   14.7270 C.3   359  LYS359      0.0271
    172  CG        17.8190   17.1450   15.6120 C.3   359  LYS359      0.0035
    173  CD        18.4290   16.2930   16.7260 C.3   359  LYS359      0.0206
    174  CE        17.3740   15.7740   17.7050 C.3   359  LYS359      0.1093
    175  NZ        16.6010   14.6140   17.1770 N.3   359  LYS359     -0.1314
@<TRIPOS>BOND
     1   158   157    2
     2   157   156    1
     3   155   156    1
     4   170   169    2
     5   156   159    1
     6   159   160    1
     7   167   168    1
     8   169   168    1
     9   160   162   ar
    10   160   161   ar
    11   162   164   ar
    12   168   171    1
    13    58    59    2
    14    58    57    1
    15   161   163   ar
    16   164   165   ar
    17    57    60    1
    18    57    56    1
    19   171   172    1
    20    63    62    1
    21    60    61    1
    22   172   173    1
    23   163   165   ar
    24   165   166    1
    25    61    62    1
    26   173   174    1
    27   175   174    1
    28    73    71   ar
    29    73    74   ar
    30    71    69   ar
    31   149   147   ar
    32   149   150   ar
    33   147   146   ar
    34    74    72   ar
    35   150   152   ar
    36   150   148   ar
    37     1     2    1
    38   152   154   ar
    39   146   148   ar
    40   146   145    1
    41   148   151   ar
    42    69    68    1
    43    69    70   ar
    44   145   142    1
    45   141   142    1
    46   154   153   ar
    47     5     2    1
    48     5     6    1
    49    72    70   ar
    50    68    65    1
    51    54    53    1
    52   151   153   ar
    53     4     3    2
    54     2     3    1
    55    52    51    2
    56    64    65    1
    57   142   143    1
    58    51    50    1
    59    65    66    1
    60    13    15   ar
    61    13    12   ar
    62    53    50    1
    63    53    55    1
    64   143   144    2
    65     8     7    1
    66     8    11    1
    67     8     9    1
    68    15    16   ar
    69    10     9    2
    70    50    49    1
    71    11    12    1
    72    66    67    2
    73    66    75   am
    74    12    14   ar
    75     9    17   am
    76    16    14   ar
    77    75    76    1
    78    17    18    1
    79    78    77    2
    80    40    39    2
    81    18    19    1
    82    18    21    1
    83    76    77    1
    84    76    79    1
    85    77    83   am
    86    19    20    2
    87    22    21    1
    88    22    23    1
    89    81    80    2
    90    39    38    1
    91    79    80    1
    92    83    84    1
    93    25    23   am
    94    80    82   am
    95    38    41    1
    96    38    37    1
    97    23    24    2
    98    84    85    1
    99    45    44    2
   100    36    34    1
   101    44    43    1
   102   128   127   ar
   103    33    34    2
   104    33    32    1
   105    34    35    1
   106    31    32    1
   107    31    30    1
   108    85    86    2
   109    85    87   am
   110    30    27    1
   111   127   129   ar
   112   127   126    1
   113    46    43    1
   114    46    47    1
   115    43    42    1
   116   120   119    1
   117   139   138    1
   118   136   137    1
   119   136   135    1
   120    47    48    1
   121    87    88    1
   122   126   125    1
   123   138   137    2
   124   138   140    1
   125    90    89    2
   126   119   118    1
   127   100    99   ar
   128   100    98   ar
   129    42    48    1
   130    99    97   ar
   131    98    96   ar
   132    27    26    1
   133    27    28    1
   134   135   134    1
   135   125   122    1
   136    97    94   ar
   137    96    94   ar
   138    96    95   ar
   139    89    88    1
   140    89   101   am
   141    88    91    1
   142   117   118    1
   143   117   114    1
   144    94    92   ar
   145    95    93   ar
   146    28    29    2
   147   109   107   ar
   148   109   111   ar
   149   112   111    1
   150   122   121    1
   151   122   123    1
   152   130   131    1
   153    92    93   ar
   154    92    91    1
   155   113   114    1
   156   113   103   am
   157   107   106   ar
   158   111   110   ar
   159   134   131    1
   160   101   102    1
   161   124   123    2
   162   102   103    1
   163   102   105    1
   164   131   132    1
   165   114   115    1
   166   103   104    2
   167   106   108   ar
   168   106   105    1
   169   110   108   ar
   170   116   115    2
   171   132   133    2
