@<TRIPOS>MOLECULE
tmp/5g6dA02.pdb
 167 163 0 0 0
SMALL
GASTEIGER

@<TRIPOS>ATOM
      1  N         -1.6690   13.1520   19.0080 N.3    65  CYS65      -0.1235
      2  CA        -2.0010   13.9750   20.1830 C.3    65  CYS65       0.1677
      3  C         -3.3730   13.6300   20.7950 C.2    65  CYS65       0.2270
      4  O         -4.4180   13.7720   20.1450 O.2    65  CYS65      -0.2867
      5  CB        -1.9920   15.4780   19.8210 C.3    65  CYS65       0.0956
      6  SG        -2.4430   16.5480   21.2280 S.3    65  CYS65      -0.0801
      7  N         15.0920   21.3180   21.8490 N.3   127  HIS127     -0.1226
      8  CA        13.9470   20.4150   21.6280 C.3   127  HIS127      0.1752
      9  C         12.7100   20.9820   22.3240 C.2   127  HIS127      0.2595
     10  O         11.6190   21.0040   21.7590 O.2   127  HIS127     -0.2718
     11  CB        14.2270   18.9880   22.1230 C.3   127  HIS127      0.0759
     12  CG        12.9960   18.1490   22.2470 C.ar  127  HIS127      0.0818
     13  ND1       12.2210   17.7900   21.1570 N.ar  127  HIS127     -0.2268
     14  CD2       12.3920   17.6000   23.3340 C.ar  127  HIS127      0.1154
     15  CE1       11.1890   17.0740   21.5730 C.ar  127  HIS127      0.1986
     16  NE2       11.2630   16.9510   22.8940 N.ar  127  HIS127     -0.2212
     17  N         12.8790   21.4530   23.5540 N.am  128  GLN128     -0.1979
     18  CA        11.8400   22.2210   24.2370 C.3   128  GLN128      0.1601
     19  C         12.4870   23.4740   24.7800 C.2   128  GLN128      0.2287
     20  O         13.6840   23.4650   25.0770 O.2   128  GLN128     -0.2864
     21  CB        11.2290   21.4410   25.4000 C.3   128  GLN128      0.0394
     22  CG        10.2790   20.3050   24.9420 C.3   128  GLN128      0.0908
     23  CD         9.7370   19.4950   26.0930 C.2   128  GLN128      0.2608
     24  OE1        9.5570   20.0110   27.1930 O.2   128  GLN128     -0.2717
     25  NE2        9.4650   18.2100   25.8440 N.am  128  GLN128     -0.0878
     26  N         14.2250   22.6300   29.2920 N.3   131  ARG131     -0.1245
     27  CA        14.6330   21.2240   29.2450 C.3   131  ARG131      0.1563
     28  C         15.9080   21.0630   30.0900 C.2   131  ARG131      0.2260
     29  O         16.6910   21.9990   30.1850 O.2   131  ARG131     -0.2867
     30  CB        14.9380   20.8440   27.7910 C.3   131  ARG131      0.0307
     31  CG        15.0640   19.3610   27.5270 C.3   131  ARG131      0.0489
     32  CD        13.7420   18.6530   27.6830 C.3   131  ARG131      0.2205
     33  NE        13.7380   17.3840   26.9390 N.pl3 131  ARG131     -0.0865
     34  CZ        12.8110   16.4450   27.0940 C.cat 131  ARG131      0.5346
     35  NH1       11.8350   16.6260   28.0030 N.pl3 131  ARG131      0.1354
     36  NH2       12.8690   15.3260   26.3660 N.pl3 131  ARG131      0.1354
     37  N         18.5850   12.2500   27.3110 N.3   146  ALA146     -0.1245
     38  CA        18.0060   12.6490   26.0410 C.3   146  ALA146      0.1562
     39  C         18.5840   13.9880   25.5940 C.2   146  ALA146      0.2260
     40  O         18.4480   14.3580   24.4300 O.2   146  ALA146     -0.2867
     41  CB        16.4960   12.7650   26.1560 C.3   146  ALA146      0.0290
     42  N          5.8150   22.0400   29.0400 N.3   215  PRO215     -0.2116
     43  CA         6.5490   21.4980   27.8930 C.3   215  PRO215      0.1372
     44  C          6.2940   22.3380   26.6420 C.2   215  PRO215      0.2244
     45  O          5.1590   22.4360   26.1970 O.2   215  PRO215     -0.2868
     46  CB         5.9610   20.0890   27.7270 C.3   215  PRO215      0.0268
     47  CG         4.5120   20.2130   28.2320 C.3   215  PRO215      0.0207
     48  CD         4.5030   21.3750   29.2380 C.3   215  PRO215      0.0892
     49  N          7.4340   22.5840   23.0180 N.3   217  ILE217     -0.1245
     50  CA         8.1610   21.8680   21.9550 C.3   217  ILE217      0.1561
     51  C          8.5720   22.8550   20.8790 C.2   217  ILE217      0.2260
     52  O          7.7180   23.5990   20.3650 O.2   217  ILE217     -0.2867
     53  CB         7.3060   20.7140   21.3800 C.3   217  ILE217      0.0252
     54  CG1        7.3730   19.4990   22.3260 C.3   217  ILE217      0.0019
     55  CG2        7.8330   20.2880   19.9940 C.3   217  ILE217      0.0019
     56  CD1        6.6150   19.6980   23.6320 C.3   217  ILE217      0.0001
     57  N         11.0740   22.3630   18.2130 N.3   219  ASP219     -0.1225
     58  CA        11.8610   21.8890   17.0860 C.3   219  ASP219      0.1805
     59  C         11.0020   21.2840   15.9750 C.2   219  ASP219      0.2597
     60  O         11.5370   20.6170   15.0930 O.2   219  ASP219     -0.2718
     61  CB        12.9320   20.8820   17.5540 C.3   219  ASP219      0.1424
     62  CG        12.3460   19.6610   18.2250 C.2   219  ASP219      0.3668
     63  OD1       11.0820   19.5210   18.2700 O.co2 219  ASP219     -0.2456
     64  OD2       13.1580   18.8280   18.7200 O.co2 219  ASP219     -0.2456
     65  N          9.6790   21.4940   16.0140 N.am  220  MET220     -0.1979
     66  CA         8.8430   20.9780   14.9180 C.3   220  MET220      0.1605
     67  C          8.4970   22.0540   13.9170 C.2   220  MET220      0.2287
     68  O          8.4380   23.2290   14.2540 O.2   220  MET220     -0.2864
     69  CB         7.5590   20.3230   15.4510 C.3   220  MET220      0.0413
     70  CG         7.8390   19.0990   16.3050 C.3   220  MET220      0.0598
     71  SD         6.3030   18.2770   16.8530 S.3   220  MET220     -0.1393
     72  CE         5.9840   17.3420   15.3730 C.3   220  MET220      0.0692
     73  N          5.4250   25.6290   20.4680 N.3   234  PHE234     -0.1241
     74  CA         4.0570   25.5840   20.9640 C.3   234  PHE234      0.1605
     75  C          4.0760   24.7860   22.2520 C.2   234  PHE234      0.2264
     76  O          5.0180   24.0070   22.4970 O.2   234  PHE234     -0.2867
     77  CB         3.1260   24.8910   19.9490 C.3   234  PHE234      0.0534
     78  CG         3.5050   23.4560   19.6260 C.ar  234  PHE234     -0.0203
     79  CD1        3.1100   22.4120   20.4670 C.ar  234  PHE234     -0.0042
     80  CD2        4.2230   23.1490   18.4650 C.ar  234  PHE234     -0.0042
     81  CE1        3.4620   21.0680   20.1690 C.ar  234  PHE234     -0.0003
     82  CE2        4.5780   21.8410   18.1620 C.ar  234  PHE234     -0.0003
     83  CZ         4.1890   20.7880   19.0060 C.ar  234  PHE234     -0.0000
     84  N          1.2990   22.7190   25.3400 N.3   236  GLY236     -0.1210
     85  CA         0.0540   22.4810   26.0390 C.3   236  GLY236      0.1956
     86  C          0.4290   22.4150   27.5070 C.2   236  GLY236      0.2612
     87  O          1.3590   23.0980   27.9650 O.2   236  GLY236     -0.2717
     88  N         -0.3170   21.6140   28.2550 N.am  237  TRP237     -0.1962
     89  CA         0.1060   21.1720   29.5690 C.3   237  TRP237      0.1771
     90  C          0.4300   19.6800   29.4660 C.2   237  TRP237      0.2620
     91  O          0.0810   19.0100   28.4870 O.2   237  TRP237     -0.2715
     92  CB        -0.9730   21.4180   30.6230 C.3   237  TRP237      0.0590
     93  CG        -2.3290   20.9070   30.1970 C.ar  237  TRP237      0.0006
     94  CD1       -2.7690   19.5990   30.2400 C.ar  237  TRP237      0.0946
     95  CD2       -3.4140   21.6880   29.6600 C.ar  237  TRP237      0.0152
     96  NE1       -4.0830   19.5330   29.7750 N.ar  237  TRP237     -0.2442
     97  CE2       -4.4850   20.7920   29.4030 C.ar  237  TRP237      0.0810
     98  CE3       -3.5780   23.0580   29.3640 C.ar  237  TRP237      0.0012
     99  CZ2       -5.7030   21.2230   28.8600 C.ar  237  TRP237      0.0191
    100  CZ3       -4.8110   23.4930   28.8460 C.ar  237  TRP237      0.0001
    101  CH2       -5.8550   22.5770   28.5980 C.ar  237  TRP237      0.0015
    102  N          1.1560   19.1760   30.4560 N.am  238  TYR238     -0.1960
    103  CA         1.5340   17.7680   30.4950 C.3   238  TYR238      0.1771
    104  C          0.3490   16.8480   30.7580 C.2   238  TYR238      0.2619
    105  O         -0.5740   17.1830   31.4990 O.2   238  TYR238     -0.2715
    106  CB         2.5250   17.5510   31.6250 C.3   238  TYR238      0.0574
    107  CG         3.9720   17.6870   31.1820 C.ar  238  TYR238     -0.0198
    108  CD1        4.4950   16.8120   30.2430 C.ar  238  TYR238     -0.0009
    109  CD2        4.8060   18.6640   31.7170 C.ar  238  TYR238     -0.0009
    110  CE1        5.8320   16.8850   29.8340 C.ar  238  TYR238      0.0417
    111  CE2        6.1600   18.7510   31.3140 C.ar  238  TYR238      0.0417
    112  CZ         6.6530   17.8650   30.3770 C.ar  238  TYR238      0.1957
    113  OH         7.9610   17.9240   29.9280 O.3   238  TYR238     -0.2866
    114  N          0.4190   15.6510   30.1990 N.am  239  MET239     -0.1977
    115  CA        -0.3620   14.5420   30.7330 C.3   239  MET239      0.1605
    116  C          0.6190   13.8530   31.6650 C.2   239  MET239      0.2287
    117  O          1.8080   13.7520   31.3430 O.2   239  MET239     -0.2864
    118  CB        -0.8180   13.6230   29.5970 C.3   239  MET239      0.0413
    119  CG        -1.6840   12.4580   30.0760 C.3   239  MET239      0.0598
    120  SD        -2.4660   11.5690   28.7050 S.3   239  MET239     -0.1393
    121  CE        -1.1070   10.5830   28.0970 C.3   239  MET239      0.0692
    122  N          3.5230   11.3580   30.9020 N.3   242  GLU242     -0.1245
    123  CA         4.7250   11.7530   30.1530 C.3   242  GLU242      0.1567
    124  C          5.8950   11.9380   31.1100 C.2   242  GLU242      0.2260
    125  O          7.0630   11.6370   30.7850 O.2   242  GLU242     -0.2867
    126  CB         4.4910   13.0730   29.4060 C.3   242  GLU242      0.0388
    127  CG         3.3740   12.9880   28.3720 C.3   242  GLU242      0.1160
    128  CD         3.1610   14.3280   27.7100 C.2   242  GLU242      0.3649
    129  OE1        3.9480   14.6300   26.7780 O.co2 242  GLU242     -0.2457
    130  OE2        2.2690   15.1020   28.1590 O.co2 242  GLU242     -0.2457
    131  N         16.1990    7.4040   30.3430 N.3   253  ARG253     -0.1245
    132  CA        16.0150    8.7750   30.8390 C.3   253  ARG253      0.1563
    133  C         16.4580    8.7980   32.2930 C.2   253  ARG253      0.2260
    134  O         17.5770    8.4040   32.5770 O.2   253  ARG253     -0.2867
    135  CB        14.5630    9.2300   30.6660 C.3   253  ARG253      0.0307
    136  CG        14.0990    9.1100   29.1890 C.3   253  ARG253      0.0489
    137  CD        14.7680   10.2000   28.2950 C.3   253  ARG253      0.2205
    138  NE        14.4560   11.5630   28.7650 N.pl3 253  ARG253     -0.0865
    139  CZ        13.2690   12.1540   28.6280 C.cat 253  ARG253      0.5346
    140  NH1       12.2460   11.4960   28.0600 N.pl3 253  ARG253      0.1354
    141  NH2       13.0810   13.4000   29.0890 N.pl3 253  ARG253      0.1354
    142  N          0.5260    5.9040   19.5760 N.3   328  TRP328     -0.1241
    143  CA         0.8750    7.0470   20.4350 C.3   328  TRP328      0.1605
    144  C         -0.2840    7.5450   21.2850 C.2   328  TRP328      0.2264
    145  O         -0.0670    8.1830   22.3150 O.2   328  TRP328     -0.2867
    146  CB         1.4430    8.2320   19.6020 C.3   328  TRP328      0.0550
    147  CG         2.8780    8.0310   19.1920 C.ar  328  TRP328      0.0003
    148  CD1        3.4010    6.9670   18.4790 C.ar  328  TRP328      0.0946
    149  CD2        3.9810    8.8920   19.5000 C.ar  328  TRP328      0.0152
    150  NE1        4.7740    7.1370   18.3140 N.ar  328  TRP328     -0.2442
    151  CE2        5.1470    8.3110   18.9300 C.ar  328  TRP328      0.0810
    152  CE3        4.0950   10.1140   20.1880 C.ar  328  TRP328      0.0012
    153  CZ2        6.4150    8.9170   19.0270 C.ar  328  TRP328      0.0191
    154  CZ3        5.3500   10.7080   20.2800 C.ar  328  TRP328      0.0001
    155  CH2        6.4910   10.1010   19.7100 C.ar  328  TRP328      0.0015
    156  N          8.2800   16.6510   12.0750 N.3   356  TYR356     -0.1241
    157  CA         9.6890   16.5630   12.4660 C.3   356  TYR356      0.1605
    158  C         10.5280   17.2500   11.4180 C.2   356  TYR356      0.2264
    159  O         10.1460   17.3150   10.2530 O.2   356  TYR356     -0.2867
    160  CB        10.1190   15.0860   12.5380 C.3   356  TYR356      0.0534
    161  CG         9.5680   14.3520   13.7570 C.ar  356  TYR356     -0.0201
    162  CD1        9.0820   15.0470   14.8620 C.ar  356  TYR356     -0.0009
    163  CD2        9.5660   12.9620   13.8090 C.ar  356  TYR356     -0.0009
    164  CE1        8.5810   14.3650   15.9990 C.ar  356  TYR356      0.0417
    165  CE2        9.0700   12.2750   14.9330 C.ar  356  TYR356      0.0417
    166  CZ         8.5860   12.9720   16.0050 C.ar  356  TYR356      0.1957
    167  OH         8.1190   12.2780   17.1020 O.3   356  TYR356     -0.2866
@<TRIPOS>BOND
     1   159   158    2
     2   158   157    1
     3   156   157    1
     4   157   160    1
     5   160   161    1
     6   161   163   ar
     7   161   162   ar
     8   163   165   ar
     9    67    68    2
    10    67    66    1
    11   162   164   ar
    12    66    69    1
    13    66    65    1
    14   165   166   ar
    15    60    59    2
    16    72    71    1
    17    69    70    1
    18    59    65   am
    19    59    58    1
    20   164   166   ar
    21   166   167    1
    22    70    71    1
    23    58    61    1
    24    58    57    1
    25    61    62    1
    26    82    80   ar
    27    82    83   ar
    28    62    63   ar
    29    62    64   ar
    30   150   148   ar
    31   150   151   ar
    32    80    78   ar
    33   148   147   ar
    34   151   153   ar
    35   151   149   ar
    36    83    81   ar
    37     1     2    1
    38   153   155   ar
    39   147   149   ar
    40   147   146    1
    41   149   152   ar
    42   142   143    1
    43   146   143    1
    44    78    77    1
    45    78    79   ar
    46   155   154   ar
    47     5     2    1
    48     5     6    1
    49    77    74    1
    50    55    53    1
    51     4     3    2
    52    81    79   ar
    53     2     3    1
    54   152   154   ar
    55    52    51    2
    56   143   144    1
    57    73    74    1
    58    51    50    1
    59    74    75    1
    60    13    15   ar
    61    13    12   ar
    62   144   145    2
    63    53    50    1
    64    53    54    1
    65    15    16   ar
    66     8     7    1
    67     8    11    1
    68     8     9    1
    69    10     9    2
    70    50    49    1
    71    11    12    1
    72    12    14   ar
    73    75    76    2
    74     9    17   am
    75    54    56    1
    76    16    14   ar
    77    17    18    1
    78    18    19    1
    79    18    21    1
    80    40    39    2
    81    19    20    2
    82    22    21    1
    83    22    23    1
    84    84    85    1
    85    39    38    1
    86    25    23   am
    87    85    86    1
    88    38    41    1
    89    38    37    1
    90    23    24    2
    91    45    44    2
    92    36    34    1
    93    44    43    1
    94   129   128   ar
    95    33    34    2
    96    33    32    1
    97    34    35    1
    98    86    87    2
    99    86    88   am
   100    31    32    1
   101    31    30    1
   102   128   130   ar
   103   128   127    1
   104    46    43    1
   105    46    47    1
   106    30    27    1
   107    43    42    1
   108   140   139    1
   109   121   120    1
   110    47    48    1
   111    88    89    1
   112   137   138    1
   113   137   136    1
   114   127   126    1
   115    91    90    2
   116   101   100   ar
   117   101    99   ar
   118   139   138    2
   119   139   141    1
   120   120   119    1
   121   100    98   ar
   122    99    97   ar
   123    42    48    1
   124   136   135    1
   125    27    26    1
   126    27    28    1
   127    98    95   ar
   128    97    95   ar
   129    97    96   ar
   130   126   123    1
   131    90    89    1
   132    90   102   am
   133    89    92    1
   134   118   119    1
   135   118   115    1
   136    95    93   ar
   137    96    94   ar
   138   110   108   ar
   139   110   112   ar
   140   113   112    1
   141    28    29    2
   142   123   122    1
   143   123   124    1
   144    93    94   ar
   145    93    92    1
   146   114   115    1
   147   114   104   am
   148   108   107   ar
   149   131   132    1
   150   112   111   ar
   151   102   103    1
   152   103   104    1
   153   103   106    1
   154   135   132    1
   155   115   116    1
   156   104   105    2
   157   125   124    2
   158   132   133    1
   159   107   106    1
   160   107   109   ar
   161   111   109   ar
   162   117   116    2
   163   133   134    2
