@<TRIPOS>MOLECULE
tmp/5g6eA02.pdb
 179 173 0 0 0
SMALL
GASTEIGER

@<TRIPOS>ATOM
      1  N         -1.5530   13.3490   18.8810 N.3    65  CYS65      -0.1235
      2  CA        -1.9570   14.1530   20.0330 C.3    65  CYS65       0.1677
      3  C         -3.2770   13.7030   20.6590 C.2    65  CYS65       0.2270
      4  O         -4.2940   13.5790   19.9750 O.2    65  CYS65      -0.2867
      5  CB        -2.0420   15.6360   19.6700 C.3    65  CYS65       0.0956
      6  SG        -2.8080   16.6340   20.9590 S.3    65  CYS65      -0.0801
      7  N         15.0090   21.3330   21.6010 N.3   127  HIS127     -0.1226
      8  CA        13.8650   20.4500   21.4190 C.3   127  HIS127      0.1752
      9  C         12.6840   21.1040   22.1150 C.2   127  HIS127      0.2595
     10  O         11.6180   21.2940   21.5260 O.2   127  HIS127     -0.2718
     11  CB        14.1230   19.0690   22.0240 C.3   127  HIS127      0.0759
     12  CG        12.8800   18.2470   22.1970 C.ar  127  HIS127      0.0818
     13  ND1       12.0920   17.8530   21.1350 N.ar  127  HIS127     -0.2268
     14  CD2       12.2850   17.7530   23.3080 C.ar  127  HIS127      0.1154
     15  CE1       11.0690   17.1500   21.5840 C.ar  127  HIS127      0.1986
     16  NE2       11.1610   17.0740   22.9020 N.ar  127  HIS127     -0.2212
     17  N         12.8870   21.4380   23.3840 N.am  128  GLN128     -0.1979
     18  CA        11.9240   22.2220   24.1440 C.3   128  GLN128      0.1601
     19  C         12.6370   23.4280   24.7520 C.2   128  GLN128      0.2287
     20  O         13.8000   23.3220   25.1500 O.2   128  GLN128     -0.2864
     21  CB        11.2630   21.3720   25.2370 C.3   128  GLN128      0.0394
     22  CG        10.3550   20.2650   24.7010 C.3   128  GLN128      0.0908
     23  CD         9.8540   19.3290   25.7840 C.2   128  GLN128      0.2608
     24  OE1        9.7820   19.6960   26.9570 O.2   128  GLN128     -0.2717
     25  NE2        9.5030   18.1080   25.3930 N.am  128  GLN128     -0.0878
     26  N         14.2860   22.5590   29.1590 N.3   131  ARG131     -0.1245
     27  CA        14.7020   21.1610   29.1420 C.3   131  ARG131      0.1563
     28  C         16.0190   21.0040   29.8950 C.2   131  ARG131      0.2260
     29  O         16.8700   21.8920   29.8580 O.2   131  ARG131     -0.2867
     30  CB        14.8530   20.6640   27.7010 C.3   131  ARG131      0.0307
     31  CG        14.8750   19.1490   27.5590 C.3   131  ARG131      0.0489
     32  CD        14.3480   18.7300   26.1980 C.3   131  ARG131      0.2205
     33  NE        13.5380   17.5190   26.2800 N.pl3 131  ARG131     -0.0865
     34  CZ        13.9170   16.3310   25.8220 C.cat 131  ARG131      0.5346
     35  NH1       15.1010   16.1860   25.2390 N.pl3 131  ARG131      0.1354
     36  NH2       13.1090   15.2870   25.9450 N.pl3 131  ARG131      0.1354
     37  N         18.6120   12.0210   26.8800 N.3   146  ALA146     -0.1245
     38  CA        17.9820   12.5420   25.6700 C.3   146  ALA146      0.1562
     39  C         18.5520   13.8980   25.2550 C.2   146  ALA146      0.2260
     40  O         18.4260   14.3010   24.0960 O.2   146  ALA146     -0.2867
     41  CB        16.4810   12.6480   25.8680 C.3   146  ALA146      0.0290
     42  N          5.9000   22.1180   28.9000 N.3   215  PRO215     -0.2116
     43  CA         6.5950   21.5480   27.7390 C.3   215  PRO215      0.1372
     44  C          6.3430   22.3850   26.4910 C.2   215  PRO215      0.2244
     45  O          5.2230   22.3940   25.9740 O.2   215  PRO215     -0.2868
     46  CB         5.9440   20.1710   27.5780 C.3   215  PRO215      0.0268
     47  CG         4.5900   20.2740   28.2750 C.3   215  PRO215      0.0207
     48  CD         4.5370   21.5770   29.0420 C.3   215  PRO215      0.0892
     49  N          7.4840   22.6750   22.8170 N.3   217  ILE217     -0.1245
     50  CA         8.2020   22.0300   21.7180 C.3   217  ILE217      0.1561
     51  C          8.6120   23.0370   20.6370 C.2   217  ILE217      0.2260
     52  O          7.7670   23.7480   20.1010 O.2   217  ILE217     -0.2867
     53  CB         7.3740   20.8790   21.1080 C.3   217  ILE217      0.0252
     54  CG1        7.4260   19.6510   22.0170 C.3   217  ILE217      0.0019
     55  CG2        7.9180   20.4880   19.7550 C.3   217  ILE217      0.0019
     56  CD1        6.5930   19.7570   23.2770 C.3   217  ILE217      0.0001
     57  N          9.8270   21.4940   15.7230 N.3   220  MET220     -0.1245
     58  CA         8.9260   20.9120   14.7310 C.3   220  MET220      0.1570
     59  C          8.5690   21.9260   13.6510 C.2   220  MET220      0.2261
     60  O          8.5620   23.1320   13.9040 O.2   220  MET220     -0.2867
     61  CB         7.6590   20.3730   15.3940 C.3   220  MET220      0.0387
     62  CG         7.9300   19.2780   16.4090 C.3   220  MET220      0.0595
     63  SD         6.4370   18.4450   16.9710 S.3   220  MET220     -0.1393
     64  CE         6.0160   17.5410   15.4810 C.3   220  MET220      0.0692
     65  N          5.4240   25.6430   20.0780 N.3   234  PHE234     -0.1241
     66  CA         4.0850   25.5730   20.6470 C.3   234  PHE234      0.1605
     67  C          4.1110   24.8510   21.9880 C.2   234  PHE234      0.2264
     68  O          5.1000   24.2000   22.3340 O.2   234  PHE234     -0.2867
     69  CB         3.1220   24.8640   19.6930 C.3   234  PHE234      0.0534
     70  CG         3.5430   23.4680   19.3270 C.ar  234  PHE234     -0.0203
     71  CD1        3.2840   22.3950   20.1760 C.ar  234  PHE234     -0.0042
     72  CD2        4.1920   23.2280   18.1250 C.ar  234  PHE234     -0.0042
     73  CE1        3.6720   21.1120   19.8350 C.ar  234  PHE234     -0.0003
     74  CE2        4.5840   21.9530   17.7750 C.ar  234  PHE234     -0.0003
     75  CZ         4.3230   20.8910   18.6310 C.ar  234  PHE234     -0.0000
     76  N          1.3050   22.9380   25.1900 N.3   236  GLY236     -0.1210
     77  CA         0.0570   22.6800   25.8730 C.3   236  GLY236      0.1956
     78  C          0.4400   22.4450   27.3140 C.2   236  GLY236      0.2612
     79  O          1.3890   23.0580   27.8140 O.2   236  GLY236     -0.2717
     80  N         -0.2860   21.5640   27.9880 N.am  237  TRP237     -0.1962
     81  CA         0.1400   21.1150   29.3060 C.3   237  TRP237      0.1771
     82  C          0.5230   19.6420   29.2590 C.2   237  TRP237      0.2620
     83  O          0.2820   18.9580   28.2630 O.2   237  TRP237     -0.2715
     84  CB        -0.9370   21.3600   30.3570 C.3   237  TRP237      0.0590
     85  CG        -2.2910   20.9300   29.9280 C.ar  237  TRP237      0.0006
     86  CD1       -2.7680   19.6550   29.8650 C.ar  237  TRP237      0.0946
     87  CD2       -3.3560   21.7830   29.5110 C.ar  237  TRP237      0.0152
     88  NE1       -4.0720   19.6620   29.4260 N.ar  237  TRP237     -0.2442
     89  CE2       -4.4560   20.9610   29.2030 C.ar  237  TRP237      0.0810
     90  CE3       -3.4880   23.1670   29.3660 C.ar  237  TRP237      0.0012
     91  CZ2       -5.6690   21.4780   28.7560 C.ar  237  TRP237      0.0191
     92  CZ3       -4.6880   23.6790   28.9260 C.ar  237  TRP237      0.0001
     93  CH2       -5.7640   22.8390   28.6260 C.ar  237  TRP237      0.0015
     94  N          1.1290   19.1640   30.3380 N.am  238  TYR238     -0.1960
     95  CA         1.5860   17.7840   30.4140 C.3   238  TYR238      0.1771
     96  C          0.4540   16.8100   30.7070 C.2   238  TYR238      0.2619
     97  O         -0.4350   17.1010   31.5120 O.2   238  TYR238     -0.2715
     98  CB         2.6360   17.6490   31.5140 C.3   238  TYR238      0.0574
     99  CG         4.0620   17.7340   31.0340 C.ar  238  TYR238     -0.0198
    100  CD1        4.5050   16.9590   29.9720 C.ar  238  TYR238     -0.0009
    101  CD2        4.9710   18.5850   31.6510 C.ar  238  TYR238     -0.0009
    102  CE1        5.8090   17.0280   29.5350 C.ar  238  TYR238      0.0417
    103  CE2        6.2810   18.6600   31.2220 C.ar  238  TYR238      0.0417
    104  CZ         6.6940   17.8800   30.1610 C.ar  238  TYR238      0.1957
    105  OH         7.9920   17.9420   29.7180 O.3   238  TYR238     -0.2866
    106  N          0.4840   15.6600   30.0390 N.am  239  MET239     -0.1977
    107  CA        -0.2510   14.5040   30.5210 C.3   239  MET239      0.1605
    108  C          0.7290   13.8030   31.4540 C.2   239  MET239      0.2287
    109  O          1.8980   13.6280   31.1010 O.2   239  MET239     -0.2864
    110  CB        -0.6850   13.5830   29.3790 C.3   239  MET239      0.0413
    111  CG        -1.5590   12.4280   29.8410 C.3   239  MET239      0.0598
    112  SD        -2.4670   11.6360   28.5020 S.3   239  MET239     -0.1393
    113  CE        -1.1220   10.8270   27.6410 C.3   239  MET239      0.0692
    114  N          3.6680   11.3140   30.5850 N.3   242  GLU242     -0.1245
    115  CA         4.8680   11.7550   29.8810 C.3   242  GLU242      0.1567
    116  C          6.0280   11.9230   30.8550 C.2   242  GLU242      0.2260
    117  O          7.1770   11.6280   30.5280 O.2   242  GLU242     -0.2867
    118  CB         4.6260   13.0780   29.1520 C.3   242  GLU242      0.0388
    119  CG         3.5340   13.0500   28.0940 C.3   242  GLU242      0.1160
    120  CD         3.4000   14.3780   27.3780 C.2   242  GLU242      0.3649
    121  OE1        4.3150   14.7210   26.6010 O.co2 242  GLU242     -0.2457
    122  OE2        2.3850   15.0750   27.5940 O.co2 242  GLU242     -0.2457
    123  N          7.5840    7.9250   31.4340 N.3   246  ARG246     -0.1245
    124  CA         8.5530    7.9470   30.3390 C.3   246  ARG246      0.1563
    125  C          9.8190    8.7350   30.6680 C.2   246  ARG246      0.2260
    126  O         10.9160    8.1790   30.6760 O.2   246  ARG246     -0.2867
    127  CB         7.9150    8.4990   29.0650 C.3   246  ARG246      0.0307
    128  CG         6.7140    7.7100   28.5830 C.3   246  ARG246      0.0489
    129  CD         7.1010    6.2700   28.2870 C.3   246  ARG246      0.2205
    130  NE         8.3150    6.2000   27.4780 N.pl3 246  ARG246     -0.0865
    131  CZ         8.3460    6.3620   26.1580 C.cat 246  ARG246      0.5346
    132  NH1        7.2290    6.6100   25.4890 N.pl3 246  ARG246      0.1354
    133  NH2        9.4960    6.2840   25.5030 N.pl3 246  ARG246      0.1354
    134  N         16.3760    7.0260   29.9850 N.3   253  ARG253     -0.1245
    135  CA        16.1790    8.3820   30.4850 C.3   253  ARG253      0.1563
    136  C         16.6560    8.4590   31.9310 C.2   253  ARG253      0.2260
    137  O         17.8130    8.1620   32.2180 O.2   253  ARG253     -0.2867
    138  CB        14.7140    8.8010   30.3800 C.3   253  ARG253      0.0307
    139  CG        14.1610    8.7960   28.9660 C.3   253  ARG253      0.0489
    140  CD        14.8280    9.8460   28.0850 C.3   253  ARG253      0.2205
    141  NE        14.5320   11.2080   28.5280 N.pl3 253  ARG253     -0.0865
    142  CZ        13.3790   11.8350   28.3060 C.cat 253  ARG253      0.5346
    143  NH1       12.3980   11.2240   27.6560 N.pl3 253  ARG253      0.1354
    144  NH2       13.1990   13.0750   28.7420 N.pl3 253  ARG253      0.1354
    145  N          0.5790    5.7720   19.3520 N.3   328  TRP328     -0.1241
    146  CA         1.0220    6.9450   20.0950 C.3   328  TRP328      0.1605
    147  C         -0.0900    7.5210   20.9580 C.2   328  TRP328      0.2264
    148  O          0.1690    8.2220   21.9360 O.2   328  TRP328     -0.2867
    149  CB         1.5420    8.0130   19.1350 C.3   328  TRP328      0.0550
    150  CG         2.9830    7.8380   18.7940 C.ar  328  TRP328      0.0003
    151  CD1        3.5390    6.8100   18.0960 C.ar  328  TRP328      0.0946
    152  CD2        4.0580    8.7290   19.1340 C.ar  328  TRP328      0.0152
    153  NE1        4.8960    7.0000   17.9830 N.ar  328  TRP328     -0.2442
    154  CE2        5.2370    8.1620   18.6060 C.ar  328  TRP328      0.0810
    155  CE3        4.1330    9.9370   19.8250 C.ar  328  TRP328      0.0012
    156  CZ2        6.4860    8.7810   18.7590 C.ar  328  TRP328      0.0191
    157  CZ3        5.3720   10.5420   19.9750 C.ar  328  TRP328      0.0001
    158  CH2        6.5310    9.9630   19.4430 C.ar  328  TRP328      0.0015
    159  N          8.3790   16.5360   12.0380 N.3   356  TYR356     -0.1241
    160  CA         9.7490   16.4580   12.5140 C.3   356  TYR356      0.1605
    161  C         10.6390   17.1250   11.4790 C.2   356  TYR356      0.2264
    162  O         10.2650   17.2280   10.3090 O.2   356  TYR356     -0.2867
    163  CB        10.1780   14.9980   12.6710 C.3   356  TYR356      0.0534
    164  CG         9.5980   14.2850   13.8720 C.ar  356  TYR356     -0.0201
    165  CD1        9.1040   14.9940   14.9580 C.ar  356  TYR356     -0.0009
    166  CD2        9.5560   12.8980   13.9230 C.ar  356  TYR356     -0.0009
    167  CE1        8.5820   14.3420   16.0550 C.ar  356  TYR356      0.0417
    168  CE2        9.0350   12.2400   15.0150 C.ar  356  TYR356      0.0417
    169  CZ         8.5500   12.9660   16.0790 C.ar  356  TYR356      0.1957
    170  OH         8.0290   12.3200   17.1740 O.3   356  TYR356     -0.2866
    171  N         17.9050   17.7160   12.9100 N.3   359  LYS359     -0.1245
    172  CA        18.6310   18.5200   13.8800 C.3   359  LYS359      0.1561
    173  C         19.8510   19.1480   13.2220 C.2   359  LYS359      0.2260
    174  O         20.5730   18.4830   12.4750 O.2   359  LYS359     -0.2867
    175  CB        19.0610   17.6680   15.0730 C.3   359  LYS359      0.0271
    176  CG        17.9080   17.0100   15.8100 C.3   359  LYS359      0.0035
    177  CD        18.4120   16.1350   16.9520 C.3   359  LYS359      0.0206
    178  CE        17.2650   15.4790   17.7140 C.3   359  LYS359      0.1093
    179  NZ        17.7570   14.6650   18.8630 N.3   359  LYS359     -0.1314
@<TRIPOS>BOND
     1   162   161    2
     2   161   160    1
     3   159   160    1
     4   174   173    2
     5   160   163    1
     6   163   164    1
     7   171   172    1
     8   173   172    1
     9    59    60    2
    10    59    58    1
    11   164   166   ar
    12   164   165   ar
    13   172   175    1
    14   166   168   ar
    15    58    61    1
    16    58    57    1
    17   165   167   ar
    18   168   169   ar
    19   175   176    1
    20    61    62    1
    21    64    63    1
    22   176   177    1
    23   167   169   ar
    24   169   170    1
    25    62    63    1
    26   177   178    1
    27   178   179    1
    28    74    72   ar
    29    74    75   ar
    30   153   151   ar
    31   153   154   ar
    32   151   150   ar
    33    72    70   ar
    34   154   156   ar
    35   154   152   ar
    36    75    73   ar
    37   156   158   ar
    38   150   152   ar
    39   150   149    1
    40     1     2    1
    41   152   155   ar
    42   149   146    1
    43    70    69    1
    44    70    71   ar
    45   145   146    1
    46   158   157   ar
    47     5     2    1
    48     5     6    1
    49    69    66    1
    50    55    53    1
    51   155   157   ar
    52    73    71   ar
    53     4     3    2
    54     2     3    1
    55    65    66    1
    56   146   147    1
    57    52    51    2
    58    51    50    1
    59    66    67    1
    60   147   148    2
    61    53    50    1
    62    53    54    1
    63    13    15   ar
    64    13    12   ar
    65     8     7    1
    66     8    11    1
    67     8     9    1
    68    10     9    2
    69    15    16   ar
    70    50    49    1
    71    67    68    2
    72    54    56    1
    73    11    12    1
    74     9    17   am
    75    12    14   ar
    76    16    14   ar
    77    17    18    1
    78    40    39    2
    79    18    19    1
    80    18    21    1
    81    22    21    1
    82    22    23    1
    83    19    20    2
    84    76    77    1
    85    35    34    1
    86    39    38    1
    87    25    23   am
    88   132   131    1
    89   133   131    1
    90    38    41    1
    91    38    37    1
    92    23    24    2
    93    34    36    1
    94    34    33    2
    95    77    78    1
    96    45    44    2
    97   131   130    2
    98    32    33    1
    99    32    31    1
   100    44    43    1
   101   121   120   ar
   102    78    79    2
   103    78    80   am
   104   120   122   ar
   105   120   119    1
   106   130   129    1
   107    31    30    1
   108    46    43    1
   109    46    47    1
   110   113   112    1
   111   143   142    1
   112    30    27    1
   113    43    42    1
   114    80    81    1
   115   140   141    1
   116   140   139    1
   117   119   118    1
   118    83    82    2
   119    47    48    1
   120   129   128    1
   121   142   141    2
   122   142   144    1
   123   112   111    1
   124   128   127    1
   125    93    91   ar
   126    93    92   ar
   127    91    89   ar
   128    42    48    1
   129    92    90   ar
   130   139   138    1
   131   127   124    1
   132    27    26    1
   133    27    28    1
   134   118   115    1
   135    89    88   ar
   136    89    87   ar
   137    82    81    1
   138    82    94   am
   139    81    84    1
   140    90    87   ar
   141   110   111    1
   142   110   107    1
   143    88    86   ar
   144    87    85   ar
   145   102   100   ar
   146   102   104   ar
   147   105   104    1
   148    29    28    2
   149    86    85   ar
   150   115   114    1
   151   115   116    1
   152    85    84    1
   153   100    99   ar
   154   134   135    1
   155   106   107    1
   156   106    96   am
   157   104   103   ar
   158    94    95    1
   159   124   125    1
   160   124   123    1
   161   138   135    1
   162    95    96    1
   163    95    98    1
   164   135   136    1
   165   107   108    1
   166   117   116    2
   167   125   126    2
   168    96    97    2
   169    99    98    1
   170    99   101   ar
   171   109   108    2
   172   103   101   ar
   173   136   137    2
