@<TRIPOS>MOLECULE
tmp/5g6fA02.pdb
 190 186 0 0 0
SMALL
GASTEIGER

@<TRIPOS>ATOM
      1  N         -1.6010   13.2320   19.0060 N.3    65  CYS65      -0.1235
      2  CA        -2.0130   14.0650   20.1400 C.3    65  CYS65       0.1677
      3  C         -3.3580   13.6710   20.7500 C.2    65  CYS65       0.2270
      4  O         -4.3870   13.6670   20.0700 O.2    65  CYS65      -0.2867
      5  CB        -2.0550   15.5430   19.7510 C.3    65  CYS65       0.0956
      6  SG        -2.4870   16.6120   21.1350 S.3    65  CYS65      -0.0801
      7  N         14.9470   21.3080   21.7290 N.3   127  HIS127     -0.1226
      8  CA        13.8120   20.4280   21.5030 C.3   127  HIS127      0.1752
      9  C         12.5950   20.9950   22.2450 C.2   127  HIS127      0.2595
     10  O         11.4710   20.9740   21.7410 O.2   127  HIS127     -0.2718
     11  CB        14.1070   18.9930   21.9580 C.3   127  HIS127      0.0759
     12  CG        12.8730   18.1630   22.1430 C.ar  127  HIS127      0.0818
     13  ND1       12.0970   17.7380   21.0840 N.ar  127  HIS127     -0.2268
     14  CD2       12.2660   17.7010   23.2630 C.ar  127  HIS127      0.1154
     15  CE1       11.0720   17.0370   21.5440 C.ar  127  HIS127      0.1986
     16  NE2       11.1500   17.0030   22.8630 N.ar  127  HIS127     -0.2212
     17  N         12.8300   21.4910   23.4550 N.am  128  GLN128     -0.1979
     18  CA        11.8220   22.2490   24.1930 C.3   128  GLN128      0.1601
     19  C         12.4780   23.5130   24.7360 C.2   128  GLN128      0.2287
     20  O         13.6760   23.5080   25.0120 O.2   128  GLN128     -0.2864
     21  CB        11.2140   21.4000   25.3200 C.3   128  GLN128      0.0394
     22  CG        10.1600   20.3970   24.8340 C.3   128  GLN128      0.0908
     23  CD         9.7170   19.4000   25.9030 C.2   128  GLN128      0.2608
     24  OE1        9.5450   19.7540   27.0710 O.2   128  GLN128     -0.2717
     25  NE2        9.5210   18.1460   25.4990 N.am  128  GLN128     -0.0878
     26  N         14.1520   22.5960   29.1010 N.3   131  ARG131     -0.1245
     27  CA        14.5550   21.2050   29.2650 C.3   131  ARG131      0.1563
     28  C         15.8430   21.0740   30.0750 C.2   131  ARG131      0.2260
     29  O         16.5830   22.0440   30.2320 O.2   131  ARG131     -0.2867
     30  CB        14.7070   20.5000   27.9120 C.3   131  ARG131      0.0307
     31  CG        13.9410   19.1800   27.8780 C.3   131  ARG131      0.0489
     32  CD        14.2910   18.3190   26.7040 C.3   131  ARG131      0.2205
     33  NE        13.4960   17.0960   26.7350 N.pl3 131  ARG131     -0.0865
     34  CZ        13.7040   16.0460   25.9490 C.cat 131  ARG131      0.5346
     35  NH1       14.6960   16.0640   25.0650 N.pl3 131  ARG131      0.1354
     36  NH2       12.9260   14.9730   26.0570 N.pl3 131  ARG131      0.1354
     37  N          5.7180   22.0040   28.9820 N.3   215  PRO215     -0.2116
     38  CA         6.4400   21.4050   27.8530 C.3   215  PRO215      0.1372
     39  C          6.1910   22.2420   26.6090 C.2   215  PRO215      0.2244
     40  O          5.0520   22.3530   26.1450 O.2   215  PRO215     -0.2868
     41  CB         5.7870   20.0240   27.7090 C.3   215  PRO215      0.0268
     42  CG         4.3440   20.2340   28.1990 C.3   215  PRO215      0.0207
     43  CD         4.3650   21.4320   29.1530 C.3   215  PRO215      0.0892
     44  N          7.3260   22.4600   22.9270 N.3   217  ILE217     -0.1245
     45  CA         8.0260   21.8680   21.7800 C.3   217  ILE217      0.1561
     46  C          8.4640   22.9530   20.7980 C.2   217  ILE217      0.2260
     47  O          7.6290   23.6970   20.2760 O.2   217  ILE217     -0.2867
     48  CB         7.1350   20.8480   21.0480 C.3   217  ILE217      0.0252
     49  CG1        6.5940   19.8260   22.0450 C.3   217  ILE217      0.0019
     50  CG2        7.8970   20.1710   19.9030 C.3   217  ILE217      0.0019
     51  CD1        7.6640   19.0200   22.7360 C.3   217  ILE217      0.0001
     52  N         11.0220   22.5110   18.1920 N.3   219  ASP219     -0.1225
     53  CA        11.8280   22.0320   17.0720 C.3   219  ASP219      0.1805
     54  C         10.9980   21.3610   15.9760 C.2   219  ASP219      0.2597
     55  O         11.5400   20.6470   15.1280 O.2   219  ASP219     -0.2718
     56  CB        12.9230   21.0760   17.5710 C.3   219  ASP219      0.1424
     57  CG        12.3600   19.7910   18.1720 C.2   219  ASP219      0.3668
     58  OD1       11.1470   19.7410   18.4890 O.co2 219  ASP219     -0.2456
     59  OD2       13.1410   18.8270   18.3390 O.co2 219  ASP219     -0.2456
     60  N          9.6850   21.5700   15.9970 N.am  220  MET220     -0.1979
     61  CA         8.8380   21.0200   14.9450 C.3   220  MET220      0.1605
     62  C          8.4840   22.1000   13.9410 C.2   220  MET220      0.2287
     63  O          8.4420   23.2820   14.2820 O.2   220  MET220     -0.2864
     64  CB         7.5730   20.3810   15.5220 C.3   220  MET220      0.0413
     65  CG         7.8400   19.1060   16.2990 C.3   220  MET220      0.0598
     66  SD         6.3200   18.2960   16.8270 S.3   220  MET220     -0.1393
     67  CE         5.9300   17.3470   15.3560 C.3   220  MET220      0.0692
     68  N          5.3050   25.5960   20.3760 N.3   234  PHE234     -0.1227
     69  CA         3.9580   25.4990   20.9260 C.3   234  PHE234      0.1736
     70  C          3.9550   24.7230   22.2380 C.2   234  PHE234      0.2595
     71  O          4.8910   23.9630   22.5180 O.2   234  PHE234     -0.2718
     72  CB         3.0150   24.8370   19.9190 C.3   234  PHE234      0.0547
     73  CG         3.4080   23.4300   19.5430 C.ar  234  PHE234     -0.0202
     74  CD1        3.0950   22.3560   20.3720 C.ar  234  PHE234     -0.0042
     75  CD2        4.0630   23.1790   18.3450 C.ar  234  PHE234     -0.0042
     76  CE1        3.4480   21.0550   20.0160 C.ar  234  PHE234     -0.0003
     77  CE2        4.4130   21.8870   17.9830 C.ar  234  PHE234     -0.0003
     78  CZ         4.1080   20.8250   18.8190 C.ar  234  PHE234     -0.0000
     79  N          2.9030   24.9050   23.0330 N.am  235  ASN235     -0.1960
     80  CA         2.7690   24.1550   24.2790 C.3   235  ASN235      0.1819
     81  C          1.3270   23.8540   24.6540 C.2   235  ASN235      0.2622
     82  O          0.4170   24.6280   24.3490 O.2   235  ASN235     -0.2715
     83  CB         3.3880   24.9340   25.4340 C.3   235  ASN235      0.1195
     84  CG         2.5690   26.1500   25.8050 C.2   235  ASN235      0.2630
     85  OD1        2.5680   27.1470   25.0880 O.2   235  ASN235     -0.2716
     86  ND2        1.8520   26.0680   26.9200 N.am  235  ASN235     -0.0877
     87  N          1.1310   22.7300   25.3320 N.am  236  GLY236     -0.1940
     88  CA        -0.0940   22.4980   26.0740 C.3   236  GLY236      0.2014
     89  C          0.2980   22.3970   27.5350 C.2   236  GLY236      0.2639
     90  O          1.2760   23.0230   27.9720 O.2   236  GLY236     -0.2714
     91  N         -0.4590   21.6160   28.2940 N.am  237  TRP237     -0.1959
     92  CA        -0.0280   21.1890   29.6220 C.3   237  TRP237      0.1771
     93  C          0.3230   19.7060   29.5570 C.2   237  TRP237      0.2620
     94  O         -0.0710   19.0140   28.6170 O.2   237  TRP237     -0.2715
     95  CB        -1.1270   21.4380   30.6550 C.3   237  TRP237      0.0590
     96  CG        -2.4620   20.9420   30.1910 C.ar  237  TRP237      0.0006
     97  CD1       -2.8990   19.6460   30.1790 C.ar  237  TRP237      0.0946
     98  CD2       -3.5320   21.7320   29.6650 C.ar  237  TRP237      0.0152
     99  NE1       -4.1790   19.5870   29.6800 N.ar  237  TRP237     -0.2442
    100  CE2       -4.5910   20.8580   29.3590 C.ar  237  TRP237      0.0810
    101  CE3       -3.6990   23.1030   29.4270 C.ar  237  TRP237      0.0012
    102  CZ2       -5.7970   21.3020   28.8170 C.ar  237  TRP237      0.0191
    103  CZ3       -4.9000   23.5480   28.9000 C.ar  237  TRP237      0.0001
    104  CH2       -5.9330   22.6520   28.6000 C.ar  237  TRP237      0.0015
    105  N          1.0620   19.2180   30.5480 N.am  238  TYR238     -0.1960
    106  CA         1.4790   17.8200   30.5630 C.3   238  TYR238      0.1771
    107  C          0.3250   16.8660   30.8510 C.2   238  TYR238      0.2619
    108  O         -0.5950   17.1880   31.6040 O.2   238  TYR238     -0.2715
    109  CB         2.5510   17.5990   31.6300 C.3   238  TYR238      0.0574
    110  CG         3.9810   17.7170   31.1470 C.ar  238  TYR238     -0.0198
    111  CD1        4.5420   16.7430   30.3300 C.ar  238  TYR238     -0.0009
    112  CD2        4.7820   18.7780   31.5410 C.ar  238  TYR238     -0.0009
    113  CE1        5.8640   16.8300   29.9050 C.ar  238  TYR238      0.0417
    114  CE2        6.1100   18.8720   31.1220 C.ar  238  TYR238      0.0417
    115  CZ         6.6390   17.8960   30.3050 C.ar  238  TYR238      0.1957
    116  OH         7.9480   17.9750   29.8770 O.3   238  TYR238     -0.2866
    117  N          0.3790   15.6880   30.2430 N.am  239  MET239     -0.1977
    118  CA        -0.3640   14.5550   30.7510 C.3   239  MET239      0.1605
    119  C          0.6030   13.8970   31.7230 C.2   239  MET239      0.2287
    120  O          1.8000   13.7770   31.4270 O.2   239  MET239     -0.2864
    121  CB        -0.7590   13.6010   29.6230 C.3   239  MET239      0.0413
    122  CG        -1.6170   12.4340   30.0780 C.3   239  MET239      0.0598
    123  SD        -2.4360   11.6150   28.6910 S.3   239  MET239     -0.1393
    124  CE        -1.1000   10.6270   28.0140 C.3   239  MET239      0.0692
    125  N          3.4720   11.3850   30.9290 N.3   242  GLU242     -0.1245
    126  CA         4.6480   11.8040   30.1630 C.3   242  GLU242      0.1567
    127  C          5.8480   11.9810   31.0770 C.2   242  GLU242      0.2260
    128  O          6.9880   11.7190   30.6930 O.2   242  GLU242     -0.2867
    129  CB         4.3860   13.1180   29.4270 C.3   242  GLU242      0.0388
    130  CG         3.2710   13.0600   28.4170 C.3   242  GLU242      0.1160
    131  CD         3.1050   14.3870   27.7020 C.2   242  GLU242      0.3649
    132  OE1        3.9070   14.6490   26.7780 O.co2 242  GLU242     -0.2457
    133  OE2        2.1910   15.1670   28.0700 O.co2 242  GLU242     -0.2457
    134  N          7.4880    7.9890   31.6100 N.3   246  ARG246     -0.1245
    135  CA         8.5010    8.0370   30.5610 C.3   246  ARG246      0.1563
    136  C          9.7430    8.8270   30.9760 C.2   246  ARG246      0.2260
    137  O         10.8240    8.2490   31.1090 O.2   246  ARG246     -0.2867
    138  CB         7.9020    8.5850   29.2570 C.3   246  ARG246      0.0307
    139  CG         6.6660    7.8350   28.7630 C.3   246  ARG246      0.0489
    140  CD         6.9820    6.3520   28.4250 C.3   246  ARG246      0.2205
    141  NE         8.2060    6.2360   27.6220 N.pl3 246  ARG246     -0.0865
    142  CZ         8.2750    6.4970   26.3160 C.cat 246  ARG246      0.5346
    143  NH1        7.1930    6.8880   25.6570 N.pl3 246  ARG246      0.1354
    144  NH2        9.4270    6.3780   25.6680 N.pl3 246  ARG246      0.1354
    145  N         16.2070    7.3970   30.2460 N.3   253  ARG253     -0.1245
    146  CA        16.0080    8.7490   30.7650 C.3   253  ARG253      0.1563
    147  C         16.4900    8.8010   32.2110 C.2   253  ARG253      0.2260
    148  O         17.6240    8.4270   32.4940 O.2   253  ARG253     -0.2867
    149  CB        14.5400    9.1610   30.6570 C.3   253  ARG253      0.0307
    150  CG        13.9740    9.1200   29.2390 C.3   253  ARG253      0.0489
    151  CD        14.6350   10.1480   28.3050 C.3   253  ARG253      0.2205
    152  NE        14.3670   11.5450   28.6740 N.pl3 253  ARG253     -0.0865
    153  CZ        13.2040   12.1710   28.4780 C.cat 253  ARG253      0.5346
    154  NH1       12.1790   11.5220   27.9360 N.pl3 253  ARG253      0.1354
    155  NH2       13.0580   13.4480   28.8300 N.pl3 253  ARG253      0.1354
    156  N          0.7000    5.9810   19.6590 N.3   328  TRP328     -0.1241
    157  CA         1.0500    7.1320   20.4880 C.3   328  TRP328      0.1605
    158  C         -0.0990    7.5960   21.3680 C.2   328  TRP328      0.2264
    159  O          0.1260    8.1660   22.4400 O.2   328  TRP328     -0.2867
    160  CB         1.5460    8.3070   19.6260 C.3   328  TRP328      0.0550
    161  CG         2.9830    8.1810   19.2300 C.ar  328  TRP328      0.0003
    162  CD1        3.5650    7.1290   18.5710 C.ar  328  TRP328      0.0946
    163  CD2        4.0280    9.1330   19.4690 C.ar  328  TRP328      0.0152
    164  NE1        4.9060    7.3710   18.3890 N.ar  328  TRP328     -0.2442
    165  CE2        5.2150    8.5970   18.9270 C.ar  328  TRP328      0.0810
    166  CE3        4.0720   10.3930   20.0800 C.ar  328  TRP328      0.0012
    167  CZ2        6.4400    9.2770   18.9830 C.ar  328  TRP328      0.0191
    168  CZ3        5.2850   11.0680   20.1340 C.ar  328  TRP328      0.0001
    169  CH2        6.4540   10.5060   19.5890 C.ar  328  TRP328      0.0015
    170  N          8.2970   16.7290   11.9970 N.3   356  TYR356     -0.1241
    171  CA         9.6920   16.6650   12.4010 C.3   356  TYR356      0.1605
    172  C         10.5370   17.3890   11.3680 C.2   356  TYR356      0.2264
    173  O         10.1370   17.5180   10.2100 O.2   356  TYR356     -0.2867
    174  CB        10.1550   15.2120   12.4940 C.3   356  TYR356      0.0534
    175  CG         9.5550   14.4540   13.6480 C.ar  356  TYR356     -0.0201
    176  CD1        9.1110   15.1210   14.7860 C.ar  356  TYR356     -0.0009
    177  CD2        9.4350   13.0700   13.6050 C.ar  356  TYR356     -0.0009
    178  CE1        8.5610   14.4280   15.8480 C.ar  356  TYR356      0.0417
    179  CE2        8.8820   12.3650   14.6620 C.ar  356  TYR356      0.0417
    180  CZ         8.4490   13.0510   15.7780 C.ar  356  TYR356      0.1957
    181  OH         7.9040   12.3590   16.8300 O.3   356  TYR356     -0.2866
    182  N         17.7230   17.8940   12.9200 N.3   359  LYS359     -0.1245
    183  CA        18.4760   18.6160   13.9340 C.3   359  LYS359      0.1561
    184  C         19.7300   19.2340   13.3230 C.2   359  LYS359      0.2260
    185  O         20.4690   18.5600   12.6040 O.2   359  LYS359     -0.2867
    186  CB        18.8470   17.6780   15.0880 C.3   359  LYS359      0.0271
    187  CG        17.6870   17.3810   16.0340 C.3   359  LYS359      0.0035
    188  CD        17.1380   18.6900   16.5970 C.3   359  LYS359      0.0206
    189  CE        16.1160   18.4810   17.7060 C.3   359  LYS359      0.1093
    190  NZ        15.9680   19.7190   18.5370 N.3   359  LYS359     -0.1314
@<TRIPOS>BOND
     1   173   172    2
     2   172   171    1
     3   170   171    1
     4   171   174    1
     5   174   175    1
     6   185   184    2
     7   182   183    1
     8   184   183    1
     9   177   175   ar
    10   177   179   ar
    11   175   176   ar
    12   183   186    1
    13    62    63    2
    14    62    61    1
    15   179   180   ar
    16   176   178   ar
    17    61    64    1
    18    61    60    1
    19   186   187    1
    20    55    54    2
    21    67    66    1
    22    64    65    1
    23   180   178   ar
    24   180   181    1
    25    54    60   am
    26    54    53    1
    27   187   188    1
    28    65    66    1
    29   188   189    1
    30    53    56    1
    31    53    52    1
    32    56    57    1
    33   189   190    1
    34    77    75   ar
    35    77    78   ar
    36    57    59   ar
    37    57    58   ar
    38    75    73   ar
    39   164   162   ar
    40   164   165   ar
    41   162   161   ar
    42    78    76   ar
    43   165   167   ar
    44   165   163   ar
    45   167   169   ar
    46     1     2    1
    47   161   163   ar
    48   161   160    1
    49   163   166   ar
    50    73    72    1
    51    73    74   ar
    52   169   168   ar
    53   160   157    1
    54   156   157    1
    55     5     2    1
    56     5     6    1
    57    50    48    1
    58    72    69    1
    59    76    74   ar
    60     4     3    2
    61   166   168   ar
    62     2     3    1
    63    47    46    2
    64    68    69    1
    65   157   158    1
    66    46    45    1
    67    69    70    1
    68    48    45    1
    69    48    49    1
    70    13    15   ar
    71    13    12   ar
    72   158   159    2
    73     8     7    1
    74     8    11    1
    75     8     9    1
    76    15    16   ar
    77    10     9    2
    78    45    44    1
    79    11    12    1
    80    49    51    1
    81    12    14   ar
    82    70    71    2
    83    70    79   am
    84     9    17   am
    85    16    14   ar
    86    79    80    1
    87    17    18    1
    88    18    19    1
    89    18    21    1
    90    80    81    1
    91    80    83    1
    92    82    81    2
    93    81    87   am
    94    19    20    2
    95    22    21    1
    96    22    23    1
    97    35    34    1
    98    85    84    2
    99    87    88    1
   100    83    84    1
   101    25    23   am
   102   143   142    1
   103   144   142    1
   104    84    86   am
   105    23    24    2
   106    34    36    1
   107    34    33    2
   108    88    89    1
   109    40    39    2
   110   142   141    2
   111    39    38    1
   112    32    33    1
   113    32    31    1
   114   132   131   ar
   115    89    90    2
   116    89    91   am
   117   141   140    1
   118   131   133   ar
   119   131   130    1
   120    41    38    1
   121    41    42    1
   122    38    37    1
   123    31    30    1
   124    30    27    1
   125   154   153    1
   126   124   123    1
   127    42    43    1
   128    91    92    1
   129   151   152    1
   130   151   150    1
   131   130   129    1
   132   140   139    1
   133   153   152    2
   134   153   155    1
   135   104   102   ar
   136   104   103   ar
   137    94    93    2
   138   123   122    1
   139   139   138    1
   140   102   100   ar
   141   103   101   ar
   142    37    43    1
   143    26    27    1
   144   150   149    1
   145   138   135    1
   146    27    28    1
   147   100    98   ar
   148   100    99   ar
   149   129   126    1
   150   101    98   ar
   151    93    92    1
   152    93   105   am
   153    92    95    1
   154   121   122    1
   155   121   118    1
   156    98    96   ar
   157    99    97   ar
   158   116   115    1
   159   113   115   ar
   160   113   111   ar
   161    28    29    2
   162   126   125    1
   163   126   127    1
   164    97    96   ar
   165    96    95    1
   166   117   118    1
   167   117   107   am
   168   145   146    1
   169   115   114   ar
   170   111   110   ar
   171   105   106    1
   172   135   136    1
   173   135   134    1
   174   106   107    1
   175   106   109    1
   176   149   146    1
   177   128   127    2
   178   118   119    1
   179   146   147    1
   180   107   108    2
   181   136   137    2
   182   114   112   ar
   183   110   112   ar
   184   110   109    1
   185   120   119    2
   186   147   148    2
