@<TRIPOS>MOLECULE
tmp/5g6gA02.pdb
 159 158 0 0 0
SMALL
GASTEIGER

@<TRIPOS>ATOM
      1  N         -1.6860   13.1050   18.8420 N.3    65  CYS65      -0.1235
      2  CA        -2.0570   13.9500   19.9810 C.3    65  CYS65       0.1677
      3  C         -3.4300   13.6410   20.5710 C.2    65  CYS65       0.2270
      4  O         -4.4560   13.7330   19.8810 O.2    65  CYS65      -0.2867
      5  CB        -1.9820   15.4370   19.6220 C.3    65  CYS65       0.0956
      6  SG        -2.4380   16.5270   20.9870 S.3    65  CYS65      -0.0801
      7  N         15.0230   21.3630   21.6090 N.3   127  HIS127     -0.1226
      8  CA        13.9300   20.4450   21.2960 C.3   127  HIS127      0.1752
      9  C         12.6970   20.8810   22.0740 C.2   127  HIS127      0.2595
     10  O         11.5890   20.8600   21.5480 O.2   127  HIS127     -0.2718
     11  CB        14.3340   18.9880   21.5360 C.3   127  HIS127      0.0759
     12  CG        15.3010   18.4780   20.5120 C.ar  127  HIS127      0.0818
     13  ND1       14.9120   18.1350   19.2320 N.ar  127  HIS127     -0.2268
     14  CD2       16.6450   18.2940   20.5620 C.ar  127  HIS127      0.1154
     15  CE1       15.9700   17.7340   18.5480 C.ar  127  HIS127      0.1986
     16  NE2       17.0350   17.8320   19.3270 N.ar  127  HIS127     -0.2212
     17  N         12.9120   21.3440   23.3010 N.am  128  GLN128     -0.1979
     18  CA        11.9160   22.1550   23.9740 C.3   128  GLN128      0.1601
     19  C         12.5940   23.4120   24.4790 C.2   128  GLN128      0.2287
     20  O         13.7810   23.3740   24.7970 O.2   128  GLN128     -0.2864
     21  CB        11.2820   21.4000   25.1360 C.3   128  GLN128      0.0394
     22  CG        10.4180   20.1690   24.6910 C.3   128  GLN128      0.0908
     23  CD         9.8650   19.3960   25.8850 C.2   128  GLN128      0.2608
     24  OE1       10.1270   19.7460   27.0360 O.2   128  GLN128     -0.2717
     25  NE2        9.0870   18.3550   25.6160 N.am  128  GLN128     -0.0878
     26  N         14.2300   22.5010   28.8080 N.3   131  ARG131     -0.1245
     27  CA        14.6750   21.1140   28.9130 C.3   131  ARG131      0.1563
     28  C         15.9320   21.0030   29.7780 C.2   131  ARG131      0.2260
     29  O         16.6610   21.9730   29.9180 O.2   131  ARG131     -0.2867
     30  CB        14.9190   20.4840   27.5160 C.3   131  ARG131      0.0307
     31  CG        14.1710   19.1370   27.4020 C.3   131  ARG131      0.0489
     32  CD        14.4640   18.3680   26.1500 C.3   131  ARG131      0.2205
     33  NE        13.7910   17.0640   26.2080 N.pl3 131  ARG131     -0.0865
     34  CZ        13.8470   16.1530   25.2410 C.cat 131  ARG131      0.5346
     35  NH1       14.5440   16.3940   24.1340 N.pl3 131  ARG131      0.1354
     36  NH2       13.2040   15.0000   25.3750 N.pl3 131  ARG131      0.1354
     37  N          5.8600   21.9520   28.8340 N.3   215  PRO215     -0.2116
     38  CA         6.5380   21.2930   27.7140 C.3   215  PRO215      0.1372
     39  C          6.3060   22.1500   26.5020 C.2   215  PRO215      0.2244
     40  O          5.1550   22.2690   26.0890 O.2   215  PRO215     -0.2868
     41  CB         5.7710   19.9700   27.5660 C.3   215  PRO215      0.0268
     42  CG         4.3490   20.2840   28.1050 C.3   215  PRO215      0.0207
     43  CD         4.4440   21.5510   28.9540 C.3   215  PRO215      0.0892
     44  N          7.3690   22.5190   22.7710 N.3   217  ILE217     -0.1245
     45  CA         8.0940   21.7790   21.7250 C.3   217  ILE217      0.1561
     46  C          8.6310   22.7620   20.6760 C.2   217  ILE217      0.2260
     47  O          7.8450   23.5140   20.0780 O.2   217  ILE217     -0.2867
     48  CB         7.1710   20.7200   21.0490 C.3   217  ILE217      0.0252
     49  CG1        7.0590   19.4730   21.9160 C.3   217  ILE217      0.0019
     50  CG2        7.7500   20.2540   19.7120 C.3   217  ILE217      0.0019
     51  CD1        6.5550   19.6900   23.3310 C.3   217  ILE217      0.0001
     52  N         10.9680   21.9730   17.9420 N.3   219  ASP219     -0.1225
     53  CA        11.7320   21.3560   16.8510 C.3   219  ASP219      0.1805
     54  C         10.8630   20.8960   15.6790 C.2   219  ASP219      0.2597
     55  O         11.3510   20.2560   14.7480 O.2   219  ASP219     -0.2718
     56  CB        12.6060   20.1940   17.3610 C.3   219  ASP219      0.1424
     57  CG        11.7980   19.0610   18.0160 C.2   219  ASP219      0.3668
     58  OD1       10.5440   19.0690   17.9590 O.co2 219  ASP219     -0.2456
     59  OD2       12.4380   18.1460   18.5970 O.co2 219  ASP219     -0.2456
     60  N          9.5770   21.2320   15.7100 N.am  220  MET220     -0.1979
     61  CA         8.7260   20.8030   14.6120 C.3   220  MET220      0.1605
     62  C          8.3870   21.9420   13.6970 C.2   220  MET220      0.2287
     63  O          8.3440   23.1070   14.1160 O.2   220  MET220     -0.2864
     64  CB         7.4570   20.1520   15.1350 C.3   220  MET220      0.0413
     65  CG         7.7300   18.9420   16.0170 C.3   220  MET220      0.0598
     66  SD         6.1470   18.1930   16.4390 S.3   220  MET220     -0.1393
     67  CE         5.8090   17.3790   14.8500 C.3   220  MET220      0.0692
     68  N          5.4130   25.5590   20.2880 N.3   234  PHE234     -0.1227
     69  CA         4.0760   25.5260   20.8680 C.3   234  PHE234      0.1736
     70  C          4.0960   24.7300   22.1580 C.2   234  PHE234      0.2595
     71  O          5.0140   23.9170   22.3740 O.2   234  PHE234     -0.2718
     72  CB         3.1190   24.8870   19.8800 C.3   234  PHE234      0.0547
     73  CG         3.5410   23.5030   19.4170 C.ar  234  PHE234     -0.0202
     74  CD1        3.1170   22.3550   20.1070 C.ar  234  PHE234     -0.0042
     75  CD2        4.3290   23.3450   18.2700 C.ar  234  PHE234     -0.0042
     76  CE1        3.4800   21.0460   19.6650 C.ar  234  PHE234     -0.0003
     77  CE2        4.7100   22.0620   17.8240 C.ar  234  PHE234     -0.0003
     78  CZ         4.2860   20.8980   18.5280 C.ar  234  PHE234     -0.0000
     79  N          3.0920   24.9460   23.0110 N.am  235  ASN235     -0.1960
     80  CA         2.9630   24.1440   24.2390 C.3   235  ASN235      0.1819
     81  C          1.5190   23.7150   24.5430 C.2   235  ASN235      0.2622
     82  O          0.5540   24.3650   24.1150 O.2   235  ASN235     -0.2715
     83  CB         3.4720   24.9340   25.4450 C.3   235  ASN235      0.1195
     84  CG         2.5480   26.0780   25.8080 C.2   235  ASN235      0.2630
     85  OD1        2.5880   27.1240   25.1630 O.2   235  ASN235     -0.2716
     86  ND2        1.6900   25.8810   26.8150 N.am  235  ASN235     -0.0877
     87  N          1.3780   22.6410   25.3040 N.am  236  GLY236     -0.1940
     88  CA         0.1180   22.3280   25.9430 C.3   236  GLY236      0.2014
     89  C          0.4270   22.3520   27.4210 C.2   236  GLY236      0.2639
     90  O          1.3650   23.0670   27.8410 O.2   236  GLY236     -0.2714
     91  N         -0.3750   21.6300   28.2120 N.am  237  TRP237     -0.1959
     92  CA         0.0340   21.1820   29.5550 C.3   237  TRP237      0.1771
     93  C          0.4040   19.7070   29.4500 C.2   237  TRP237      0.2620
     94  O          0.0750   19.0400   28.4550 O.2   237  TRP237     -0.2715
     95  CB        -1.0800   21.3800   30.5990 C.3   237  TRP237      0.0590
     96  CG        -2.4050   20.8960   30.1420 C.ar  237  TRP237      0.0006
     97  CD1       -2.8500   19.6070   30.1330 C.ar  237  TRP237      0.0946
     98  CD2       -3.4790   21.7040   29.6230 C.ar  237  TRP237      0.0152
     99  NE1       -4.1410   19.5570   29.6330 N.ar  237  TRP237     -0.2442
    100  CE2       -4.5460   20.8320   29.3170 C.ar  237  TRP237      0.0810
    101  CE3       -3.6340   23.0750   29.3870 C.ar  237  TRP237      0.0012
    102  CZ2       -5.7510   21.2850   28.7610 C.ar  237  TRP237      0.0191
    103  CZ3       -4.8570   23.5380   28.8470 C.ar  237  TRP237      0.0001
    104  CH2       -5.8900   22.6360   28.5460 C.ar  237  TRP237      0.0015
    105  N          1.1170   19.1950   30.4470 N.am  238  TYR238     -0.1960
    106  CA         1.5230   17.8020   30.4520 C.3   238  TYR238      0.1771
    107  C          0.3510   16.8660   30.7310 C.2   238  TYR238      0.2619
    108  O         -0.5630   17.2160   31.5000 O.2   238  TYR238     -0.2715
    109  CB         2.5270   17.5860   31.5800 C.3   238  TYR238      0.0574
    110  CG         3.9590   17.7030   31.1270 C.ar  238  TYR238     -0.0198
    111  CD1        4.5050   16.7590   30.2570 C.ar  238  TYR238     -0.0009
    112  CD2        4.7630   18.7520   31.5560 C.ar  238  TYR238     -0.0009
    113  CE1        5.8080   16.8560   29.8260 C.ar  238  TYR238      0.0417
    114  CE2        6.1000   18.8480   31.1360 C.ar  238  TYR238      0.0417
    115  CZ         6.6000   17.8970   30.2700 C.ar  238  TYR238      0.1957
    116  OH         7.9010   17.9680   29.8300 O.3   238  TYR238     -0.2866
    117  N          0.4040   15.6730   30.1320 N.am  239  MET239     -0.1977
    118  CA        -0.3270   14.5180   30.6340 C.3   239  MET239      0.1605
    119  C          0.6100   13.8400   31.6410 C.2   239  MET239      0.2287
    120  O          1.7910   13.6370   31.3460 O.2   239  MET239     -0.2864
    121  CB        -0.6500   13.5400   29.5080 C.3   239  MET239      0.0413
    122  CG        -1.5170   12.4150   29.9980 C.3   239  MET239      0.0598
    123  SD        -2.4450   11.5880   28.7080 S.3   239  MET239     -0.1393
    124  CE        -1.1410   10.6270   27.8770 C.3   239  MET239      0.0692
    125  N          3.5250   11.3730   30.8280 N.3   242  GLU242     -0.1245
    126  CA         4.7050   11.7150   30.0110 C.3   242  GLU242      0.1567
    127  C          5.8930   11.8990   30.9440 C.2   242  GLU242      0.2260
    128  O          7.0480   11.6010   30.6210 O.2   242  GLU242     -0.2867
    129  CB         4.4590   13.0110   29.2360 C.3   242  GLU242      0.0388
    130  CG         3.2410   12.9610   28.3070 C.3   242  GLU242      0.1160
    131  CD         3.0660   14.2890   27.5640 C.2   242  GLU242      0.3649
    132  OE1        3.8700   14.5760   26.6380 O.co2 242  GLU242     -0.2457
    133  OE2        2.1420   15.0610   27.9190 O.co2 242  GLU242     -0.2457
    134  N          0.6220    5.8880   19.4120 N.3   328  TRP328     -0.1241
    135  CA         0.9720    7.0250   20.2890 C.3   328  TRP328      0.1605
    136  C         -0.1810    7.5150   21.0980 C.2   328  TRP328      0.2264
    137  O          0.0290    8.1730   22.1400 O.2   328  TRP328     -0.2867
    138  CB         1.4960    8.2380   19.5210 C.3   328  TRP328      0.0550
    139  CG         2.8870    8.0970   19.0650 C.ar  328  TRP328      0.0003
    140  CD1        3.3900    7.0990   18.2700 C.ar  328  TRP328      0.0946
    141  CD2        3.9800    8.9940   19.3340 C.ar  328  TRP328      0.0152
    142  NE1        4.7300    7.3180   18.0380 N.ar  328  TRP328     -0.2442
    143  CE2        5.1170    8.4740   18.6750 C.ar  328  TRP328      0.0810
    144  CE3        4.1050   10.1840   20.0660 C.ar  328  TRP328      0.0012
    145  CZ2        6.3720    9.1060   18.7140 C.ar  328  TRP328      0.0191
    146  CZ3        5.3460   10.8170   20.1110 C.ar  328  TRP328      0.0001
    147  CH2        6.4680   10.2690   19.4370 C.ar  328  TRP328      0.0015
    148  N          8.2370   16.6630   11.9140 N.3   356  TYR356     -0.1241
    149  CA         9.6450   16.4930   12.2550 C.3   356  TYR356      0.1605
    150  C         10.5090   17.1880   11.2150 C.2   356  TYR356      0.2264
    151  O         10.2250   17.1170   10.0130 O.2   356  TYR356     -0.2867
    152  CB         9.9800   14.9830   12.2100 C.3   356  TYR356      0.0534
    153  CG         9.5020   14.1630   13.4000 C.ar  356  TYR356     -0.0201
    154  CD1        8.2320   14.3410   13.9400 C.ar  356  TYR356     -0.0009
    155  CD2       10.3210   13.1890   13.9680 C.ar  356  TYR356     -0.0009
    156  CE1        7.8060   13.5950   15.0300 C.ar  356  TYR356      0.0417
    157  CE2        9.9000   12.4350   15.0550 C.ar  356  TYR356      0.0417
    158  CZ         8.6430   12.6460   15.5810 C.ar  356  TYR356      0.1957
    159  OH         8.2270   11.9090   16.6630 O.3   356  TYR356     -0.2866
@<TRIPOS>BOND
     1   151   150    2
     2   150   149    1
     3   148   149    1
     4   152   149    1
     5   152   153    1
     6   153   154   ar
     7   153   155   ar
     8    62    63    2
     9    62    61    1
    10   154   156   ar
    11   155   157   ar
    12    61    64    1
    13    61    60    1
    14    55    54    2
    15    67    66    1
    16   156   158   ar
    17   157   158   ar
    18    64    65    1
    19   158   159    1
    20    54    60   am
    21    54    53    1
    22    65    66    1
    23    53    56    1
    24    53    52    1
    25    56    57    1
    26    77    75   ar
    27    77    78   ar
    28    58    57   ar
    29    57    59   ar
    30   142   140   ar
    31   142   143   ar
    32    75    73   ar
    33   140   139   ar
    34    78    76   ar
    35    15    13   ar
    36    15    16   ar
    37   143   145   ar
    38   143   141   ar
    39   145   147   ar
    40     1     2    1
    41   139   141   ar
    42   139   138    1
    43    13    12   ar
    44    16    14   ar
    45   141   144   ar
    46   134   135    1
    47    73    72    1
    48    73    74   ar
    49   147   146   ar
    50   138   135    1
    51     5     2    1
    52     5     6    1
    53    76    74   ar
    54    50    48    1
    55    72    69    1
    56     4     3    2
    57     2     3    1
    58   144   146   ar
    59    47    46    2
    60    68    69    1
    61   135   136    1
    62    12    14   ar
    63    12    11    1
    64    46    45    1
    65    69    70    1
    66    48    45    1
    67    48    49    1
    68   136   137    2
    69     8    11    1
    70     8     7    1
    71     8     9    1
    72    10     9    2
    73    45    44    1
    74    49    51    1
    75     9    17   am
    76    70    71    2
    77    70    79   am
    78    79    80    1
    79    17    18    1
    80    18    19    1
    81    18    21    1
    82    82    81    2
    83    35    34    1
    84    80    81    1
    85    80    83    1
    86    19    20    2
    87    81    87   am
    88    22    21    1
    89    22    23    1
    90    85    84    2
    91    34    36    1
    92    34    33    2
    93    87    88    1
    94    83    84    1
    95    25    23   am
    96    84    86   am
    97    23    24    2
    98    88    89    1
    99    40    39    2
   100    32    33    1
   101    32    31    1
   102    39    38    1
   103   132   131   ar
   104    31    30    1
   105    89    90    2
   106    89    91   am
   107    30    27    1
   108   131   133   ar
   109   131   130    1
   110    41    38    1
   111    41    42    1
   112    38    37    1
   113   124   123    1
   114    42    43    1
   115    91    92    1
   116   130   129    1
   117    94    93    2
   118   104   102   ar
   119   104   103   ar
   120   123   122    1
   121   102   100   ar
   122    26    27    1
   123    37    43    1
   124   103   101   ar
   125    27    28    1
   126   129   126    1
   127   100    98   ar
   128   100    99   ar
   129   101    98   ar
   130    93    92    1
   131    93   105   am
   132   121   122    1
   133   121   118    1
   134    92    95    1
   135    98    96   ar
   136    99    97   ar
   137    28    29    2
   138   113   111   ar
   139   113   115   ar
   140   116   115    1
   141   126   125    1
   142   126   127    1
   143   117   118    1
   144   117   107   am
   145    97    96   ar
   146    96    95    1
   147   111   110   ar
   148   115   114   ar
   149   105   106    1
   150   106   107    1
   151   106   109    1
   152   128   127    2
   153   118   119    1
   154   107   108    2
   155   110   112   ar
   156   110   109    1
   157   114   112   ar
   158   120   119    2
