@<TRIPOS>MOLECULE
tmp/5g6iA02.pdb
 172 169 0 0 0
SMALL
GASTEIGER

@<TRIPOS>ATOM
      1  N         -1.6700   13.1130   18.9200 N.3    65  CYS65      -0.1235
      2  CA        -2.0310   13.9510   20.0530 C.3    65  CYS65       0.1677
      3  C         -3.3760   13.6080   20.6950 C.2    65  CYS65       0.2270
      4  O         -4.4180   13.6440   20.0370 O.2    65  CYS65      -0.2867
      5  CB        -2.0560   15.4170   19.6390 C.3    65  CYS65       0.0956
      6  SG        -2.4530   16.4790   21.0290 S.3    65  CYS65      -0.0801
      7  N         14.9660   21.1240   21.5430 N.3   127  HIS127     -0.1226
      8  CA        13.8480   20.2120   21.3220 C.3   127  HIS127      0.1752
      9  C         12.6410   20.7640   22.0870 C.2   127  HIS127      0.2595
     10  O         11.5370   20.8190   21.5640 O.2   127  HIS127     -0.2718
     11  CB        14.1880   18.7860   21.7560 C.3   127  HIS127      0.0759
     12  CG        12.9810   17.9190   21.9660 C.ar  127  HIS127      0.0818
     13  ND1       12.1290   17.5690   20.9390 N.ar  127  HIS127     -0.2268
     14  CD2       12.4800   17.3390   23.0840 C.ar  127  HIS127      0.1154
     15  CE1       11.1500   16.8160   21.4160 C.ar  127  HIS127      0.1986
     16  NE2       11.3370   16.6620   22.7160 N.ar  127  HIS127     -0.2212
     17  N         12.8630   21.1810   23.3290 N.am  128  GLN128     -0.1979
     18  CA        11.8860   22.0050   24.0360 C.3   128  GLN128      0.1601
     19  C         12.5770   23.2320   24.6130 C.2   128  GLN128      0.2287
     20  O         13.7460   23.1650   25.0050 O.2   128  GLN128     -0.2864
     21  CB        11.1970   21.2240   25.1500 C.3   128  GLN128      0.0394
     22  CG        10.3040   20.0770   24.6470 C.3   128  GLN128      0.0908
     23  CD         9.7050   19.2630   25.7690 C.2   128  GLN128      0.2608
     24  OE1        9.5330   19.7530   26.8850 O.2   128  GLN128     -0.2717
     25  NE2        9.3760   18.0080   25.4790 N.am  128  GLN128     -0.0878
     26  N         14.2360   22.4120   28.9590 N.3   131  ARG131     -0.1245
     27  CA        14.6570   21.0180   29.0880 C.3   131  ARG131      0.1563
     28  C         15.9570   20.8960   29.8750 C.2   131  ARG131      0.2260
     29  O         16.7110   21.8610   29.9800 O.2   131  ARG131     -0.2867
     30  CB        14.8190   20.3410   27.7200 C.3   131  ARG131      0.0307
     31  CG        13.9660   19.0590   27.6460 C.3   131  ARG131      0.0489
     32  CD        14.3330   18.1600   26.5260 C.3   131  ARG131      0.2205
     33  NE        13.5220   16.9480   26.5810 N.pl3 131  ARG131     -0.0865
     34  CZ        13.7480   15.8670   25.8410 C.cat 131  ARG131      0.5346
     35  NH1       14.7810   15.8490   24.9940 N.pl3 131  ARG131      0.1354
     36  NH2       12.9560   14.7990   25.9550 N.pl3 131  ARG131      0.1354
     37  N         18.5800   11.9190   27.0140 N.3   146  ALA146     -0.1245
     38  CA        17.9900   12.3690   25.7590 C.3   146  ALA146      0.1562
     39  C         18.6050   13.6920   25.3160 C.2   146  ALA146      0.2260
     40  O         18.5550   14.0390   24.1360 O.2   146  ALA146     -0.2867
     41  CB        16.4990   12.5170   25.9010 C.3   146  ALA146      0.0290
     42  N          5.8670   21.8610   28.8750 N.3   215  PRO215     -0.2116
     43  CA         6.5880   21.2840   27.7420 C.3   215  PRO215      0.1372
     44  C          6.3450   22.1340   26.5110 C.2   215  PRO215      0.2244
     45  O          5.2240   22.1980   26.0560 O.2   215  PRO215     -0.2868
     46  CB         5.9360   19.8940   27.5780 C.3   215  PRO215      0.0268
     47  CG         4.5520   20.0460   28.1150 C.3   215  PRO215      0.0207
     48  CD         4.5640   21.2050   29.1090 C.3   215  PRO215      0.0892
     49  N          7.3670   22.4030   22.7980 N.3   217  VAL217     -0.1245
     50  CA         8.0830   21.7200   21.7110 C.3   217  VAL217      0.1561
     51  C          8.5310   22.7160   20.6400 C.2   217  VAL217      0.2260
     52  O          7.7080   23.4220   20.0480 O.2   217  VAL217     -0.2867
     53  CB         7.2130   20.5920   21.1270 C.3   217  VAL217      0.0252
     54  CG1        7.8480   19.9620   19.8750 C.3   217  VAL217      0.0019
     55  CG2        6.9790   19.5520   22.2120 C.3   217  VAL217      0.0019
     56  N         11.1100   22.1750   18.0690 N.3   219  ASP219     -0.1225
     57  CA        11.8510   21.6910   16.8950 C.3   219  ASP219      0.1805
     58  C         10.9990   21.0590   15.7800 C.2   219  ASP219      0.2597
     59  O         11.5320   20.3780   14.8940 O.2   219  ASP219     -0.2718
     60  CB        13.0040   20.7430   17.3010 C.3   219  ASP219      0.1424
     61  CG        12.5230   19.4470   17.9700 C.2   219  ASP219      0.3668
     62  OD1       11.2980   19.1620   17.9910 O.co2 219  ASP219     -0.2456
     63  OD2       13.3960   18.6950   18.4660 O.co2 219  ASP219     -0.2456
     64  N          9.6830   21.2770   15.8100 N.am  220  MET220     -0.1979
     65  CA         8.8520   20.8100   14.6970 C.3   220  MET220      0.1605
     66  C          8.4500   21.9300   13.7640 C.2   220  MET220      0.2287
     67  O          8.3540   23.0900   14.1640 O.2   220  MET220     -0.2864
     68  CB         7.6010   20.0890   15.1950 C.3   220  MET220      0.0413
     69  CG         7.8880   18.8320   16.0080 C.3   220  MET220      0.0598
     70  SD         6.3470   18.0500   16.5410 S.3   220  MET220     -0.1393
     71  CE         5.8660   17.1960   15.0420 C.3   220  MET220      0.0692
     72  N          5.3870   25.4020   20.2880 N.3   234  PHE234     -0.1227
     73  CA         4.0270   25.3300   20.7970 C.3   234  PHE234      0.1736
     74  C          4.0180   24.5370   22.0780 C.2   234  PHE234      0.2595
     75  O          4.9280   23.7350   22.3150 O.2   234  PHE234     -0.2718
     76  CB         3.1050   24.6680   19.7700 C.3   234  PHE234      0.0547
     77  CG         3.5390   23.2780   19.3450 C.ar  234  PHE234     -0.0202
     78  CD1        3.1770   22.1530   20.0900 C.ar  234  PHE234     -0.0042
     79  CD2        4.2680   23.0920   18.1760 C.ar  234  PHE234     -0.0042
     80  CE1        3.5530   20.8690   19.6820 C.ar  234  PHE234     -0.0003
     81  CE2        4.6560   21.8130   17.7760 C.ar  234  PHE234     -0.0003
     82  CZ         4.3000   20.7060   18.5260 C.ar  234  PHE234     -0.0000
     83  N          2.9910   24.7470   22.8970 N.am  235  ASN235     -0.1960
     84  CA         2.8500   23.9750   24.1140 C.3   235  ASN235      0.1819
     85  C          1.3970   23.6910   24.4520 C.2   235  ASN235      0.2622
     86  O          0.4960   24.4530   24.0620 O.2   235  ASN235     -0.2715
     87  CB         3.4730   24.7260   25.2890 C.3   235  ASN235      0.1195
     88  CG         2.6940   25.9770   25.6480 C.2   235  ASN235      0.2630
     89  OD1        2.8400   27.0100   25.0000 O.2   235  ASN235     -0.2716
     90  ND2        1.8470   25.8860   26.6620 N.am  235  ASN235     -0.0877
     91  N          1.1810   22.6020   25.1840 N.am  236  GLY236     -0.1940
     92  CA        -0.0430   22.4000   25.9260 C.3   236  GLY236      0.2014
     93  C          0.3490   22.3170   27.3860 C.2   236  GLY236      0.2639
     94  O          1.3280   22.9550   27.8150 O.2   236  GLY236     -0.2714
     95  N         -0.4200   21.5590   28.1620 N.am  237  TRP237     -0.1959
     96  CA         0.0140   21.1500   29.4990 C.3   237  TRP237      0.1771
     97  C          0.3490   19.6640   29.4400 C.2   237  TRP237      0.2620
     98  O         -0.0230   18.9740   28.4940 O.2   237  TRP237     -0.2715
     99  CB        -1.0580   21.4330   30.5530 C.3   237  TRP237      0.0590
    100  CG        -2.4010   20.9050   30.1570 C.ar  237  TRP237      0.0006
    101  CD1       -2.8160   19.6060   30.1860 C.ar  237  TRP237      0.0946
    102  CD2       -3.4900   21.6650   29.6320 C.ar  237  TRP237      0.0152
    103  NE1       -4.1230   19.5090   29.7240 N.ar  237  TRP237     -0.2442
    104  CE2       -4.5520   20.7630   29.3770 C.ar  237  TRP237      0.0810
    105  CE3       -3.6750   23.0230   29.3570 C.ar  237  TRP237      0.0012
    106  CZ2       -5.7720   21.1800   28.8480 C.ar  237  TRP237      0.0191
    107  CZ3       -4.8950   23.4350   28.8410 C.ar  237  TRP237      0.0001
    108  CH2       -5.9250   22.5190   28.5950 C.ar  237  TRP237      0.0015
    109  N          1.0790   19.1750   30.4300 N.am  238  TYR238     -0.1960
    110  CA         1.4850   17.7810   30.4570 C.3   238  TYR238      0.1771
    111  C          0.3200   16.8390   30.7800 C.2   238  TYR238      0.2619
    112  O         -0.5490   17.1720   31.5880 O.2   238  TYR238     -0.2715
    113  CB         2.5190   17.5890   31.5530 C.3   238  TYR238      0.0574
    114  CG         3.9550   17.6930   31.1040 C.ar  238  TYR238     -0.0198
    115  CD1        4.4990   16.7510   30.2380 C.ar  238  TYR238     -0.0009
    116  CD2        4.7760   18.6910   31.5860 C.ar  238  TYR238     -0.0009
    117  CE1        5.8240   16.8240   29.8410 C.ar  238  TYR238      0.0417
    118  CE2        6.1050   18.7700   31.2040 C.ar  238  TYR238      0.0417
    119  CZ         6.6210   17.8440   30.3310 C.ar  238  TYR238      0.1957
    120  OH         7.9360   17.9270   29.9550 O.3   238  TYR238     -0.2866
    121  N          0.3480   15.6570   30.1640 N.am  239  MET239     -0.1977
    122  CA        -0.3330   14.4870   30.6970 C.3   239  MET239      0.1605
    123  C          0.6490   13.8180   31.6430 C.2   239  MET239      0.2287
    124  O          1.8000   13.6000   31.2810 O.2   239  MET239     -0.2864
    125  CB        -0.7160   13.5300   29.5790 C.3   239  MET239      0.0413
    126  CG        -1.6390   12.4110   30.0450 C.3   239  MET239      0.0598
    127  SD        -2.4670   11.6530   28.6590 S.3   239  MET239     -0.1393
    128  CE        -1.1300   10.7230   27.9050 C.3   239  MET239      0.0692
    129  N          3.5910   11.2900   30.8630 N.3   242  GLU242     -0.1245
    130  CA         4.7420   11.6730   30.0370 C.3   242  GLU242      0.1567
    131  C          5.9260   11.8630   30.9510 C.2   242  GLU242      0.2260
    132  O          7.0600   11.5580   30.5950 O.2   242  GLU242     -0.2867
    133  CB         4.4740   12.9760   29.2850 C.3   242  GLU242      0.0388
    134  CG         3.3810   12.8820   28.2580 C.3   242  GLU242      0.1160
    135  CD         3.1240   14.2290   27.5990 C.2   242  GLU242      0.3649
    136  OE1        3.8390   14.5540   26.6150 O.co2 242  GLU242     -0.2457
    137  OE2        2.2240   14.9660   28.0740 O.co2 242  GLU242     -0.2457
    138  N          0.5520    5.9090   19.4830 N.3   328  TRP328     -0.1241
    139  CA         0.9200    7.0860   20.2750 C.3   328  TRP328      0.1605
    140  C         -0.2450    7.5840   21.0930 C.2   328  TRP328      0.2264
    141  O         -0.0520    8.2890   22.0920 O.2   328  TRP328     -0.2867
    142  CB         1.4090    8.2410   19.3940 C.3   328  TRP328      0.0550
    143  CG         2.8020    8.0990   18.9090 C.ar  328  TRP328      0.0003
    144  CD1        3.2930    7.1170   18.0890 C.ar  328  TRP328      0.0946
    145  CD2        3.9010    8.9700   19.1970 C.ar  328  TRP328      0.0152
    146  NE1        4.6340    7.3220   17.8560 N.ar  328  TRP328     -0.2442
    147  CE2        5.0320    8.4530   18.5220 C.ar  328  TRP328      0.0810
    148  CE3        4.0390   10.1380   19.9520 C.ar  328  TRP328      0.0012
    149  CZ2        6.2840    9.0660   18.5810 C.ar  328  TRP328      0.0191
    150  CZ3        5.2810   10.7460   20.0110 C.ar  328  TRP328      0.0001
    151  CH2        6.3930   10.2050   19.3310 C.ar  328  TRP328      0.0015
    152  N          8.2650   16.5070   11.7140 N.3   356  TYR356     -0.1241
    153  CA         9.6480   16.3980   12.1400 C.3   356  TYR356      0.1605
    154  C         10.5280   17.0970   11.1270 C.2   356  TYR356      0.2264
    155  O         10.1880   17.1580    9.9430 O.2   356  TYR356     -0.2867
    156  CB        10.0710   14.9240   12.2140 C.3   356  TYR356      0.0534
    157  CG         9.4310   14.1410   13.3290 C.ar  356  TYR356     -0.0201
    158  CD1        8.7670   14.7880   14.3680 C.ar  356  TYR356     -0.0009
    159  CD2        9.5050   12.7540   13.3600 C.ar  356  TYR356     -0.0009
    160  CE1        8.1820   14.0730   15.4050 C.ar  356  TYR356      0.0417
    161  CE2        8.9170   12.0220   14.3970 C.ar  356  TYR356      0.0417
    162  CZ         8.2620   12.6890   15.4140 C.ar  356  TYR356      0.1957
    163  OH         7.6840   11.9810   16.4470 O.3   356  TYR356     -0.2866
    164  N         17.7210   17.4920   12.8640 N.3   359  LYS359     -0.1245
    165  CA        18.4550   18.2710   13.8450 C.3   359  LYS359      0.1561
    166  C         19.7380   18.8500   13.2450 C.2   359  LYS359      0.2260
    167  O         20.4590   18.1560   12.5290 O.2   359  LYS359     -0.2867
    168  CB        18.7600   17.4130   15.0710 C.3   359  LYS359      0.0271
    169  CG        17.5020   17.0340   15.8320 C.3   359  LYS359      0.0035
    170  CD        17.7550   15.9770   16.8940 C.3   359  LYS359      0.0206
    171  CE        16.4500   15.6100   17.6120 C.3   359  LYS359      0.1093
    172  NZ        16.6700   14.5310   18.6130 N.3   359  LYS359     -0.1314
@<TRIPOS>BOND
     1   155   154    2
     2   154   153    1
     3   152   153    1
     4   153   156    1
     5   156   157    1
     6   167   166    2
     7   164   165    1
     8   166   165    1
     9   157   159   ar
    10   157   158   ar
    11   159   161   ar
    12    66    67    2
    13    66    65    1
    14   165   168    1
    15   158   160   ar
    16   161   162   ar
    17    65    68    1
    18    65    64    1
    19    59    58    2
    20    71    70    1
    21   168   169    1
    22    68    69    1
    23   160   162   ar
    24   162   163    1
    25    58    64   am
    26    58    57    1
    27   169   170    1
    28    69    70    1
    29   170   171    1
    30    57    60    1
    31    57    56    1
    32    60    61    1
    33   171   172    1
    34    81    79   ar
    35    81    82   ar
    36   146   144   ar
    37   146   147   ar
    38    61    62   ar
    39    61    63   ar
    40   144   143   ar
    41    79    77   ar
    42   147   149   ar
    43   147   145   ar
    44    82    80   ar
    45   149   151   ar
    46   143   145   ar
    47   143   142    1
    48     1     2    1
    49   145   148   ar
    50   151   150   ar
    51    77    76    1
    52    77    78   ar
    53   142   139    1
    54   138   139    1
    55     5     2    1
    56     5     6    1
    57    80    78   ar
    58    76    73    1
    59    54    53    1
    60   148   150   ar
    61     4     3    2
    62    52    51    2
    63     2     3    1
    64   139   140    1
    65    72    73    1
    66    51    50    1
    67    73    74    1
    68    13    15   ar
    69    13    12   ar
    70   140   141    2
    71    53    50    1
    72    53    55    1
    73     8     7    1
    74     8    11    1
    75     8     9    1
    76    15    16   ar
    77    10     9    2
    78    50    49    1
    79    11    12    1
    80    12    14   ar
    81    74    75    2
    82    74    83   am
    83     9    17   am
    84    16    14   ar
    85    83    84    1
    86    17    18    1
    87    18    19    1
    88    18    21    1
    89    86    85    2
    90    84    85    1
    91    84    87    1
    92    40    39    2
    93    85    91   am
    94    19    20    2
    95    22    21    1
    96    22    23    1
    97    35    34    1
    98    89    88    2
    99    91    92    1
   100    87    88    1
   101    39    38    1
   102    25    23   am
   103    88    90   am
   104    38    41    1
   105    38    37    1
   106    23    24    2
   107    34    36    1
   108    34    33    2
   109    92    93    1
   110    45    44    2
   111    44    43    1
   112    32    33    1
   113    32    31    1
   114   136   135   ar
   115    93    94    2
   116    93    95   am
   117    46    43    1
   118    46    47    1
   119   135   137   ar
   120   135   134    1
   121    31    30    1
   122    30    27    1
   123    43    42    1
   124   128   127    1
   125    47    48    1
   126    95    96    1
   127   134   133    1
   128    98    97    2
   129   108   107   ar
   130   108   106   ar
   131   127   126    1
   132   107   105   ar
   133   106   104   ar
   134    42    48    1
   135    26    27    1
   136    27    28    1
   137   133   130    1
   138   105   102   ar
   139   104   102   ar
   140   104   103   ar
   141    97    96    1
   142    97   109   am
   143    96    99    1
   144   125   126    1
   145   125   122    1
   146   102   100   ar
   147   103   101   ar
   148   117   115   ar
   149   117   119   ar
   150    28    29    2
   151   120   119    1
   152   130   129    1
   153   130   131    1
   154   100   101   ar
   155   100    99    1
   156   121   122    1
   157   121   111   am
   158   115   114   ar
   159   119   118   ar
   160   109   110    1
   161   110   111    1
   162   110   113    1
   163   132   131    2
   164   122   123    1
   165   111   112    2
   166   114   113    1
   167   114   116   ar
   168   118   116   ar
   169   124   123    2
