@<TRIPOS>MOLECULE
tmp/5g6kA02.pdb
 189 185 0 0 0
SMALL
GASTEIGER

@<TRIPOS>ATOM
      1  N         -1.6330   13.1330   18.9600 N.3    65  CYS65      -0.1235
      2  CA        -1.9790   13.9620   20.1350 C.3    65  CYS65       0.1677
      3  C         -3.3180   13.6460   20.7940 C.2    65  CYS65       0.2270
      4  O         -4.4000   13.7390   20.1520 O.2    65  CYS65      -0.2867
      5  CB        -1.9140   15.4590   19.8180 C.3    65  CYS65       0.0956
      6  SG        -2.4610   16.5550   21.1770 S.3    65  CYS65      -0.0801
      7  N         14.9610   21.3000   21.7410 N.3   127  HIS127     -0.1226
      8  CA        13.8420   20.3810   21.5190 C.3   127  HIS127      0.1752
      9  C         12.5960   20.8820   22.2830 C.2   127  HIS127      0.2595
     10  O         11.4750   20.8650   21.7610 O.2   127  HIS127     -0.2718
     11  CB        14.1760   18.9380   21.8950 C.3   127  HIS127      0.0759
     12  CG        12.9550   18.0930   22.1000 C.ar  127  HIS127      0.0818
     13  ND1       12.2010   17.6110   21.0450 N.ar  127  HIS127     -0.2268
     14  CD2       12.3530   17.6450   23.2330 C.ar  127  HIS127      0.1154
     15  CE1       11.1750   16.9170   21.5220 C.ar  127  HIS127      0.1986
     16  NE2       11.2430   16.9150   22.8470 N.ar  127  HIS127     -0.2212
     17  N         12.7940   21.3530   23.5140 N.am  128  GLN128     -0.1979
     18  CA        11.7820   22.1730   24.1850 C.3   128  GLN128      0.1601
     19  C         12.4720   23.3960   24.7680 C.2   128  GLN128      0.2287
     20  O         13.6480   23.3150   25.1320 O.2   128  GLN128     -0.2864
     21  CB        11.0930   21.3990   25.3060 C.3   128  GLN128      0.0394
     22  CG        10.3760   20.1130   24.8200 C.3   128  GLN128      0.0908
     23  CD         9.7400   19.3240   25.9660 C.2   128  GLN128      0.2608
     24  OE1        9.4860   19.8780   27.0670 O.2   128  GLN128     -0.2717
     25  NE2        9.4770   18.0240   25.7180 N.am  128  GLN128     -0.0878
     26  N         14.2320   22.5070   29.1210 N.3   131  ARG131     -0.1245
     27  CA        14.6720   21.1090   29.0910 C.3   131  ARG131      0.1563
     28  C         15.9330   20.9750   29.9690 C.2   131  ARG131      0.2260
     29  O         16.6770   21.9340   30.1030 O.2   131  ARG131     -0.2867
     30  CB        14.9850   20.7200   27.6400 C.3   131  ARG131      0.0307
     31  CG        15.1030   19.2510   27.3440 C.3   131  ARG131      0.0489
     32  CD        13.8110   18.5440   27.5150 C.3   131  ARG131      0.2205
     33  NE        13.8870   17.2560   26.8120 N.pl3 131  ARG131     -0.0865
     34  CZ        12.9450   16.3150   26.9150 C.cat 131  ARG131      0.5346
     35  NH1       11.8720   16.5320   27.7280 N.pl3 131  ARG131      0.1354
     36  NH2       13.0750   15.1550   26.2240 N.pl3 131  ARG131      0.1354
     37  N          5.8360   21.9600   29.0670 N.3   215  PRO215     -0.2116
     38  CA         6.6030   21.3910   27.9390 C.3   215  PRO215      0.1372
     39  C          6.3320   22.2150   26.7110 C.2   215  PRO215      0.2244
     40  O          5.1650   22.3340   26.3460 O.2   215  PRO215     -0.2868
     41  CB         5.9780   20.0060   27.7400 C.3   215  PRO215      0.0268
     42  CG         4.5660   20.1240   28.2850 C.3   215  PRO215      0.0207
     43  CD         4.5010   21.3400   29.2310 C.3   215  PRO215      0.0892
     44  N          7.3720   22.4820   22.9670 N.3   217  VAL217     -0.1245
     45  CA         8.1070   21.7880   21.9070 C.3   217  VAL217      0.1561
     46  C          8.5280   22.7850   20.8110 C.2   217  VAL217      0.2260
     47  O          7.6790   23.4570   20.1990 O.2   217  VAL217     -0.2867
     48  CB         7.2550   20.6520   21.3340 C.3   217  VAL217      0.0252
     49  CG1        7.9610   20.0050   20.1380 C.3   217  VAL217      0.0019
     50  CG2        6.9790   19.5890   22.4350 C.3   217  VAL217      0.0019
     51  N         11.0650   22.2920   18.2370 N.3   219  ASP219     -0.1225
     52  CA        11.8190   21.8110   17.0690 C.3   219  ASP219      0.1805
     53  C         10.9730   21.2020   15.9420 C.2   219  ASP219      0.2597
     54  O         11.5270   20.5880   15.0210 O.2   219  ASP219     -0.2718
     55  CB        12.9700   20.8470   17.4660 C.3   219  ASP219      0.1424
     56  CG        12.4900   19.5470   18.1740 C.2   219  ASP219      0.3668
     57  OD1       11.2720   19.2300   18.1840 O.co2 219  ASP219     -0.2456
     58  OD2       13.3690   18.8280   18.7210 O.co2 219  ASP219     -0.2456
     59  N          9.6430   21.3590   15.9840 N.am  220  MET220     -0.1979
     60  CA         8.8480   20.8590   14.8530 C.3   220  MET220      0.1605
     61  C          8.5070   21.9700   13.8940 C.2   220  MET220      0.2287
     62  O          8.4580   23.1410   14.2790 O.2   220  MET220     -0.2864
     63  CB         7.5740   20.1710   15.3480 C.3   220  MET220      0.0413
     64  CG         7.8820   19.0520   16.3360 C.3   220  MET220      0.0598
     65  SD         6.3730   18.1180   16.7190 S.3   220  MET220     -0.1393
     66  CE         6.1300   17.3770   15.0900 C.3   220  MET220      0.0692
     67  N          5.3560   25.5130   20.3190 N.3   234  PHE234     -0.1227
     68  CA         4.0030   25.4500   20.8910 C.3   234  PHE234      0.1736
     69  C          4.0080   24.7040   22.2170 C.2   234  PHE234      0.2595
     70  O          4.9430   23.9330   22.4910 O.2   234  PHE234     -0.2718
     71  CB         3.0620   24.7460   19.9190 C.3   234  PHE234      0.0547
     72  CG         3.5200   23.3550   19.5020 C.ar  234  PHE234     -0.0202
     73  CD1        3.1380   22.2360   20.2280 C.ar  234  PHE234     -0.0042
     74  CD2        4.2860   23.1670   18.3470 C.ar  234  PHE234     -0.0042
     75  CE1        3.5330   20.9190   19.8360 C.ar  234  PHE234     -0.0003
     76  CE2        4.6980   21.8910   17.9670 C.ar  234  PHE234     -0.0003
     77  CZ         4.3150   20.7510   18.7070 C.ar  234  PHE234     -0.0000
     78  N          2.9510   24.8890   23.0120 N.am  235  ASN235     -0.1960
     79  CA         2.8230   24.1060   24.2320 C.3   235  ASN235      0.1819
     80  C          1.3730   23.7610   24.5870 C.2   235  ASN235      0.2622
     81  O          0.4360   24.4770   24.2020 O.2   235  ASN235     -0.2715
     82  CB         3.4360   24.8740   25.3950 C.3   235  ASN235      0.1195
     83  CG         2.6050   26.0850   25.7810 C.2   235  ASN235      0.2630
     84  OD1        2.6780   27.1430   25.1390 O.2   235  ASN235     -0.2716
     85  ND2        1.7950   25.9330   26.8150 N.am  235  ASN235     -0.0877
     86  N          1.1920   22.6780   25.3400 N.am  236  GLY236     -0.1940
     87  CA        -0.0410   22.4700   26.0780 C.3   236  GLY236      0.2014
     88  C          0.3470   22.4230   27.5450 C.2   236  GLY236      0.2639
     89  O          1.3230   23.1060   27.9720 O.2   236  GLY236     -0.2714
     90  N         -0.4050   21.6370   28.3190 N.am  237  TRP237     -0.1959
     91  CA         0.0060   21.2130   29.6720 C.3   237  TRP237      0.1771
     92  C          0.3520   19.7340   29.5820 C.2   237  TRP237      0.2620
     93  O          0.0160   19.0650   28.5880 O.2   237  TRP237     -0.2715
     94  CB        -1.1000   21.4260   30.7130 C.3   237  TRP237      0.0590
     95  CG        -2.4330   20.9040   30.2530 C.ar  237  TRP237      0.0006
     96  CD1       -2.8650   19.5870   30.2210 C.ar  237  TRP237      0.0946
     97  CD2       -3.5110   21.7010   29.7380 C.ar  237  TRP237      0.0152
     98  NE1       -4.1750   19.5360   29.7410 N.ar  237  TRP237     -0.2442
     99  CE2       -4.5820   20.8140   29.4270 C.ar  237  TRP237      0.0810
    100  CE3       -3.6750   23.0780   29.5120 C.ar  237  TRP237      0.0012
    101  CZ2       -5.7870   21.2660   28.8720 C.ar  237  TRP237      0.0191
    102  CZ3       -4.8890   23.5370   28.9710 C.ar  237  TRP237      0.0001
    103  CH2       -5.9330   22.6270   28.6660 C.ar  237  TRP237      0.0015
    104  N          1.0420   19.2200   30.6020 N.am  238  TYR238     -0.1960
    105  CA         1.4690   17.8220   30.6010 C.3   238  TYR238      0.1771
    106  C          0.3230   16.8710   30.9130 C.2   238  TYR238      0.2619
    107  O         -0.5460   17.1870   31.7510 O.2   238  TYR238     -0.2715
    108  CB         2.5030   17.6100   31.7080 C.3   238  TYR238      0.0574
    109  CG         3.9380   17.7230   31.2350 C.ar  238  TYR238     -0.0198
    110  CD1        4.4630   16.7790   30.3740 C.ar  238  TYR238     -0.0009
    111  CD2        4.7830   18.7100   31.7290 C.ar  238  TYR238     -0.0009
    112  CE1        5.7930   16.8430   29.9550 C.ar  238  TYR238      0.0417
    113  CE2        6.1490   18.7760   31.3300 C.ar  238  TYR238      0.0417
    114  CZ         6.6340   17.8510   30.4380 C.ar  238  TYR238      0.1957
    115  OH         7.9510   17.8790   30.0020 O.3   238  TYR238     -0.2866
    116  N          0.3660   15.6910   30.2830 N.am  239  MET239     -0.1977
    117  CA        -0.3260   14.5180   30.8070 C.3   239  MET239      0.1605
    118  C          0.6250   13.8220   31.7930 C.2   239  MET239      0.2287
    119  O          1.8070   13.6410   31.5020 O.2   239  MET239     -0.2864
    120  CB        -0.6880   13.5870   29.6700 C.3   239  MET239      0.0413
    121  CG        -1.5360   12.4360   30.1480 C.3   239  MET239      0.0598
    122  SD        -2.4570   11.6520   28.8250 S.3   239  MET239     -0.1393
    123  CE        -1.1560   10.7030   28.0200 C.3   239  MET239      0.0692
    124  N          3.4650   11.3700   30.9230 N.3   242  GLU242     -0.1245
    125  CA         4.6550   11.7390   30.1520 C.3   242  GLU242      0.1567
    126  C          5.8130   11.9250   31.1020 C.2   242  GLU242      0.2260
    127  O          6.9590   11.6710   30.7490 O.2   242  GLU242     -0.2867
    128  CB         4.4270   13.0570   29.4010 C.3   242  GLU242      0.0388
    129  CG         3.2890   12.9870   28.4170 C.3   242  GLU242      0.1160
    130  CD         3.1050   14.3380   27.7020 C.2   242  GLU242      0.3649
    131  OE1        3.8910   14.6140   26.7510 O.co2 242  GLU242     -0.2457
    132  OE2        2.1850   15.1090   28.0970 O.co2 242  GLU242     -0.2457
    133  N          7.5810    8.0330   31.6530 N.3   246  ARG246     -0.1245
    134  CA         8.6570    8.0750   30.6540 C.3   246  ARG246      0.1563
    135  C          9.8680    8.9020   31.1090 C.2   246  ARG246      0.2260
    136  O         10.9330    8.3460   31.3270 O.2   246  ARG246     -0.2867
    137  CB         8.1290    8.5560   29.2990 C.3   246  ARG246      0.0307
    138  CG         6.8370    7.8370   28.9140 C.3   246  ARG246      0.0489
    139  CD         7.0880    6.3290   28.6230 C.3   246  ARG246      0.2205
    140  NE         8.2520    6.1910   27.7340 N.pl3 246  ARG246     -0.0865
    141  CZ         8.2410    6.4160   26.4090 C.cat 246  ARG246      0.5346
    142  NH1        7.1250    6.7810   25.7940 N.pl3 246  ARG246      0.1354
    143  NH2        9.3630    6.3000   25.7000 N.pl3 246  ARG246      0.1354
    144  N         16.2190    7.3800   30.2620 N.3   253  ARG253     -0.1245
    145  CA        16.0030    8.7250   30.7950 C.3   253  ARG253      0.1563
    146  C         16.4500    8.7160   32.2640 C.2   253  ARG253      0.2260
    147  O         17.5810    8.3090   32.5800 O.2   253  ARG253     -0.2867
    148  CB        14.5170    9.0870   30.6700 C.3   253  ARG253      0.0307
    149  CG        14.0580    9.0020   29.2150 C.3   253  ARG253      0.0489
    150  CD        14.7910   10.0070   28.3060 C.3   253  ARG253      0.2205
    151  NE        14.5410   11.4090   28.6850 N.pl3 253  ARG253     -0.0865
    152  CZ        13.3780   12.0490   28.5310 C.cat 253  ARG253      0.5346
    153  NH1       12.3060   11.4360   27.9940 N.pl3 253  ARG253      0.1354
    154  NH2       13.2710   13.3190   28.9130 N.pl3 253  ARG253      0.1354
    155  N          0.5970    5.9070   19.5560 N.3   328  TRP328     -0.1241
    156  CA         0.9370    7.0730   20.4070 C.3   328  TRP328      0.1605
    157  C         -0.2420    7.5710   21.2130 C.2   328  TRP328      0.2264
    158  O         -0.0550    8.2480   22.2400 O.2   328  TRP328     -0.2867
    159  CB         1.4710    8.2670   19.5880 C.3   328  TRP328      0.0550
    160  CG         2.8710    8.1320   19.1210 C.ar  328  TRP328      0.0003
    161  CD1        3.4030    7.1120   18.3430 C.ar  328  TRP328      0.0946
    162  CD2        3.9280    9.0640   19.3500 C.ar  328  TRP328      0.0152
    163  NE1        4.7460    7.3610   18.1040 N.ar  328  TRP328     -0.2442
    164  CE2        5.0910    8.5540   18.7010 C.ar  328  TRP328      0.0810
    165  CE3        4.0090   10.2910   20.0260 C.ar  328  TRP328      0.0012
    166  CZ2        6.3270    9.2320   18.7230 C.ar  328  TRP328      0.0191
    167  CZ3        5.2260   10.9620   20.0500 C.ar  328  TRP328      0.0001
    168  CH2        6.3780   10.4210   19.4050 C.ar  328  TRP328      0.0015
    169  N          8.2970   16.6470   11.9370 N.3   356  TYR356     -0.1241
    170  CA         9.7000   16.5120   12.3130 C.3   356  TYR356      0.1605
    171  C         10.5460   17.2260   11.2730 C.2   356  TYR356      0.2264
    172  O         10.1530   17.3090   10.1090 O.2   356  TYR356     -0.2867
    173  CB        10.0880   15.0140   12.3210 C.3   356  TYR356      0.0534
    174  CG         9.4910   14.2380   13.4810 C.ar  356  TYR356     -0.0201
    175  CD1        8.8630   14.9070   14.5290 C.ar  356  TYR356     -0.0009
    176  CD2        9.5880   12.8390   13.5600 C.ar  356  TYR356     -0.0009
    177  CE1        8.3310   14.2140   15.6250 C.ar  356  TYR356      0.0417
    178  CE2        9.0340   12.1180   14.6670 C.ar  356  TYR356      0.0417
    179  CZ         8.4160   12.8270   15.6820 C.ar  356  TYR356      0.1957
    180  OH         7.8820   12.1870   16.7840 O.3   356  TYR356     -0.2866
    181  N         17.6490   17.7290   12.9760 N.3   359  LYS359     -0.1245
    182  CA        18.4060   18.5060   13.9400 C.3   359  LYS359      0.1561
    183  C         19.6420   19.1160   13.2520 C.2   359  LYS359      0.2260
    184  O         20.2180   18.5020   12.3580 O.2   359  LYS359     -0.2867
    185  CB        18.8300   17.6250   15.1150 C.3   359  LYS359      0.0271
    186  CG        17.6660   16.9340   15.8270 C.3   359  LYS359      0.0035
    187  CD        16.4230   17.8480   15.9850 C.3   359  LYS359      0.0206
    188  CE        15.1720   17.0630   16.4310 C.3   359  LYS359      0.1093
    189  NZ        15.4950   16.1710   17.5910 N.3   359  LYS359     -0.1314
@<TRIPOS>BOND
     1   172   171    2
     2   171   170    1
     3   169   170    1
     4   170   173    1
     5   173   174    1
     6   184   183    2
     7   181   182    1
     8   183   182    1
     9   174   176   ar
    10   174   175   ar
    11   176   178   ar
    12    61    62    2
    13    61    60    1
    14   182   185    1
    15   175   177   ar
    16   178   179   ar
    17    60    63    1
    18    60    59    1
    19    54    53    2
    20    66    65    1
    21   185   186    1
    22    63    64    1
    23   177   179   ar
    24   179   180    1
    25   186   187    1
    26    53    59   am
    27    53    52    1
    28   187   188    1
    29    64    65    1
    30   188   189    1
    31    52    55    1
    32    52    51    1
    33    55    56    1
    34    76    74   ar
    35    76    77   ar
    36   163   161   ar
    37   163   164   ar
    38    56    57   ar
    39    56    58   ar
    40   161   160   ar
    41    74    72   ar
    42   164   166   ar
    43   164   162   ar
    44    77    75   ar
    45   166   168   ar
    46     1     2    1
    47   160   162   ar
    48   160   159    1
    49   162   165   ar
    50   168   167   ar
    51    72    71    1
    52    72    73   ar
    53   155   156    1
    54   159   156    1
    55     5     2    1
    56     5     6    1
    57    75    73   ar
    58    71    68    1
    59   165   167   ar
    60     2     3    1
    61    49    48    1
    62     4     3    2
    63    47    46    2
    64    67    68    1
    65   156   157    1
    66    46    45    1
    67    68    69    1
    68    13    15   ar
    69    13    12   ar
    70   157   158    2
    71    48    45    1
    72    48    50    1
    73     8     7    1
    74     8    11    1
    75     8     9    1
    76    15    16   ar
    77    10     9    2
    78    11    12    1
    79    45    44    1
    80    12    14   ar
    81    69    70    2
    82    69    78   am
    83     9    17   am
    84    16    14   ar
    85    78    79    1
    86    17    18    1
    87    18    19    1
    88    18    21    1
    89    81    80    2
    90    79    80    1
    91    79    82    1
    92    80    86   am
    93    19    20    2
    94    22    21    1
    95    22    23    1
    96    84    83    2
    97    86    87    1
    98    82    83    1
    99   143   141    1
   100    25    23   am
   101    83    85   am
   102   142   141    1
   103    23    24    2
   104    87    88    1
   105    36    34    1
   106    40    39    2
   107   141   140    2
   108    39    38    1
   109   131   130   ar
   110    33    34    2
   111    33    32    1
   112    34    35    1
   113    31    32    1
   114    31    30    1
   115    88    89    2
   116    88    90   am
   117    30    27    1
   118   130   132   ar
   119   130   129    1
   120   140   139    1
   121    41    38    1
   122    41    42    1
   123    38    37    1
   124   153   152    1
   125   123   122    1
   126    42    43    1
   127   150   151    1
   128   150   149    1
   129    90    91    1
   130   129   128    1
   131   152   151    2
   132   152   154    1
   133    93    92    2
   134   139   138    1
   135   103   101   ar
   136   103   102   ar
   137   122   121    1
   138   101    99   ar
   139   138   137    1
   140   102   100   ar
   141    37    43    1
   142    27    26    1
   143    27    28    1
   144   149   148    1
   145   137   134    1
   146   128   125    1
   147    99    97   ar
   148    99    98   ar
   149   100    97   ar
   150    92    91    1
   151    92   104   am
   152   120   121    1
   153   120   117    1
   154    91    94    1
   155    97    95   ar
   156    98    96   ar
   157   112   110   ar
   158   112   114   ar
   159    28    29    2
   160   115   114    1
   161   125   124    1
   162   125   126    1
   163    96    95   ar
   164    95    94    1
   165   144   145    1
   166   116   117    1
   167   116   106   am
   168   110   109   ar
   169   114   113   ar
   170   105   104    1
   171   105   106    1
   172   105   108    1
   173   134   135    1
   174   134   133    1
   175   148   145    1
   176   127   126    2
   177   145   146    1
   178   117   118    1
   179   106   107    2
   180   135   136    2
   181   109   108    1
   182   109   111   ar
   183   113   111   ar
   184   119   118    2
   185   146   147    2
