@<TRIPOS>MOLECULE
tmp/5g6mA02.pdb
 166 165 0 0 0
SMALL
GASTEIGER

@<TRIPOS>ATOM
      1  N         -1.6840   13.0610   19.0510 N.3    65  CYS65      -0.1235
      2  CA        -2.0030   13.8780   20.2560 C.3    65  CYS65       0.1677
      3  C         -3.3520   13.5570   20.9060 C.2    65  CYS65       0.2270
      4  O         -4.4090   13.7200   20.2960 O.2    65  CYS65      -0.2867
      5  CB        -2.0040   15.3850   19.9100 C.3    65  CYS65       0.0956
      6  SG        -2.4050   16.4910   21.2970 S.3    65  CYS65      -0.0801
      7  N         15.0540   21.0120   21.7030 N.3   127  HIS127     -0.1226
      8  CA        13.8890   20.1420   21.4800 C.3   127  HIS127      0.1752
      9  C         12.6700   20.7520   22.1950 C.2   127  HIS127      0.2595
     10  O         11.5680   20.7850   21.6300 O.2   127  HIS127     -0.2718
     11  CB        14.1190   18.7040   21.9730 C.3   127  HIS127      0.0759
     12  CG        12.8430   17.9000   22.0940 C.ar  127  HIS127      0.0818
     13  ND1       12.0760   17.5460   21.0000 N.ar  127  HIS127     -0.2268
     14  CD2       12.2080   17.4020   23.1810 C.ar  127  HIS127      0.1154
     15  CE1       11.0120   16.8620   21.4140 C.ar  127  HIS127      0.1986
     16  NE2       11.0660   16.7630   22.7330 N.ar  127  HIS127     -0.2212
     17  N         12.8420   21.1940   23.4400 N.am  128  GLN128     -0.1979
     18  CA        11.8150   21.9720   24.1460 C.3   128  GLN128      0.1601
     19  C         12.5010   23.2310   24.6690 C.2   128  GLN128      0.2287
     20  O         13.7160   23.2310   24.8800 O.2   128  GLN128     -0.2864
     21  CB        11.1720   21.2040   25.3240 C.3   128  GLN128      0.0394
     22  CG        10.2570   20.0390   24.8520 C.3   128  GLN128      0.0908
     23  CD         9.8070   19.1690   26.0000 C.2   128  GLN128      0.2608
     24  OE1        9.5740   19.6520   27.1110 O.2   128  GLN128     -0.2717
     25  NE2        9.6820   17.8580   25.7370 N.am  128  GLN128     -0.0878
     26  N          5.7380   21.8090   28.9930 N.3   215  PRO215     -0.2116
     27  CA         6.4770   21.2110   27.8740 C.3   215  PRO215      0.1372
     28  C          6.2830   22.0900   26.6540 C.2   215  PRO215      0.2244
     29  O          5.1380   22.2580   26.2360 O.2   215  PRO215     -0.2868
     30  CB         5.7650   19.8570   27.6600 C.3   215  PRO215      0.0268
     31  CG         4.3500   20.0760   28.1330 C.3   215  PRO215      0.0207
     32  CD         4.3810   21.2160   29.1400 C.3   215  PRO215      0.0892
     33  N          7.3880   22.4050   22.9870 N.3   217  ILE217     -0.1245
     34  CA         8.1000   21.6570   21.9280 C.3   217  ILE217      0.1561
     35  C          8.5360   22.6170   20.8250 C.2   217  ILE217      0.2260
     36  O          7.7040   23.3540   20.2480 O.2   217  ILE217     -0.2867
     37  CB         7.2510   20.4810   21.3670 C.3   217  ILE217      0.0252
     38  CG1        7.3390   19.2750   22.3060 C.3   217  ILE217      0.0019
     39  CG2        7.7870   20.0250   19.9570 C.3   217  ILE217      0.0019
     40  CD1        6.7230   19.5070   23.7260 C.3   217  ILE217      0.0001
     41  N         10.9910   22.0560   18.1660 N.3   219  ASP219     -0.1225
     42  CA        11.7830   21.5440   17.0400 C.3   219  ASP219      0.1805
     43  C         10.9170   21.0070   15.8910 C.2   219  ASP219      0.2597
     44  O         11.4310   20.3600   14.9800 O.2   219  ASP219     -0.2718
     45  CB        12.8320   20.4880   17.4670 C.3   219  ASP219      0.1424
     46  CG        12.2210   19.2400   18.1240 C.2   219  ASP219      0.3668
     47  OD1       10.9640   19.1160   18.1500 O.co2 219  ASP219     -0.2456
     48  OD2       13.0210   18.3780   18.6190 O.co2 219  ASP219     -0.2456
     49  N          9.6100   21.2960   15.9140 N.am  220  MET220     -0.1979
     50  CA         8.7670   20.8280   14.8110 C.3   220  MET220      0.1605
     51  C          8.4410   21.9260   13.8060 C.2   220  MET220      0.2287
     52  O          8.4180   23.1010   14.1440 O.2   220  MET220     -0.2864
     53  CB         7.4870   20.1930   15.3340 C.3   220  MET220      0.0413
     54  CG         7.7690   18.8750   16.0200 C.3   220  MET220      0.0598
     55  SD         6.2230   18.0640   16.6270 S.3   220  MET220     -0.1393
     56  CE         5.9210   17.1070   15.1290 C.3   220  MET220      0.0692
     57  N          5.4270   25.3880   20.4050 N.3   234  PHE234     -0.1227
     58  CA         4.0800   25.3580   20.9800 C.3   234  PHE234      0.1736
     59  C          4.0920   24.5260   22.2670 C.2   234  PHE234      0.2595
     60  O          5.0200   23.7160   22.4820 O.2   234  PHE234     -0.2718
     61  CB         3.0940   24.7500   19.9720 C.3   234  PHE234      0.0547
     62  CG         3.5060   23.3750   19.4750 C.ar  234  PHE234     -0.0202
     63  CD1        3.2430   22.2380   20.2360 C.ar  234  PHE234     -0.0042
     64  CD2        4.1580   23.2290   18.2580 C.ar  234  PHE234     -0.0042
     65  CE1        3.6330   20.9470   19.7790 C.ar  234  PHE234     -0.0003
     66  CE2        4.5410   21.9490   17.7760 C.ar  234  PHE234     -0.0003
     67  CZ         4.2890   20.8080   18.5370 C.ar  234  PHE234     -0.0000
     68  N          3.0640   24.7070   23.1100 N.am  235  ASN235     -0.1960
     69  CA         2.9690   23.9510   24.3440 C.3   235  ASN235      0.1819
     70  C          1.5180   23.6450   24.6680 C.2   235  ASN235      0.2622
     71  O          0.6180   24.3930   24.2750 O.2   235  ASN235     -0.2715
     72  CB         3.4970   24.7860   25.5270 C.3   235  ASN235      0.1195
     73  CG         2.6140   25.9750   25.8250 C.2   235  ASN235      0.2630
     74  OD1        2.6800   26.9920   25.1340 O.2   235  ASN235     -0.2716
     75  ND2        1.7610   25.8560   26.8560 N.am  235  ASN235     -0.0877
     76  N          1.3190   22.6140   25.4670 N.am  236  GLY236     -0.1940
     77  CA         0.0510   22.4040   26.1410 C.3   236  GLY236      0.2014
     78  C          0.4370   22.3280   27.6110 C.2   236  GLY236      0.2639
     79  O          1.4480   22.9340   28.0660 O.2   236  GLY236     -0.2714
     80  N         -0.3740   21.6090   28.3720 N.am  237  TRP237     -0.1959
     81  CA         0.0380   21.1640   29.7110 C.3   237  TRP237      0.1771
     82  C          0.3530   19.6760   29.6330 C.2   237  TRP237      0.2620
     83  O         -0.0130   18.9770   28.6820 O.2   237  TRP237     -0.2715
     84  CB        -1.0420   21.4250   30.7510 C.3   237  TRP237      0.0590
     85  CG        -2.3770   20.9080   30.3360 C.ar  237  TRP237      0.0006
     86  CD1       -2.8320   19.5990   30.4330 C.ar  237  TRP237      0.0946
     87  CD2       -3.4450   21.6720   29.7390 C.ar  237  TRP237      0.0152
     88  NE1       -4.1300   19.5290   29.9290 N.ar  237  TRP237     -0.2442
     89  CE2       -4.5220   20.7830   29.5150 C.ar  237  TRP237      0.0810
     90  CE3       -3.6030   23.0250   29.4110 C.ar  237  TRP237      0.0012
     91  CZ2       -5.7390   21.2050   28.9300 C.ar  237  TRP237      0.0191
     92  CZ3       -4.8340   23.4550   28.8540 C.ar  237  TRP237      0.0001
     93  CH2       -5.8690   22.5410   28.6120 C.ar  237  TRP237      0.0015
     94  N          1.0840   19.1900   30.6250 N.am  238  TYR238     -0.1960
     95  CA         1.5120   17.7970   30.6240 C.3   238  TYR238      0.1771
     96  C          0.3470   16.8750   30.9570 C.2   238  TYR238      0.2619
     97  O         -0.5550   17.2120   31.7320 O.2   238  TYR238     -0.2715
     98  CB         2.5070   17.6230   31.7550 C.3   238  TYR238      0.0574
     99  CG         3.9420   17.7200   31.2950 C.ar  238  TYR238     -0.0198
    100  CD1        4.4490   16.7950   30.3890 C.ar  238  TYR238     -0.0009
    101  CD2        4.7870   18.7050   31.7920 C.ar  238  TYR238     -0.0009
    102  CE1        5.7860   16.8460   29.9760 C.ar  238  TYR238      0.0417
    103  CE2        6.1510   18.7720   31.3690 C.ar  238  TYR238      0.0417
    104  CZ         6.6220   17.8540   30.5000 C.ar  238  TYR238      0.1957
    105  OH         7.9390   17.8920   30.0750 O.3   238  TYR238     -0.2866
    106  N          0.4490   15.6650   30.4430 N.am  239  MET239     -0.1977
    107  CA        -0.3120   14.5360   30.9500 C.3   239  MET239      0.1605
    108  C          0.6460   13.8300   31.8690 C.2   239  MET239      0.2287
    109  O          1.8220   13.6790   31.5390 O.2   239  MET239     -0.2864
    110  CB        -0.7650   13.6240   29.7960 C.3   239  MET239      0.0413
    111  CG        -1.6690   12.4650   30.2560 C.3   239  MET239      0.0598
    112  SD        -2.4480   11.6330   28.8420 S.3   239  MET239     -0.1393
    113  CE        -1.1190   10.5900   28.2260 C.3   239  MET239      0.0692
    114  N          3.5380   11.3150   30.9900 N.3   242  GLU242     -0.1245
    115  CA         4.7380   11.6990   30.2280 C.3   242  GLU242      0.1567
    116  C          5.9030   11.8640   31.1880 C.2   242  GLU242      0.2260
    117  O          7.0620   11.5690   30.8590 O.2   242  GLU242     -0.2867
    118  CB         4.5180   13.0530   29.5140 C.3   242  GLU242      0.0388
    119  CG         3.4430   12.9640   28.4330 C.3   242  GLU242      0.1160
    120  CD         3.1870   14.3280   27.8140 C.2   242  GLU242      0.3649
    121  OE1        3.9600   14.7080   26.8880 O.co2 242  GLU242     -0.2457
    122  OE2        2.2580   15.0540   28.2850 O.co2 242  GLU242     -0.2457
    123  N          0.6020    5.9500   19.5800 N.3   328  TRP328     -0.1241
    124  CA         0.9320    7.0940   20.4290 C.3   328  TRP328      0.1605
    125  C         -0.2150    7.5540   21.3140 C.2   328  TRP328      0.2264
    126  O          0.0200    8.2170   22.3280 O.2   328  TRP328     -0.2867
    127  CB         1.4020    8.2800   19.5470 C.3   328  TRP328      0.0550
    128  CG         2.8470    8.1500   19.0690 C.ar  328  TRP328      0.0003
    129  CD1        3.3760    7.1570   18.2940 C.ar  328  TRP328      0.0946
    130  CD2        3.9290    9.0450   19.3740 C.ar  328  TRP328      0.0152
    131  NE1        4.7310    7.3870   18.0790 N.ar  328  TRP328     -0.2442
    132  CE2        5.0880    8.5360   18.7470 C.ar  328  TRP328      0.0810
    133  CE3        4.0310   10.2070   20.1390 C.ar  328  TRP328      0.0012
    134  CZ2        6.3330    9.1870   18.8200 C.ar  328  TRP328      0.0191
    135  CZ3        5.2790   10.8560   20.2150 C.ar  328  TRP328      0.0001
    136  CH2        6.4050   10.3320   19.5790 C.ar  328  TRP328      0.0015
    137  N          8.2850   16.4710   11.7610 N.3   356  TYR356     -0.1227
    138  CA         9.6650   16.3340   12.2700 C.3   356  TYR356      0.1736
    139  C         10.5520   17.0680   11.3110 C.2   356  TYR356      0.2595
    140  O         10.2300   17.1760   10.1340 O.2   356  TYR356     -0.2718
    141  CB        10.0850   14.8350   12.2940 C.3   356  TYR356      0.0548
    142  CG         9.5890   14.1030   13.5450 C.ar  356  TYR356     -0.0200
    143  CD1        8.2780   14.2380   13.9840 C.ar  356  TYR356     -0.0009
    144  CD2       10.4280   13.2490   14.2690 C.ar  356  TYR356     -0.0009
    145  CE1        7.8180   13.5640   15.1580 C.ar  356  TYR356      0.0417
    146  CE2        9.9730   12.5550   15.4240 C.ar  356  TYR356      0.0417
    147  CZ         8.6640   12.7280   15.8640 C.ar  356  TYR356      0.1957
    148  OH         8.1880   12.0820   17.0220 O.3   356  TYR356     -0.2866
    149  N         11.6900   17.5640   11.7660 N.am  357  GLN357     -0.1979
    150  CA        12.6700   18.0180   10.7680 C.3   357  GLN357      0.1601
    151  C         14.0490   17.6190   11.2860 C.2   357  GLN357      0.2287
    152  O         14.1870   17.2990   12.4550 O.2   357  GLN357     -0.2864
    153  CB        12.5680   19.5350   10.5520 C.3   357  GLN357      0.0394
    154  CG        12.5310   20.3150   11.8730 C.3   357  GLN357      0.0908
    155  CD        12.1350   21.7830   11.6880 C.2   357  GLN357      0.2608
    156  OE1       12.2480   22.3320   10.5870 O.2   357  GLN357     -0.2717
    157  NE2       11.6830   22.4250   12.7670 N.am  357  GLN357     -0.0878
    158  N         17.6910   17.4600   12.9100 N.3   359  LYS359     -0.1245
    159  CA        18.4630   18.2490   13.8710 C.3   359  LYS359      0.1561
    160  C         19.6080   18.9880   13.1490 C.2   359  LYS359      0.2260
    161  O         20.1710   18.4780   12.1690 O.2   359  LYS359     -0.2867
    162  CB        19.0220   17.3620   14.9930 C.3   359  LYS359      0.0271
    163  CG        17.9370   16.7240   15.8300 C.3   359  LYS359      0.0035
    164  CD        18.4990   15.9260   17.0160 C.3   359  LYS359      0.0206
    165  CE        17.4290   14.9600   17.6090 C.3   359  LYS359      0.1093
    166  NZ        16.0430   15.5420   17.6750 N.3   359  LYS359     -0.1314
@<TRIPOS>BOND
     1   140   139    2
     2   153   150    1
     3   153   154    1
     4   156   155    2
     5   150   151    1
     6   150   149    1
     7   151   152    2
     8   139   149   am
     9   139   138    1
    10   155   154    1
    11   155   157   am
    12   137   138    1
    13   161   160    2
    14   138   141    1
    15   141   142    1
    16   158   159    1
    17   160   159    1
    18   142   143   ar
    19   142   144   ar
    20    51    52    2
    21    51    50    1
    22   159   162    1
    23   143   145   ar
    24   144   146   ar
    25    50    53    1
    26    50    49    1
    27    44    43    2
    28   162   163    1
    29    56    55    1
    30   145   147   ar
    31    53    54    1
    32   146   147   ar
    33   163   164    1
    34   147   148    1
    35    43    49   am
    36    43    42    1
    37    54    55    1
    38   164   165    1
    39    42    45    1
    40    42    41    1
    41    45    46    1
    42   165   166    1
    43    66    64   ar
    44    66    67   ar
    45   131   129   ar
    46   131   132   ar
    47    46    47   ar
    48    46    48   ar
    49    64    62   ar
    50   129   128   ar
    51    67    65   ar
    52   132   134   ar
    53   132   130   ar
    54   134   136   ar
    55     1     2    1
    56   128   130   ar
    57   128   127    1
    58   130   133   ar
    59    62    61    1
    60    62    63   ar
    61   127   124    1
    62   136   135   ar
    63   123   124    1
    64    65    63   ar
    65     5     2    1
    66     5     6    1
    67    39    37    1
    68    61    58    1
    69   133   135   ar
    70    36    35    2
    71     2     3    1
    72     4     3    2
    73    57    58    1
    74   124   125    1
    75    35    34    1
    76    58    59    1
    77    13    15   ar
    78    13    12   ar
    79   125   126    2
    80    37    34    1
    81    37    38    1
    82    15    16   ar
    83     8     7    1
    84     8    11    1
    85     8     9    1
    86    10     9    2
    87    34    33    1
    88    11    12    1
    89    12    14   ar
    90     9    17   am
    91    59    60    2
    92    59    68   am
    93    38    40    1
    94    16    14   ar
    95    68    69    1
    96    17    18    1
    97    18    19    1
    98    18    21    1
    99    71    70    2
   100    69    70    1
   101    69    72    1
   102    70    76   am
   103    19    20    2
   104    22    21    1
   105    22    23    1
   106    74    73    2
   107    76    77    1
   108    72    73    1
   109    25    23   am
   110    73    75   am
   111    23    24    2
   112    77    78    1
   113    29    28    2
   114    28    27    1
   115   121   120   ar
   116    78    79    2
   117    78    80   am
   118    30    27    1
   119    30    31    1
   120   120   122   ar
   121   120   119    1
   122    27    26    1
   123    31    32    1
   124   113   112    1
   125    80    81    1
   126   119   118    1
   127    93    92   ar
   128    93    91   ar
   129    83    82    2
   130   112   111    1
   131    92    90   ar
   132    91    89   ar
   133    26    32    1
   134    90    87   ar
   135   118   115    1
   136    89    87   ar
   137    89    88   ar
   138    82    81    1
   139    82    94   am
   140    81    84    1
   141    87    85   ar
   142   110   111    1
   143   110   107    1
   144    88    86   ar
   145   102   100   ar
   146   102   104   ar
   147   105   104    1
   148   115   114    1
   149   115   116    1
   150    85    86   ar
   151    85    84    1
   152   100    99   ar
   153   106   107    1
   154   106    96   am
   155   104   103   ar
   156    95    94    1
   157    95    96    1
   158    95    98    1
   159   117   116    2
   160   107   108    1
   161    96    97    2
   162    99    98    1
   163    99   101   ar
   164   103   101   ar
   165   109   108    2
