@<TRIPOS>MOLECULE
tmp/5g6nA03.pdb
 100 97 0 0 0
SMALL
GASTEIGER

@<TRIPOS>ATOM
      1  N         -3.1290   16.5730   14.2590 N.3    62  SER62      -0.1202
      2  CA        -1.9650   15.8740   14.7960 C.3    62  SER62       0.2020
      3  C         -2.3430   14.4920   15.3160 C.2    62  SER62       0.2619
      4  O         -2.7820   14.3480   16.4590 O.2    62  SER62      -0.2717
      5  CB        -1.3180   16.7070   15.8950 C.3    62  SER62       0.2103
      6  OG        -0.6990   17.8610   15.3390 O.3    62  SER62      -0.2182
      7  N         -2.1700   13.4910   14.4600 N.am   63  ASN63      -0.1960
      8  CA        -2.5600   12.1020   14.7420 C.3    63  ASN63       0.1819
      9  C         -2.1200   11.5500   16.0900 C.2    63  ASN63       0.2621
     10  O         -2.8470   10.7840   16.7180 O.2    63  ASN63      -0.2715
     11  CB        -2.0450   11.2000   13.6360 C.3    63  ASN63       0.1195
     12  CG        -2.7640   11.4550   12.3310 C.2    63  ASN63       0.2630
     13  OD1       -3.6420   12.3150   12.2760 O.2    63  ASN63      -0.2716
     14  ND2       -2.4040   10.7240   11.2840 N.am   63  ASN63      -0.0877
     15  N         -0.9500   11.9710   16.5530 N.am   64  ARG64      -0.1977
     16  CA        -0.3980   11.4120   17.7740 C.3    64  ARG64       0.1597
     17  C         -0.8690   12.0980   19.0440 C.2    64  ARG64       0.2287
     18  O         -0.5450   11.6310   20.1480 O.2    64  ARG64      -0.2864
     19  CB         1.1310   11.4440   17.7000 C.3    64  ARG64       0.0334
     20  CG         1.6680   10.5140   16.6290 C.3    64  ARG64       0.0492
     21  CD         3.1580   10.7930   16.4090 C.3    64  ARG64       0.2205
     22  NE         3.7810    9.6640   15.7410 N.pl3  64  ARG64      -0.0865
     23  CZ         5.0940    9.5150   15.5890 C.cat  64  ARG64       0.5346
     24  NH1        5.9240   10.4430   16.0520 N.pl3  64  ARG64       0.1354
     25  NH2        5.5740    8.4390   14.9750 N.pl3  64  ARG64       0.1354
     26  N          9.6370   21.4880   15.9670 N.3   220  MET220     -0.1245
     27  CA         8.7810   20.9950   14.8900 C.3   220  MET220      0.1570
     28  C          8.4520   22.0800   13.8830 C.2   220  MET220      0.2261
     29  O          8.4500   23.2620   14.2140 O.2   220  MET220     -0.2867
     30  CB         7.4990   20.3680   15.4640 C.3   220  MET220      0.0387
     31  CG         7.7710   19.0250   16.1300 C.3   220  MET220      0.0595
     32  SD         6.2330   18.1920   16.6370 S.3   220  MET220     -0.1393
     33  CE         5.7900   17.4130   15.0960 C.3   220  MET220      0.0692
     34  N         -3.0010    8.1200   15.4970 N.3   325  ASP325     -0.1239
     35  CA        -1.9600    7.1110   15.5570 C.3   325  ASP325      0.1674
     36  C         -2.1360    6.3470   16.8680 C.2   325  ASP325      0.2266
     37  O         -1.6840    6.8070   17.9340 O.2   325  ASP325     -0.2867
     38  CB        -0.5810    7.7690   15.5320 C.3   325  ASP325      0.1410
     39  CG         0.5530    6.7430   15.4820 C.2   325  ASP325      0.3668
     40  OD1        0.3160    5.5500   15.7820 O.co2 325  ASP325     -0.2456
     41  OD2        1.6790    7.1250   15.1180 O.co2 325  ASP325     -0.2456
     42  N         -4.4470    6.3830   10.2330 N.3   347  ASN347     -0.1240
     43  CA        -3.2340    7.1780   10.4850 C.3   347  ASN347      0.1653
     44  C         -2.8420    8.0600    9.2950 C.2   347  ASN347      0.2266
     45  O         -1.6890    8.4410    9.1590 O.2   347  ASN347     -0.2867
     46  CB        -2.0420    6.2850   10.9000 C.3   347  ASN347      0.1155
     47  CG        -0.8690    7.0930   11.4930 C.2   347  ASN347      0.2627
     48  OD1       -1.0650    8.1450   12.0800 O.2   347  ASN347     -0.2716
     49  ND2        0.3470    6.5930   11.3250 N.am  347  ASN347     -0.0877
     50  N         -2.2240   11.2590    6.9070 N.3   349  ILE349     -0.1245
     51  CA        -1.6780   12.5750    7.1790 C.3   349  ILE349      0.1561
     52  C         -2.4530   13.6590    6.4290 C.2   349  ILE349      0.2260
     53  O         -2.5100   13.6670    5.2010 O.2   349  ILE349     -0.2867
     54  CB        -0.1820   12.6100    6.8420 C.3   349  ILE349      0.0252
     55  CG1        0.5400   11.5480    7.6780 C.3   349  ILE349      0.0019
     56  CG2        0.4020   13.9870    7.1260 C.3   349  ILE349      0.0019
     57  CD1        1.9580   11.2630    7.2470 C.3   349  ILE349      0.0001
     58  N         -0.3680   20.7480    9.3650 N.3   353  ASN353     -0.1225
     59  CA         0.0950   19.8060   10.3660 C.3   353  ASN353      0.1785
     60  C          1.4700   20.2270   10.8800 C.2   353  ASN353      0.2597
     61  O          2.0970   21.1410   10.3240 O.2   353  ASN353     -0.2718
     62  CB         0.1110   18.3710    9.7940 C.3   353  ASN353      0.1169
     63  CG        -0.2980   17.3160   10.8280 C.2   353  ASN353      0.2627
     64  OD1        0.0270   17.4180   12.0070 O.2   353  ASN353     -0.2716
     65  ND2       -1.0280   16.3080   10.3810 N.am  353  ASN353     -0.0877
     66  N          1.8950   19.6010   11.9750 N.am  354  TYR354     -0.1962
     67  CA         3.2350   19.8000   12.5310 C.3   354  TYR354      0.1771
     68  C          4.0970   18.6120   12.1300 C.2   354  TYR354      0.2620
     69  O          3.6260   17.4580   12.1640 O.2   354  TYR354     -0.2715
     70  CB         3.1610   19.9210   14.0540 C.3   354  TYR354      0.0574
     71  CG         2.3330   21.1100   14.4770 C.ar  354  TYR354     -0.0198
     72  CD1        2.8750   22.3900   14.4640 C.ar  354  TYR354     -0.0009
     73  CD2        1.0010   20.9620   14.8590 C.ar  354  TYR354     -0.0009
     74  CE1        2.1210   23.5010   14.8290 C.ar  354  TYR354      0.0417
     75  CE2        0.2310   22.0810   15.2340 C.ar  354  TYR354      0.0417
     76  CZ         0.7980   23.3400   15.2060 C.ar  354  TYR354      0.1957
     77  OH         0.0640   24.4620   15.5530 O.3   354  TYR354     -0.2866
     78  N          5.3410   18.8870   11.7310 N.am  355  PHE355     -0.1960
     79  CA         6.2460   17.8450   11.2180 C.3   355  PHE355      0.1771
     80  C          7.6060   17.8430   11.9050 C.2   355  PHE355      0.2619
     81  O          8.1030   18.8850   12.3320 O.2   355  PHE355     -0.2715
     82  CB         6.4700   18.0150    9.7110 C.3   355  PHE355      0.0574
     83  CG         5.2300   17.8170    8.8980 C.ar  355  PHE355     -0.0200
     84  CD1        4.8050   16.5330    8.5610 C.ar  355  PHE355     -0.0042
     85  CD2        4.4720   18.8990    8.4910 C.ar  355  PHE355     -0.0042
     86  CE1        3.6520   16.3370    7.8230 C.ar  355  PHE355     -0.0003
     87  CE2        3.3110   18.7110    7.7460 C.ar  355  PHE355     -0.0003
     88  CZ         2.8990   17.4370    7.4120 C.ar  355  PHE355     -0.0000
     89  N          8.2120   16.6660   11.9850 N.am  356  TYR356     -0.1974
     90  CA         9.6040   16.5610   12.3950 C.3   356  TYR356      0.1639
     91  C         10.4430   17.2540   11.3570 C.2   356  TYR356      0.2290
     92  O         10.0590   17.3270   10.1950 O.2   356  TYR356     -0.2864
     93  CB        10.0400   15.0920   12.4650 C.3   356  TYR356      0.0560
     94  CG         9.4920   14.3360   13.6530 C.ar  356  TYR356     -0.0198
     95  CD1        8.9220   15.0150   14.7330 C.ar  356  TYR356     -0.0009
     96  CD2        9.5590   12.9400   13.7040 C.ar  356  TYR356     -0.0009
     97  CE1        8.4270   14.3250   15.8320 C.ar  356  TYR356      0.0417
     98  CE2        9.0520   12.2270   14.8030 C.ar  356  TYR356      0.0417
     99  CZ         8.4920   12.9220   15.8570 C.ar  356  TYR356      0.1957
    100  OH         8.0090   12.2340   16.9500 O.3   356  TYR356     -0.2866
@<TRIPOS>BOND
     1    53    52    2
     2    52    51    1
     3    54    56    1
     4    54    51    1
     5    54    55    1
     6    50    51    1
     7    57    55    1
     8    88    87   ar
     9    88    86   ar
    10    87    85   ar
    11    86    84   ar
    12    85    83   ar
    13    84    83   ar
    14    83    82    1
    15    45    44    2
    16    44    43    1
    17    58    59    1
    18    82    79    1
    19    62    59    1
    20    62    63    1
    21    92    91    2
    22    42    43    1
    23    61    60    2
    24    59    60    1
    25    65    63   am
    26    43    46    1
    27    63    64    2
    28    60    66   am
    29    46    47    1
    30    79    78    1
    31    79    80    1
    32    14    12   am
    33    49    47   am
    34    91    90    1
    35    47    48    2
    36    78    68   am
    37    80    89   am
    38    80    81    2
    39    66    67    1
    40    89    90    1
    41    68    69    2
    42    68    67    1
    43    13    12    2
    44    12    11    1
    45    90    93    1
    46    93    94    1
    47    67    70    1
    48    11     8    1
    49    94    96   ar
    50    94    95   ar
    51    96    98   ar
    52    28    29    2
    53    28    27    1
    54    70    71    1
    55     1     2    1
    56     7     8    1
    57     7     3   am
    58    72    71   ar
    59    72    74   ar
    60    71    73   ar
    61    95    97   ar
    62     8     9    1
    63     2     3    1
    64     2     5    1
    65    98    99   ar
    66    74    76   ar
    67    73    75   ar
    68    27    30    1
    69    27    26    1
    70    25    23    1
    71    33    32    1
    72    41    39   ar
    73    76    75   ar
    74    76    77    1
    75     3     4    2
    76     6     5    1
    77    30    31    1
    78    39    38    1
    79    39    40   ar
    80    34    35    1
    81    38    35    1
    82    35    36    1
    83    23    22    2
    84    23    24    1
    85    22    21    1
    86    97    99   ar
    87    99   100    1
    88     9    15   am
    89     9    10    2
    90    31    32    1
    91    21    20    1
    92    15    16    1
    93    20    19    1
    94    36    37    2
    95    19    16    1
    96    16    17    1
    97    17    18    2
