@<TRIPOS>MOLECULE
tmp/5g6pA01.pdb
 165 164 0 0 0
SMALL
GASTEIGER

@<TRIPOS>ATOM
      1  N         -1.6160   13.1820   18.9080 N.3    65  CYS65      -0.1235
      2  CA        -1.9960   14.0130   20.0400 C.3    65  CYS65       0.1677
      3  C         -3.3390   13.6260   20.6420 C.2    65  CYS65       0.2270
      4  O         -4.3800   13.6780   19.9690 O.2    65  CYS65      -0.2867
      5  CB        -2.0380   15.4910   19.6550 C.3    65  CYS65       0.0956
      6  SG        -2.5850   16.5130   21.0220 S.3    65  CYS65      -0.0801
      7  N         14.9890   21.2240   21.6230 N.3   127  HIS127     -0.1226
      8  CA        13.8610   20.3350   21.3870 C.3   127  HIS127      0.1752
      9  C         12.6410   20.9120   22.1030 C.2   127  HIS127      0.2595
     10  O         11.5320   20.8990   21.5700 O.2   127  HIS127     -0.2718
     11  CB        14.1380   18.9080   21.8660 C.3   127  HIS127      0.0759
     12  CG        12.8880   18.1010   22.0930 C.ar  127  HIS127      0.0818
     13  ND1       12.0580   17.7070   21.0670 N.ar  127  HIS127     -0.2268
     14  CD2       12.3250   17.6330   23.2340 C.ar  127  HIS127      0.1154
     15  CE1       11.0420   17.0120   21.5620 C.ar  127  HIS127      0.1986
     16  NE2       11.1810   16.9550   22.8760 N.ar  127  HIS127     -0.2212
     17  N         12.8560   21.3930   23.3270 N.am  128  GLN128     -0.1979
     18  CA        11.8550   22.1820   24.0320 C.3   128  GLN128      0.1601
     19  C         12.5210   23.4330   24.5960 C.2   128  GLN128      0.2287
     20  O         13.7120   23.3870   24.9300 O.2   128  GLN128     -0.2864
     21  CB        11.2030   21.3650   25.1480 C.3   128  GLN128      0.0394
     22  CG        10.3450   20.1870   24.6680 C.3   128  GLN128      0.0908
     23  CD         9.8140   19.3560   25.8240 C.2   128  GLN128      0.2608
     24  OE1        9.4870   19.8880   26.8920 O.2   128  GLN128     -0.2717
     25  NE2        9.7390   18.0450   25.6250 N.am  128  GLN128     -0.0878
     26  N          5.8710   21.9630   28.9260 N.3   215  PRO215     -0.2116
     27  CA         6.5800   21.3840   27.7820 C.3   215  PRO215      0.1372
     28  C          6.3140   22.2430   26.5470 C.2   215  PRO215      0.2244
     29  O          5.1520   22.4130   26.1290 O.2   215  PRO215     -0.2868
     30  CB         5.9250   20.0060   27.6300 C.3   215  PRO215      0.0268
     31  CG         4.4820   20.2000   28.1840 C.3   215  PRO215      0.0207
     32  CD         4.5010   21.4270   29.0850 C.3   215  PRO215      0.0892
     33  N          7.4040   22.3700   22.8490 N.3   217  VAL217     -0.1245
     34  CA         8.1080   21.6950   21.7640 C.3   217  VAL217      0.1561
     35  C          8.5000   22.7040   20.6830 C.2   217  VAL217      0.2260
     36  O          7.6360   23.4190   20.1420 O.2   217  VAL217     -0.2867
     37  CB         7.2740   20.5270   21.2190 C.3   217  VAL217      0.0252
     38  CG1        7.9460   19.8950   20.0110 C.3   217  VAL217      0.0019
     39  CG2        7.1010   19.4930   22.3210 C.3   217  VAL217      0.0019
     40  N         11.1440   22.1710   18.0730 N.3   219  ASP219     -0.1225
     41  CA        11.9010   21.7100   16.9020 C.3   219  ASP219      0.1805
     42  C         11.0350   21.1630   15.7590 C.2   219  ASP219      0.2597
     43  O         11.5600   20.5690   14.8090 O.2   219  ASP219     -0.2718
     44  CB        13.0240   20.7070   17.2730 C.3   219  ASP219      0.1424
     45  CG        12.5070   19.4540   17.9750 C.2   219  ASP219      0.3668
     46  OD1       11.2760   19.2270   17.9950 O.co2 219  ASP219     -0.2456
     47  OD2       13.3440   18.6880   18.5060 O.co2 219  ASP219     -0.2456
     48  N          9.7220   21.3710   15.8320 N.am  220  MET220     -0.1979
     49  CA         8.8470   20.8730   14.7730 C.3   220  MET220      0.1605
     50  C          8.4870   21.9720   13.7800 C.2   220  MET220      0.2287
     51  O          8.4170   23.1490   14.1490 O.2   220  MET220     -0.2864
     52  CB         7.5810   20.2490   15.3610 C.3   220  MET220      0.0413
     53  CG         7.8330   18.9750   16.1580 C.3   220  MET220      0.0598
     54  SD         6.2890   18.1250   16.5830 S.3   220  MET220     -0.1393
     55  CE         5.9660   17.2760   15.0330 C.3   220  MET220      0.0692
     56  N          5.3920   25.4780   20.2230 N.3   234  PHE234     -0.1227
     57  CA         4.0460   25.4290   20.7890 C.3   234  PHE234      0.1736
     58  C          4.0490   24.6460   22.0980 C.2   234  PHE234      0.2595
     59  O          5.0000   23.8810   22.3760 O.2   234  PHE234     -0.2718
     60  CB         3.0690   24.7890   19.8060 C.3   234  PHE234      0.0547
     61  CG         3.5140   23.4450   19.2950 C.ar  234  PHE234     -0.0202
     62  CD1        3.2590   22.2840   20.0210 C.ar  234  PHE234     -0.0042
     63  CD2        4.1780   23.3440   18.0770 C.ar  234  PHE234     -0.0042
     64  CE1        3.6650   21.0450   19.5380 C.ar  234  PHE234     -0.0003
     65  CE2        4.5840   22.1150   17.5940 C.ar  234  PHE234     -0.0003
     66  CZ         4.3340   20.9630   18.3250 C.ar  234  PHE234     -0.0000
     67  N          2.9960   24.8270   22.8970 N.am  235  ASN235     -0.1960
     68  CA         2.8630   24.0790   24.1410 C.3   235  ASN235      0.1819
     69  C          1.4250   23.7410   24.4900 C.2   235  ASN235      0.2622
     70  O          0.4780   24.4010   24.0400 O.2   235  ASN235     -0.2715
     71  CB         3.4390   24.8660   25.3090 C.3   235  ASN235      0.1195
     72  CG         2.6270   26.1100   25.6200 C.2   235  ASN235      0.2630
     73  OD1        2.7540   27.1190   24.9340 O.2   235  ASN235     -0.2716
     74  ND2        1.7880   26.0430   26.6540 N.am  235  ASN235     -0.0877
     75  N          1.2680   22.7130   25.3090 N.am  236  GLY236     -0.1940
     76  CA         0.0060   22.4760   25.9770 C.3   236  GLY236      0.2014
     77  C          0.3760   22.3670   27.4350 C.2   236  GLY236      0.2639
     78  O          1.4020   22.9380   27.8690 O.2   236  GLY236     -0.2714
     79  N         -0.4330   21.6410   28.1980 N.am  237  TRP237     -0.1959
     80  CA        -0.0140   21.1950   29.5240 C.3   237  TRP237      0.1771
     81  C          0.3520   19.7200   29.4330 C.2   237  TRP237      0.2620
     82  O          0.0180   19.0500   28.4550 O.2   237  TRP237     -0.2715
     83  CB        -1.1140   21.4030   30.5640 C.3   237  TRP237      0.0590
     84  CG        -2.4350   20.9260   30.0880 C.ar  237  TRP237      0.0006
     85  CD1       -2.8830   19.6330   30.0520 C.ar  237  TRP237      0.0946
     86  CD2       -3.4960   21.7390   29.5820 C.ar  237  TRP237      0.0152
     87  NE1       -4.1730   19.5930   29.5540 N.ar  237  TRP237     -0.2442
     88  CE2       -4.5750   20.8750   29.2660 C.ar  237  TRP237      0.0810
     89  CE3       -3.6520   23.1140   29.3780 C.ar  237  TRP237      0.0012
     90  CZ2       -5.7710   21.3440   28.7360 C.ar  237  TRP237      0.0191
     91  CZ3       -4.8440   23.5780   28.8680 C.ar  237  TRP237      0.0001
     92  CH2       -5.8890   22.6970   28.5510 C.ar  237  TRP237      0.0015
     93  N          1.0290   19.2050   30.4530 N.am  238  TYR238     -0.1960
     94  CA         1.4710   17.8220   30.4230 C.3   238  TYR238      0.1771
     95  C          0.3160   16.8740   30.7390 C.2   238  TYR238      0.2619
     96  O         -0.6110   17.2280   31.4770 O.2   238  TYR238     -0.2715
     97  CB         2.5620   17.6000   31.4650 C.3   238  TYR238      0.0574
     98  CG         3.9920   17.7070   30.9760 C.ar  238  TYR238     -0.0198
     99  CD1        4.5400   16.7400   30.1300 C.ar  238  TYR238     -0.0009
    100  CD2        4.8180   18.7320   31.4220 C.ar  238  TYR238     -0.0009
    101  CE1        5.8810   16.8170   29.7120 C.ar  238  TYR238      0.0417
    102  CE2        6.1580   18.8180   31.0130 C.ar  238  TYR238      0.0417
    103  CZ         6.6760   17.8570   30.1590 C.ar  238  TYR238      0.1957
    104  OH         7.9940   17.9210   29.7440 O.3   238  TYR238     -0.2866
    105  N          0.3840   15.6720   30.1690 N.am  239  MET239     -0.1977
    106  CA        -0.3700   14.5400   30.6650 C.3   239  MET239      0.1605
    107  C          0.6130   13.8550   31.5980 C.2   239  MET239      0.2287
    108  O          1.7690   13.6070   31.2100 O.2   239  MET239     -0.2864
    109  CB        -0.7390   13.6060   29.5150 C.3   239  MET239      0.0413
    110  CG        -1.4620   12.3480   29.9680 C.3   239  MET239      0.0598
    111  SD        -2.4610   11.6410   28.6480 S.3   239  MET239     -0.1393
    112  CE        -1.1850   10.7280   27.7570 C.3   239  MET239      0.0692
    113  N          3.5520   11.4120   30.7830 N.3   242  GLU242     -0.1245
    114  CA         4.7370   11.8520   30.0490 C.3   242  GLU242      0.1567
    115  C          5.9160   11.9910   30.9970 C.2   242  GLU242      0.2260
    116  O          7.0470   11.6550   30.6540 O.2   242  GLU242     -0.2867
    117  CB         4.4740   13.1780   29.3330 C.3   242  GLU242      0.0388
    118  CG         3.4920   13.0370   28.1980 C.3   242  GLU242      0.1160
    119  CD         3.1530   14.3730   27.5630 C.2   242  GLU242      0.3649
    120  OE1        2.2270   15.0710   28.0640 O.co2 242  GLU242     -0.2457
    121  OE2        3.8210   14.7200   26.5620 O.co2 242  GLU242     -0.2457
    122  N          0.5890    5.8980   19.4180 N.3   328  TRP328     -0.1241
    123  CA         0.9420    7.0650   20.2200 C.3   328  TRP328      0.1605
    124  C         -0.2270    7.5610   21.0600 C.2   328  TRP328      0.2264
    125  O         -0.0260    8.2250   22.0820 O.2   328  TRP328     -0.2867
    126  CB         1.4760    8.2030   19.3330 C.3   328  TRP328      0.0550
    127  CG         2.9210    8.0420   18.9650 C.ar  328  TRP328      0.0003
    128  CD1        3.4790    7.0050   18.2700 C.ar  328  TRP328      0.0946
    129  CD2        3.9920    8.9480   19.2640 C.ar  328  TRP328      0.0152
    130  NE1        4.8310    7.2080   18.1260 N.ar  328  TRP328     -0.2442
    131  CE2        5.1720    8.3900   18.7220 C.ar  328  TRP328      0.0810
    132  CE3        4.0660   10.1710   19.9310 C.ar  328  TRP328      0.0012
    133  CZ2        6.4240    9.0180   18.8340 C.ar  328  TRP328      0.0191
    134  CZ3        5.3160   10.7990   20.0420 C.ar  328  TRP328      0.0001
    135  CH2        6.4740   10.2170   19.4940 C.ar  328  TRP328      0.0015
    136  N          8.1740   16.5560   11.8390 N.3   356  TYR356     -0.1227
    137  CA         9.5830   16.4810   12.2100 C.3   356  TYR356      0.1736
    138  C         10.4010   17.2170   11.1580 C.2   356  TYR356      0.2595
    139  O          9.9820   17.3280   10.0000 O.2   356  TYR356     -0.2718
    140  CB        10.0440   15.0160   12.2940 C.3   356  TYR356      0.0548
    141  CG         9.4980   14.2500   13.4850 C.ar  356  TYR356     -0.0200
    142  CD1        8.9450   14.9230   14.5750 C.ar  356  TYR356     -0.0009
    143  CD2        9.5450   12.8490   13.5280 C.ar  356  TYR356     -0.0009
    144  CE1        8.4480   14.2280   15.6700 C.ar  356  TYR356      0.0417
    145  CE2        9.0450   12.1380   14.6230 C.ar  356  TYR356      0.0417
    146  CZ         8.4980   12.8400   15.6870 C.ar  356  TYR356      0.1957
    147  OH         8.0080   12.1640   16.7820 O.3   356  TYR356     -0.2866
    148  N         11.5550   17.7390   11.5590 N.am  357  GLN357     -0.1979
    149  CA        12.5400   18.2430   10.6000 C.3   357  GLN357      0.1601
    150  C         13.9160   17.8520   11.1130 C.2   357  GLN357      0.2287
    151  O         14.0630   17.5360   12.3040 O.2   357  GLN357     -0.2864
    152  CB        12.4240   19.7550   10.4230 C.3   357  GLN357      0.0394
    153  CG        12.2720   20.5070   11.7320 C.3   357  GLN357      0.0908
    154  CD        12.0530   21.9960   11.5260 C.2   357  GLN357      0.2608
    155  OE1       12.2480   22.5120   10.4270 O.2   357  GLN357     -0.2717
    156  NE2       11.6450   22.6910   12.5850 N.am  357  GLN357     -0.0878
    157  N         17.5820   17.7930   12.6260 N.3   359  LYS359     -0.1245
    158  CA        18.3440   18.5610   13.6000 C.3   359  LYS359      0.1561
    159  C         19.6010   19.1660   12.9670 C.2   359  LYS359      0.2260
    160  O         20.2310   18.5410   12.1060 O.2   359  LYS359     -0.2867
    161  CB        18.7070   17.6940   14.8140 C.3   359  LYS359      0.0271
    162  CG        17.4970   17.3300   15.6810 C.3   359  LYS359      0.0035
    163  CD        17.8910   16.6370   16.9880 C.3   359  LYS359      0.0206
    164  CE        16.6520   16.3430   17.8540 C.3   359  LYS359      0.1093
    165  NZ        16.9470   15.5090   19.0660 N.3   359  LYS359     -0.1314
@<TRIPOS>BOND
     1   139   138    2
     2   152   149    1
     3   152   153    1
     4   155   154    2
     5   149   150    1
     6   149   148    1
     7   150   151    2
     8   138   148   am
     9   138   137    1
    10   154   153    1
    11   154   156   am
    12   136   137    1
    13   160   159    2
    14   137   140    1
    15   140   141    1
    16   157   158    1
    17   159   158    1
    18   141   143   ar
    19   141   142   ar
    20   143   145   ar
    21   158   161    1
    22    50    51    2
    23    50    49    1
    24   142   144   ar
    25   145   146   ar
    26    49    52    1
    27    49    48    1
    28    43    42    2
    29   161   162    1
    30    55    54    1
    31    52    53    1
    32   144   146   ar
    33   162   163    1
    34   146   147    1
    35    42    48   am
    36    42    41    1
    37    53    54    1
    38    41    44    1
    39    41    40    1
    40   163   164    1
    41    44    45    1
    42    65    63   ar
    43    65    66   ar
    44   164   165    1
    45    45    46   ar
    46    45    47   ar
    47    63    61   ar
    48   130   128   ar
    49   130   131   ar
    50   128   127   ar
    51    66    64   ar
    52   131   133   ar
    53   131   129   ar
    54   133   135   ar
    55     1     2    1
    56   127   129   ar
    57   127   126    1
    58   129   132   ar
    59    61    60    1
    60    61    62   ar
    61   126   123    1
    62   122   123    1
    63   135   134   ar
    64    64    62   ar
    65     5     2    1
    66     5     6    1
    67    60    57    1
    68   132   134   ar
    69     4     3    2
    70    38    37    1
    71     2     3    1
    72    36    35    2
    73   123   124    1
    74    56    57    1
    75    35    34    1
    76    57    58    1
    77   124   125    2
    78    13    15   ar
    79    13    12   ar
    80    37    34    1
    81    37    39    1
    82     8     7    1
    83     8    11    1
    84     8     9    1
    85    15    16   ar
    86    10     9    2
    87    34    33    1
    88    11    12    1
    89    12    14   ar
    90    58    59    2
    91    58    67   am
    92     9    17   am
    93    16    14   ar
    94    67    68    1
    95    17    18    1
    96    18    19    1
    97    18    21    1
    98    70    69    2
    99    68    69    1
   100    68    71    1
   101    69    75   am
   102    19    20    2
   103    22    21    1
   104    22    23    1
   105    73    72    2
   106    75    76    1
   107    71    72    1
   108    72    74   am
   109    25    23   am
   110    23    24    2
   111    76    77    1
   112    29    28    2
   113    28    27    1
   114   121   119   ar
   115    77    78    2
   116    77    79   am
   117   119   120   ar
   118   119   118    1
   119    30    27    1
   120    30    31    1
   121   112   111    1
   122    27    26    1
   123    31    32    1
   124   118   117    1
   125    79    80    1
   126    82    81    2
   127    92    90   ar
   128    92    91   ar
   129   111   110    1
   130    90    88   ar
   131    91    89   ar
   132    26    32    1
   133    88    87   ar
   134    88    86   ar
   135   117   114    1
   136    89    86   ar
   137    81    80    1
   138    81    93   am
   139   109   110    1
   140   109   106    1
   141    80    83    1
   142    87    85   ar
   143    86    84   ar
   144   101    99   ar
   145   101   103   ar
   146   104   103    1
   147   114   113    1
   148   114   115    1
   149    85    84   ar
   150    84    83    1
   151    99    98   ar
   152   103   102   ar
   153   105   106    1
   154   105    95   am
   155    94    93    1
   156    94    95    1
   157    94    97    1
   158   116   115    2
   159   106   107    1
   160    95    96    2
   161    98   100   ar
   162    98    97    1
   163   102   100   ar
   164   108   107    2
