@<TRIPOS>MOLECULE
tmp/5g6uB01.pdb
 104 96 0 0 0
SMALL
GASTEIGER

@<TRIPOS>ATOM
      1  N         36.0150   21.8700   60.6790 N.3    53  ILE53      -0.1245
      2  CA        36.7660   21.0050   59.7700 C.3    53  ILE53       0.1561
      3  C         37.4980   21.8590   58.7440 C.2    53  ILE53       0.2260
      4  O         36.8920   22.7190   58.0910 O.2    53  ILE53      -0.2867
      5  CB        35.8370   19.9970   59.0770 C.3    53  ILE53       0.0252
      6  CG1       35.1680   19.1070   60.1240 C.3    53  ILE53       0.0019
      7  CG2       36.6240   19.1460   58.0590 C.3    53  ILE53       0.0019
      8  CD1       34.1020   18.2230   59.5720 C.3    53  ILE53       0.0001
      9  N         40.4180    5.7380   60.4940 N.3    88  GLU88      -0.1245
     10  CA        40.7270    6.4900   59.2810 C.3    88  GLU88       0.1567
     11  C         42.1850    6.2550   58.8950 C.2    88  GLU88       0.2260
     12  O         43.0120    5.9790   59.7610 O.2    88  GLU88      -0.2867
     13  CB        40.4770    7.9820   59.4950 C.3    88  GLU88       0.0388
     14  CG        39.0970    8.2960   60.0410 C.3    88  GLU88       0.1160
     15  CD        37.9850    7.9460   59.0770 C.2    88  GLU88       0.3649
     16  OE1       38.2580    7.7840   57.8730 O.co2  88  GLU88      -0.2457
     17  OE2       36.8310    7.8370   59.5230 O.co2  88  GLU88      -0.2457
     18  N         39.5080    5.5350   55.8360 N.3    90  ASN90      -0.1240
     19  CA        38.6610    4.3980   55.5080 C.3    90  ASN90       0.1653
     20  C         38.1520    4.4200   54.0720 C.2    90  ASN90       0.2266
     21  O         37.4240    3.5070   53.6770 O.2    90  ASN90      -0.2867
     22  CB        37.4780    4.3160   56.4830 C.3    90  ASN90       0.1155
     23  CG        36.5280    5.4880   56.3650 C.2    90  ASN90       0.2627
     24  OD1       36.7540    6.4120   55.5890 O.2    90  ASN90      -0.2716
     25  ND2       35.4420    5.4410   57.1300 N.am   90  ASN90      -0.0877
     26  N         35.8430    5.8720   52.3490 N.3    92  ALA92      -0.1245
     27  CA        34.4040    5.6610   52.2050 C.3    92  ALA92       0.1562
     28  C         33.9710    5.8370   50.7530 C.2    92  ALA92       0.2260
     29  O         34.3480    6.8080   50.0900 O.2    92  ALA92      -0.2867
     30  CB        33.6410    6.6330   53.1050 C.3    92  ALA92       0.0290
     31  N         37.6230    8.8450   48.6970 N.3    96  GLU96      -0.1245
     32  CA        38.1260    9.8100   49.6790 C.3    96  GLU96       0.1567
     33  C         39.6430    9.8980   49.5200 C.2    96  GLU96       0.2260
     34  O         40.4030    9.1830   50.1790 O.2    96  GLU96      -0.2867
     35  CB        37.7040    9.4150   51.0920 C.3    96  GLU96       0.0388
     36  CG        36.1900    9.4440   51.2610 C.3    96  GLU96       0.1160
     37  CD        35.7550    9.3980   52.7060 C.2    96  GLU96       0.3649
     38  OE1       36.3630    8.6290   53.4720 O.co2  96  GLU96      -0.2457
     39  OE2       34.7930   10.1140   53.0690 O.co2  96  GLU96      -0.2457
     40  N         41.5040   16.0730   55.7920 N.3   100  ASN100     -0.1240
     41  CA        41.2500   17.2860   56.5550 C.3   100  ASN100      0.1653
     42  C         41.5210   17.0560   58.0360 C.2   100  ASN100      0.2266
     43  O         41.6350   15.9210   58.5030 O.2   100  ASN100     -0.2867
     44  CB        39.8100   17.7910   56.3450 C.3   100  ASN100      0.1155
     45  CG        38.7550   16.7440   56.6620 C.2   100  ASN100      0.2627
     46  OD1       38.7860   16.0990   57.7120 O.2   100  ASN100     -0.2716
     47  ND2       37.7980   16.5880   55.7590 N.am  100  ASN100     -0.0877
     48  N         39.7020   17.1710   61.3580 N.3   102  LYS102     -0.1245
     49  CA        38.2980   17.0210   61.7240 C.3   102  LYS102      0.1561
     50  C         38.0890   16.9950   63.2340 C.2   102  LYS102      0.2260
     51  O         37.3850   17.8570   63.7640 O.2   102  LYS102     -0.2867
     52  CB        37.7450   15.7420   61.0860 C.3   102  LYS102      0.0271
     53  CG        36.3350   15.3880   61.5160 C.3   102  LYS102      0.0035
     54  CD        35.8370   14.1660   60.7810 C.3   102  LYS102      0.0206
     55  CE        34.4490   13.7620   61.2580 C.3   102  LYS102      0.1093
     56  NZ        33.9850   12.5090   60.6070 N.3   102  LYS102     -0.1314
     57  N         40.8900   13.0470   58.8980 N.3   110  ASN110     -0.1225
     58  CA        39.9110   12.2410   58.1830 C.3   110  ASN110      0.1785
     59  C         40.1620   12.3770   56.6900 C.2   110  ASN110      0.2597
     60  O         40.4560   13.4750   56.2130 O.2   110  ASN110     -0.2718
     61  CB        38.4810   12.6970   58.5090 C.3   110  ASN110      0.1169
     62  CG        37.4430   11.8870   57.7940 C.2   110  ASN110      0.2627
     63  OD1       37.5440   10.6730   57.7500 O.2   110  ASN110     -0.2716
     64  ND2       36.4230   12.5470   57.2490 N.am  110  ASN110     -0.0877
     65  N         40.0760   11.2640   55.9530 N.am  111  ASP111     -0.1960
     66  CA        40.0250   11.3550   54.4970 C.3   111  ASP111      0.1840
     67  C         38.5810   11.6040   54.0740 C.2   111  ASP111      0.2622
     68  O         37.6460   11.0680   54.6750 O.2   111  ASP111     -0.2715
     69  CB        40.6050   10.0990   53.8150 C.3   111  ASP111      0.1450
     70  CG        39.9090    8.7960   54.2050 C.2   111  ASP111      0.3671
     71  OD1       39.3270    8.6970   55.3070 O.co2 111  ASP111     -0.2456
     72  OD2       39.9870    7.8380   53.3990 O.co2 111  ASP111     -0.2456
     73  N         38.4000   12.4690   53.0820 N.am  112  ALA112     -0.1964
     74  CA        37.0770   12.8490   52.6090 C.3   112  ALA112      0.1713
     75  C         37.1510   13.0880   51.1020 C.2   112  ALA112      0.2458
     76  O         38.2430   13.2240   50.5480 O.2   112  ALA112     -0.2730
     77  CB        36.5580   14.1030   53.3270 C.3   112  ALA112      0.0333
     78  N         36.0070   13.1260   50.4270 N.am  113  PRO113     -0.2727
     79  CA        36.0320   13.3590   48.9720 C.3   113  PRO113      0.1402
     80  C         36.6140   14.7260   48.6340 C.2   113  PRO113      0.2269
     81  O         36.2360   15.7460   49.2200 O.2   113  PRO113     -0.2865
     82  CB        34.5550   13.2530   48.5740 C.3   113  PRO113      0.0296
     83  CG        33.9200   12.4560   49.6710 C.3   113  PRO113      0.0237
     84  CD        34.6480   12.8560   50.9170 C.3   113  PRO113      0.0939
     85  N         34.3310   17.8050   48.1120 N.3   116  LYS116     -0.1245
     86  CA        33.5380   18.4340   49.1590 C.3   116  LYS116      0.1561
     87  C         34.1700   19.7640   49.5490 C.2   116  LYS116      0.2260
     88  O         35.3800   19.9710   49.4100 O.2   116  LYS116     -0.2867
     89  CB        33.4050   17.5130   50.3740 C.3   116  LYS116      0.0271
     90  CG        31.9760   17.0290   50.6290 C.3   116  LYS116      0.0035
     91  CD        31.7270   16.7800   52.1120 C.3   116  LYS116      0.0206
     92  CE        30.2440   16.7440   52.4410 C.3   116  LYS116      0.1093
     93  NZ        29.5490   15.5940   51.7890 N.3   116  LYS116     -0.1314
     94  N         35.1370   22.5600   52.2990 N.3   118  PHE118     -0.1241
     95  CA        35.4430   22.8360   53.6950 C.3   118  PHE118      0.1605
     96  C         36.2570   24.1210   53.7650 C.2   118  PHE118      0.2264
     97  O         36.8520   24.5530   52.7740 O.2   118  PHE118     -0.2867
     98  CB        36.2480   21.7030   54.3670 C.3   118  PHE118      0.0534
     99  CG        35.5190   20.3910   54.4700 C.ar  118  PHE118     -0.0203
    100  CD1       34.5280   20.2100   55.4210 C.ar  118  PHE118     -0.0042
    101  CD2       35.8520   19.3280   53.6480 C.ar  118  PHE118     -0.0042
    102  CE1       33.8630   19.0020   55.5360 C.ar  118  PHE118     -0.0003
    103  CE2       35.1850   18.1060   53.7580 C.ar  118  PHE118     -0.0003
    104  CZ        34.1910   17.9490   54.7080 C.ar  118  PHE118     -0.0000
@<TRIPOS>BOND
     1    85    86    1
     2    82    79    1
     3    82    83    1
     4    80    79    1
     5    80    81    2
     6    31    32    1
     7    79    78    1
     8    86    87    1
     9    86    89    1
    10    88    87    2
    11    33    32    1
    12    33    34    2
    13    83    84    1
    14    32    35    1
    15    29    28    2
    16    89    90    1
    17    78    84    1
    18    78    75   am
    19    76    75    2
    20    90    91    1
    21    28    27    1
    22    35    36    1
    23    75    74    1
    24    36    37    1
    25    93    92    1
    26    91    92    1
    27    27    26    1
    28    27    30    1
    29    94    95    1
    30    74    73    1
    31    74    77    1
    32    37    39   ar
    33    37    38   ar
    34    97    96    2
    35    73    67   am
    36    72    70   ar
    37   101   103   ar
    38   101    99   ar
    39    21    20    2
    40    95    96    1
    41    95    98    1
    42   103   104   ar
    43    69    70    1
    44    69    66    1
    45    20    19    1
    46    67    66    1
    47    67    68    2
    48    70    71   ar
    49    98    99    1
    50    99   100   ar
    51    66    65    1
    52   104   102   ar
    53   100   102   ar
    54    19    18    1
    55    19    22    1
    56    24    23    2
    57    47    45   am
    58    40    41    1
    59    65    59   am
    60    60    59    2
    61    44    41    1
    62    44    45    1
    63    23    22    1
    64    23    25   am
    65    41    42    1
    66    45    46    2
    67    59    58    1
    68    64    62   am
    69    63    62    2
    70    62    61    1
    71    16    15   ar
    72    42    43    2
    73     7     5    1
    74     4     3    2
    75    58    61    1
    76    58    57    1
    77     3     2    1
    78    11    10    1
    79    11    12    2
    80    15    17   ar
    81    15    14    1
    82     5     2    1
    83     5     6    1
    84    10    13    1
    85    10     9    1
    86    13    14    1
    87     8     6    1
    88     2     1    1
    89    56    55    1
    90    54    55    1
    91    54    53    1
    92    52    53    1
    93    52    49    1
    94    48    49    1
    95    49    50    1
    96    50    51    2
