@<TRIPOS>MOLECULE
tmp/5galB00.pdb
 98 91 0 0 0
SMALL
GASTEIGER

@<TRIPOS>ATOM
      1  N          0.8410   48.4970   44.9500 N.3    28  ARG28      -0.1245
      2  CA         2.0730   47.7310   44.8670 C.3    28  ARG28       0.1563
      3  C          3.2320   48.6340   44.4980 C.2    28  ARG28       0.2260
      4  O          3.0260   49.7960   44.1560 O.2    28  ARG28      -0.2867
      5  CB         1.9380   46.6050   43.8420 C.3    28  ARG28       0.0307
      6  CG         1.6820   47.0720   42.4460 C.3    28  ARG28       0.0489
      7  CD         1.5160   45.8950   41.5220 C.3    28  ARG28       0.2205
      8  NE         0.2060   45.2610   41.6800 N.pl3  28  ARG28      -0.0865
      9  CZ        -0.3340   44.4220   40.7900 C.cat  28  ARG28       0.5346
     10  NH1        0.3240   44.1130   39.6720 N.pl3  28  ARG28       0.1354
     11  NH2       -1.5300   43.8800   41.0130 N.pl3  28  ARG28       0.1354
     12  N         14.1900   42.0500   40.1140 N.3    46  HIS46      -0.1241
     13  CA        12.9180   42.7640   40.1510 C.3    46  HIS46       0.1621
     14  C         12.2380   42.2690   41.4360 C.2    46  HIS46       0.2264
     15  O         11.8680   41.0900   41.5510 O.2    46  HIS46      -0.2867
     16  CB        12.0570   42.4290   38.9070 C.3    46  HIS46       0.0745
     17  CG        10.6340   42.9110   38.9920 C.ar   46  HIS46       0.0817
     18  ND1       10.2860   44.2450   38.9030 N.ar   46  HIS46      -0.2268
     19  CD2        9.4760   42.2380   39.2000 C.ar   46  HIS46       0.1154
     20  CE1        8.9800   44.3720   39.0560 C.ar   46  HIS46       0.1986
     21  NE2        8.4650   43.1700   39.2380 N.ar   46  HIS46      -0.2212
     22  N          9.0830   42.9600   43.8540 N.3    48  ASN48      -0.1240
     23  CA         7.7710   43.5820   43.7150 C.3    48  ASN48       0.1653
     24  C          6.6640   43.2980   44.7370 C.2    48  ASN48       0.2266
     25  O          5.8020   42.4680   44.4860 O.2    48  ASN48      -0.2867
     26  CB         7.3060   43.2190   42.2920 C.3    48  ASN48       0.1155
     27  CG         5.9640   43.8150   41.8970 C.2    48  ASN48       0.2627
     28  OD1        5.2550   43.2080   41.0940 O.2    48  ASN48      -0.2716
     29  ND2        5.6210   44.9950   42.4170 N.am   48  ASN48      -0.0877
     30  N          3.2920   43.2640   46.3360 N.3    50  ARG50      -0.1245
     31  CA         1.9740   43.5630   45.7800 C.3    50  ARG50       0.1563
     32  C          0.9400   43.5400   46.8870 C.2    50  ARG50       0.2260
     33  O          0.3650   42.5000   47.1870 O.2    50  ARG50      -0.2867
     34  CB         1.6240   42.5570   44.6850 C.3    50  ARG50       0.0307
     35  CG         2.3490   42.8330   43.3760 C.3    50  ARG50       0.0489
     36  CD         2.1160   41.7300   42.3860 C.3    50  ARG50       0.2205
     37  NE         3.0960   41.7290   41.3010 N.pl3  50  ARG50      -0.0865
     38  CZ         3.1710   40.7890   40.3610 C.cat  50  ARG50       0.5346
     39  NH1        2.3210   39.7640   40.3670 N.pl3  50  ARG50       0.1354
     40  NH2        4.0920   40.8590   39.4140 N.pl3  50  ARG50       0.1354
     41  N          1.0460   39.3550   47.6590 N.3    55  GLU55      -0.1245
     42  CA         2.1790   38.4990   47.3070 C.3    55  GLU55       0.1567
     43  C          3.3930   39.3660   46.9370 C.2    55  GLU55       0.2260
     44  O          3.2410   40.5160   46.5410 O.2    55  GLU55      -0.2867
     45  CB         1.8110   37.5840   46.1270 C.3    55  GLU55       0.0388
     46  CG         2.0540   38.2000   44.7590 C.3    55  GLU55       0.1160
     47  CD         1.0870   37.6910   43.7120 C.2    55  GLU55       0.3649
     48  OE1        1.0180   36.4600   43.5340 O.co2  55  GLU55      -0.2457
     49  OE2        0.4040   38.5190   43.0700 O.co2  55  GLU55      -0.2457
     50  N          6.6130   39.2840   44.4550 N.3    57  VAL57      -0.1245
     51  CA         7.2890   38.6090   43.3610 C.3    57  VAL57       0.1561
     52  C          8.7410   39.0240   43.1010 C.2    57  VAL57       0.2260
     53  O          9.0740   40.2080   43.0880 O.2    57  VAL57      -0.2867
     54  CB         6.4630   38.8060   42.0740 C.3    57  VAL57       0.0252
     55  CG1        7.1040   38.0950   40.8800 C.3    57  VAL57       0.0019
     56  CG2        5.0490   38.3220   42.3220 C.3    57  VAL57       0.0019
     57  N         11.8880   38.4540   40.3100 N.3    59  ASN59      -0.1240
     58  CA        11.9900   38.0330   38.9220 C.3    59  ASN59       0.1653
     59  C         13.1530   38.6950   38.2000 C.2    59  ASN59       0.2266
     60  O         13.7560   39.6440   38.6910 O.2    59  ASN59      -0.2867
     61  CB        10.6720   38.3300   38.1800 C.3    59  ASN59       0.1155
     62  CG        10.3300   37.2780   37.1160 C.2    59  ASN59       0.2627
     63  OD1       11.1750   36.4620   36.7240 O.2    59  ASN59      -0.2716
     64  ND2        9.0850   37.3030   36.6400 N.am   59  ASN59      -0.0877
     65  N         10.3790   38.5080   30.5950 N.3    66  TRP66      -0.1241
     66  CA        10.4100   38.1600   32.0070 C.3    66  TRP66       0.1605
     67  C         10.9050   36.7290   32.1660 C.2    66  TRP66       0.2264
     68  O         11.1230   36.0300   31.1750 O.2    66  TRP66      -0.2867
     69  CB         9.0220   38.3070   32.6190 C.3    66  TRP66       0.0550
     70  CG         8.6170   39.7360   32.8140 C.ar   66  TRP66       0.0003
     71  CD1        7.6820   40.4280   32.0960 C.ar   66  TRP66       0.0946
     72  CD2        9.1200   40.6490   33.8010 C.ar   66  TRP66       0.0152
     73  NE1        7.5690   41.7120   32.5770 N.ar   66  TRP66      -0.2442
     74  CE2        8.4380   41.8760   33.6230 C.ar   66  TRP66       0.0810
     75  CE3       10.0790   40.5480   34.8220 C.ar   66  TRP66       0.0012
     76  CZ2        8.6870   42.9980   34.4280 C.ar   66  TRP66       0.0191
     77  CZ3       10.3250   41.6630   35.6210 C.ar   66  TRP66       0.0001
     78  CH2        9.6290   42.8720   35.4170 C.ar   66  TRP66       0.0015
     79  N          9.3550   33.5280   37.8570 N.3    69  GLU69      -0.1245
     80  CA         9.1830   34.2950   39.0710 C.3    69  GLU69       0.1567
     81  C          9.1720   33.4410   40.3250 C.2    69  GLU69       0.2260
     82  O          8.8180   32.2590   40.3110 O.2    69  GLU69      -0.2867
     83  CB         7.9270   35.2020   39.0030 C.3    69  GLU69       0.0388
     84  CG         6.5580   34.5500   38.8360 C.3    69  GLU69       0.1160
     85  CD         5.4980   35.5290   38.3070 C.2    69  GLU69       0.3649
     86  OE1        5.7630   36.2210   37.3000 O.co2  69  GLU69      -0.2457
     87  OE2        4.3980   35.6180   38.8890 O.co2  69  GLU69      -0.2457
     88  N          8.1920   33.7120   44.5830 N.3    71  ARG71      -0.1245
     89  CA         7.3930   34.4820   45.5080 C.3    71  ARG71       0.1563
     90  C          7.9170   34.2750   46.9270 C.2    71  ARG71       0.2260
     91  O          8.3470   33.1780   47.2780 O.2    71  ARG71      -0.2867
     92  CB         5.9210   34.0500   45.3940 C.3    71  ARG71       0.0307
     93  CG         4.9850   35.1040   44.8060 C.3    71  ARG71       0.0489
     94  CD         3.7940   34.4890   44.0790 C.3    71  ARG71       0.2205
     95  NE         4.1570   34.1380   42.7120 N.pl3  71  ARG71      -0.0865
     96  CZ         3.6570   34.7080   41.6210 C.cat  71  ARG71       0.5346
     97  NH1        2.7570   35.6760   41.7110 N.pl3  71  ARG71       0.1354
     98  NH2        4.0610   34.2980   40.4370 N.pl3  71  ARG71       0.1354
@<TRIPOS>BOND
     1    65    66    1
     2    68    67    2
     3    66    67    1
     4    66    69    1
     5    71    73   ar
     6    71    70   ar
     7    73    74   ar
     8    69    70    1
     9    70    72   ar
    10    74    72   ar
    11    74    76   ar
    12    72    75   ar
    13    76    78   ar
    14    75    77   ar
    15    78    77   ar
    16    64    62   am
    17    63    62    2
    18    62    61    1
    19    86    85   ar
    20    79    80    1
    21    61    58    1
    22    59    60    2
    23    59    58    1
    24    85    84    1
    25    85    87   ar
    26    84    83    1
    27    18    17   ar
    28    18    20   ar
    29    16    17    1
    30    16    13    1
    31    58    57    1
    32    17    19   ar
    33    83    80    1
    34    20    21   ar
    35    80    81    1
    36    19    21   ar
    37    40    38    1
    38    10     9    1
    39    12    13    1
    40    13    14    1
    41    82    81    2
    42    38    39    1
    43    38    37    2
    44    98    96    1
    45     9    11    1
    46     9     8    2
    47    55    54    1
    48    28    27    2
    49    37    36    1
    50    14    15    2
    51     7     8    1
    52     7     6    1
    53    96    97    1
    54    96    95    2
    55    27    26    1
    56    27    29   am
    57    54    56    1
    58    54    51    1
    59    26    23    1
    60    36    35    1
    61     6     5    1
    62    95    94    1
    63    49    47   ar
    64    53    52    2
    65    52    51    1
    66    51    50    1
    67    35    34    1
    68    48    47   ar
    69    47    46    1
    70    23    22    1
    71    23    24    1
    72     5     2    1
    73    94    93    1
    74     4     3    2
    75    25    24    2
    76     3     2    1
    77    88    89    1
    78    34    31    1
    79    46    45    1
    80    93    92    1
    81     2     1    1
    82    92    89    1
    83    89    90    1
    84    31    30    1
    85    31    32    1
    86    45    42    1
    87    44    43    2
    88    32    33    2
    89    90    91    2
    90    43    42    1
    91    42    41    1
