@<TRIPOS>MOLECULE
tmp/5gcnA00.pdb
 180 177 0 0 0
SMALL
GASTEIGER

@<TRIPOS>ATOM
      1  N         -3.7900  -15.7160   54.8100 N.3    28  ILE28      -0.1231
      2  CA        -2.4640  -15.1060   54.7470 C.3    28  ILE28       0.1692
      3  C         -2.4260  -13.8140   55.5530 C.2    28  ILE28       0.2592
      4  O         -1.6170  -13.6660   56.4690 O.2    28  ILE28      -0.2718
      5  CB        -2.0420  -14.8120   53.2930 C.3    28  ILE28       0.0266
      6  CG1       -1.8100  -16.1150   52.5340 C.3    28  ILE28       0.0019
      7  CG2       -0.7860  -13.9540   53.2520 C.3    28  ILE28       0.0020
      8  CD1       -1.9320  -15.9590   51.0360 C.3    28  ILE28       0.0001
      9  N         -3.3110  -12.8840   55.2120 N.am   29  PHE29      -0.1976
     10  CA        -3.3690  -11.6070   55.9230 C.3    29  PHE29       0.1639
     11  C         -3.5800  -11.8330   57.4150 C.2    29  PHE29       0.2290
     12  O         -2.6640  -11.6780   58.2200 O.2    29  PHE29      -0.2864
     13  CB        -4.5000  -10.7270   55.3850 C.3    29  PHE29       0.0560
     14  CG        -4.5730  -10.6600   53.8920 C.ar   29  PHE29      -0.0200
     15  CD1       -3.4300  -10.7400   53.1220 C.ar   29  PHE29      -0.0042
     16  CD2       -5.7920  -10.5040   53.2630 C.ar   29  PHE29      -0.0042
     17  CE1       -3.4990  -10.6680   51.7480 C.ar   29  PHE29      -0.0003
     18  CE2       -5.8790  -10.4330   51.8950 C.ar   29  PHE29      -0.0003
     19  CZ        -4.7280  -10.5150   51.1280 C.ar   29  PHE29      -0.0000
     20  N         -0.3660  -13.6870   59.3840 N.3    32  GLN32      -0.1231
     21  CA         0.8070  -12.9090   59.7640 C.3    32  GLN32       0.1698
     22  C          0.3990  -11.6640   60.5430 C.2    32  GLN32       0.2592
     23  O          1.1520  -11.1640   61.3800 O.2    32  GLN32      -0.2718
     24  CB         1.6090  -12.5130   58.5210 C.3    32  GLN32       0.0381
     25  CG         2.3180  -13.6750   57.8280 C.3    32  GLN32       0.0905
     26  CD         1.8160  -15.0350   58.2640 C.2    32  GLN32       0.2608
     27  OE1        2.2980  -15.6060   59.2420 O.2    32  GLN32      -0.2717
     28  NE2        0.8400  -15.5560   57.5370 N.am   32  GLN32      -0.0878
     29  N         -0.8010  -11.1720   60.2590 N.am   33  LEU33      -0.1980
     30  CA        -1.3250   -9.9920   60.9240 C.3    33  LEU33       0.1596
     31  C         -1.8960  -10.3610   62.2920 C.2    33  LEU33       0.2287
     32  O         -2.9090  -11.0530   62.3780 O.2    33  LEU33      -0.2864
     33  CB        -2.3960   -9.3370   60.0490 C.3    33  LEU33       0.0297
     34  CG        -1.9480   -9.0460   58.6150 C.3    33  LEU33       0.0022
     35  CD1       -3.1410   -8.7580   57.7150 C.3    33  LEU33       0.0001
     36  CD2       -0.9680   -7.8830   58.5950 C.3    33  LEU33       0.0001
     37  N         -7.1500   -6.2390   51.5520 N.3    81  PHE81      -0.1227
     38  CA        -5.7790   -6.3130   52.0790 C.3    81  PHE81       0.1736
     39  C         -4.8440   -7.0790   51.1590 C.2    81  PHE81       0.2595
     40  O         -5.2590   -7.9650   50.4090 O.2    81  PHE81      -0.2718
     41  CB        -5.7280   -6.8980   53.5020 C.3    81  PHE81       0.0547
     42  CG        -6.4150   -6.0260   54.5230 C.ar   81  PHE81      -0.0202
     43  CD1       -7.1730   -4.9370   54.1140 C.ar   81  PHE81      -0.0042
     44  CD2       -6.3080   -6.2910   55.8830 C.ar   81  PHE81      -0.0042
     45  CE1       -7.8040   -4.1270   55.0240 C.ar   81  PHE81      -0.0003
     46  CE2       -6.9480   -5.4730   56.8050 C.ar   81  PHE81      -0.0003
     47  CZ        -7.6950   -4.3870   56.3680 C.ar   81  PHE81      -0.0000
     48  N         -3.5710   -6.7140   51.2420 N.am   82  LEU82      -0.1966
     49  CA        -2.5190   -7.3320   50.4550 C.3    82  LEU82       0.1728
     50  C         -1.5210   -7.9760   51.3960 C.2    82  LEU82       0.2616
     51  O         -1.2890   -7.4590   52.4890 O.2    82  LEU82      -0.2715
     52  CB        -1.8070   -6.2800   49.5910 C.3    82  LEU82       0.0311
     53  CG        -0.2700   -6.3740   49.5510 C.3    82  LEU82       0.0022
     54  CD1        0.2220   -6.4930   48.1230 C.3    82  LEU82       0.0001
     55  CD2        0.3650   -5.1770   50.2450 C.3    82  LEU82       0.0001
     56  N         -0.9040   -9.0770   50.9710 N.am   83  ALA83      -0.1963
     57  CA         0.0940   -9.7330   51.8150 C.3    83  ALA83       0.1728
     58  C          0.4120  -11.1640   51.4070 C.2    83  ALA83       0.2616
     59  O         -0.4730  -11.9810   51.1510 O.2    83  ALA83      -0.2715
     60  CB        -0.3290   -9.6930   53.2610 C.3    83  ALA83       0.0334
     61  N          1.7070  -11.4430   51.3980 N.am   84  VAL84      -0.1977
     62  CA         2.2460  -12.7500   51.0810 C.3    84  VAL84       0.1596
     63  C          2.1810  -13.6510   52.3250 C.2    84  VAL84       0.2287
     64  O          2.2470  -13.1540   53.4490 O.2    84  VAL84      -0.2864
     65  CB         3.7080  -12.5830   50.6360 C.3    84  VAL84       0.0276
     66  CG1        4.3950  -13.9090   50.4250 C.3    84  VAL84       0.0022
     67  CG2        3.7890  -11.7170   49.3930 C.3    84  VAL84       0.0022
     68  N          3.1180  -16.2870   55.3680 N.3    86  ALA86      -0.1231
     69  CA         4.2080  -16.3010   56.3510 C.3    86  ALA86       0.1694
     70  C          5.6180  -16.4480   55.7860 C.2    86  ALA86       0.2592
     71  O          6.1190  -15.5450   55.1250 O.2    86  ALA86      -0.2718
     72  CB         3.9270  -17.3530   57.4170 C.3    86  ALA86       0.0304
     73  N          6.2940  -17.5470   56.1030 N.am   87  ASN87      -0.1974
     74  CA         7.6750  -17.7230   55.6650 C.3    87  ASN87       0.1688
     75  C          7.7970  -17.8630   54.1580 C.2    87  ASN87       0.2292
     76  O          8.6890  -18.5430   53.6530 O.2    87  ASN87      -0.2864
     77  CB         8.3410  -18.8930   56.3860 C.3    87  ASN87       0.1181
     78  CG         9.6030  -18.4550   57.1100 C.2    87  ASN87       0.2629
     79  OD1       10.6110  -19.1630   57.1110 O.2    87  ASN87      -0.2716
     80  ND2        9.5490  -17.2780   57.7350 N.am   87  ASN87      -0.0877
     81  N          7.0970  -14.7820   52.3310 N.3    89  GLN89      -0.1231
     82  CA         7.4250  -13.4110   51.9650 C.3    89  GLN89       0.1698
     83  C          8.9380  -13.2050   51.8610 C.2    89  GLN89       0.2592
     84  O          9.6740  -14.1210   51.4990 O.2    89  GLN89      -0.2718
     85  CB         6.8270  -12.4690   52.9980 C.3    89  GLN89       0.0381
     86  CG         5.4100  -12.8380   53.3870 C.3    89  GLN89       0.0905
     87  CD         5.2690  -13.1770   54.8460 C.2    89  GLN89       0.2608
     88  OE1        6.2380  -13.1550   55.6040 O.2    89  GLN89      -0.2717
     89  NE2        4.0540  -13.4910   55.2480 N.am   89  GLN89      -0.0878
     90  N          9.3910  -11.9880   52.1770 N.am   90  VAL90      -0.1980
     91  CA        10.8110  -11.6370   52.1210 C.3    90  VAL90       0.1595
     92  C         11.4600  -12.1590   50.8440 C.2    90  VAL90       0.2287
     93  O         12.6460  -12.4930   50.8260 O.2    90  VAL90      -0.2864
     94  CB        11.5940  -12.1540   53.3520 C.3    90  VAL90       0.0276
     95  CG1       11.5910  -11.1110   54.4640 C.3    90  VAL90       0.0022
     96  CG2       11.0240  -13.4730   53.8560 C.3    90  VAL90       0.0022
     97  N         10.0230  -10.7280   47.6000 N.3    92  GLY92      -0.1210
     98  CA         9.8030   -9.6490   46.6530 C.3    92  GLY92       0.1956
     99  C          8.6340   -9.9180   45.7240 C.2    92  GLY92       0.2612
    100  O          8.8150  -10.0470   44.5130 O.2    92  GLY92      -0.2717
    101  N          7.4340  -10.0020   46.2920 N.am   93  TYR93      -0.1962
    102  CA         6.2310  -10.2570   45.5030 C.3    93  TYR93       0.1771
    103  C          5.1100   -9.2930   45.8810 C.2    93  TYR93       0.2620
    104  O          4.5670   -8.5920   45.0270 O.2    93  TYR93      -0.2715
    105  CB         5.7590  -11.7000   45.7040 C.3    93  TYR93       0.0574
    106  CG         6.8240  -12.7380   45.4250 C.ar   93  TYR93      -0.0198
    107  CD1        7.7040  -12.5920   44.3590 C.ar   93  TYR93      -0.0009
    108  CD2        6.9480  -13.8660   46.2270 C.ar   93  TYR93      -0.0009
    109  CE1        8.6760  -13.5410   44.1020 C.ar   93  TYR93       0.0417
    110  CE2        7.9180  -14.8180   45.9770 C.ar   93  TYR93       0.0417
    111  CZ         8.7790  -14.6500   44.9130 C.ar   93  TYR93       0.1957
    112  OH         9.7470  -15.5960   44.6610 O.3    93  TYR93      -0.2866
    113  N          4.7620   -9.2750   47.1680 N.am   94  GLY94      -0.1940
    114  CA         3.6990   -8.4070   47.6580 C.3    94  GLY94       0.2014
    115  C          3.6820   -7.0300   47.0110 C.2    94  GLY94       0.2639
    116  O          2.6790   -6.6330   46.4190 O.2    94  GLY94      -0.2714
    117  N          4.7860   -6.2990   47.1300 N.am   95  THR95      -0.1950
    118  CA         4.8890   -4.9540   46.5580 C.3    95  THR95       0.1897
    119  C          4.3500   -4.9090   45.1310 C.2    95  THR95       0.2313
    120  O          3.7970   -3.8970   44.7010 O.2    95  THR95      -0.2863
    121  CB         6.3410   -4.4780   46.5820 C.3    95  THR95       0.1794
    122  OG1        6.8760   -4.5640   47.8910 O.3    95  THR95      -0.2208
    123  CG2        6.5110   -3.0510   46.1080 C.3    95  THR95       0.0378
    124  N          1.3180   -2.8080   61.8440 N.3   120  PHE120     -0.1227
    125  CA         1.9620   -3.7190   60.9010 C.3   120  PHE120      0.1736
    126  C          1.7440   -3.2770   59.4530 C.2   120  PHE120      0.2595
    127  O          2.6940   -2.9340   58.7440 O.2   120  PHE120     -0.2718
    128  CB         1.4190   -5.1340   61.0970 C.3   120  PHE120      0.0547
    129  CG         2.4490   -6.2110   60.9110 C.ar  120  PHE120     -0.0202
    130  CD1        3.5660   -6.2730   61.7280 C.ar  120  PHE120     -0.0042
    131  CD2        2.2940   -7.1670   59.9210 C.ar  120  PHE120     -0.0042
    132  CE1        4.5100   -7.2680   61.5580 C.ar  120  PHE120     -0.0003
    133  CE2        3.2340   -8.1640   59.7470 C.ar  120  PHE120     -0.0003
    134  CZ         4.3430   -8.2150   60.5660 C.ar  120  PHE120     -0.0000
    135  N          0.4870   -3.2770   59.0220 N.am  121  ALA121     -0.1980
    136  CA         0.1470   -2.8730   57.6620 C.3   121  ALA121      0.1597
    137  C          0.2670   -1.3670   57.5220 C.2   121  ALA121      0.2287
    138  O          0.4760   -0.8410   56.4300 O.2   121  ALA121     -0.2864
    139  CB        -1.2520   -3.3400   57.2930 C.3   121  ALA121      0.0319
    140  N          3.6740   -0.5240   56.5610 N.3   124  TYR124     -0.1227
    141  CA         3.8150   -1.2440   55.3050 C.3   124  TYR124      0.1736
    142  C          3.0380   -0.5470   54.1900 C.2   124  TYR124      0.2595
    143  O          3.4710   -0.5290   53.0350 O.2   124  TYR124     -0.2718
    144  CB         3.3310   -2.6880   55.4620 C.3   124  TYR124      0.0548
    145  CG         4.1570   -3.5150   56.4280 C.ar  124  TYR124     -0.0200
    146  CD1        5.4230   -3.1030   56.8330 C.ar  124  TYR124     -0.0009
    147  CD2        3.6680   -4.7130   56.9350 C.ar  124  TYR124     -0.0009
    148  CE1        6.1740   -3.8610   57.7120 C.ar  124  TYR124      0.0417
    149  CE2        4.4140   -5.4750   57.8140 C.ar  124  TYR124      0.0417
    150  CZ         5.6660   -5.0450   58.1990 C.ar  124  TYR124      0.1957
    151  OH         6.4110   -5.8020   59.0720 O.3   124  TYR124     -0.2866
    152  N          1.8950    0.0420   54.5390 N.am  125  PHE125     -0.1976
    153  CA         1.0840    0.7410   53.5590 C.3   125  PHE125      0.1639
    154  C          1.7090    2.0940   53.2390 C.2   125  PHE125      0.2290
    155  O          1.9290    2.4300   52.0740 O.2   125  PHE125     -0.2864
    156  CB        -0.3430    0.9160   54.0780 C.3   125  PHE125      0.0560
    157  CG        -1.1940   -0.3160   53.9580 C.ar  125  PHE125     -0.0200
    158  CD1       -1.2840   -1.0000   52.7560 C.ar  125  PHE125     -0.0042
    159  CD2       -1.9100   -0.7860   55.0480 C.ar  125  PHE125     -0.0042
    160  CE1       -2.0730   -2.1290   52.6440 C.ar  125  PHE125     -0.0003
    161  CE2       -2.7010   -1.9150   54.9410 C.ar  125  PHE125     -0.0003
    162  CZ        -2.7820   -2.5870   53.7370 C.ar  125  PHE125     -0.0000
    163  N          4.4950    2.8340   53.2840 N.3   127  LYS127     -0.1231
    164  CA         5.7290    2.5740   52.5560 C.3   127  LYS127      0.1693
    165  C          5.4730    2.3600   51.0640 C.2   127  LYS127      0.2591
    166  O          6.2880    2.7570   50.2320 O.2   127  LYS127     -0.2718
    167  CB         6.4370    1.3500   53.1390 C.3   127  LYS127      0.0285
    168  CG         7.3020    1.6660   54.3490 C.3   127  LYS127      0.0035
    169  CD         7.9000    0.4050   54.9500 C.3   127  LYS127      0.0206
    170  CE         8.8850    0.7290   56.0610 C.3   127  LYS127      0.1093
    171  NZ        10.2230    1.1060   55.5270 N.3   127  LYS127     -0.1314
    172  N          4.3510    1.7250   50.7220 N.am  128  GLN128     -0.1979
    173  CA         4.0380    1.4700   49.3210 C.3   128  GLN128      0.1601
    174  C          3.3480    2.6660   48.6630 C.2   128  GLN128      0.2287
    175  O          3.0590    2.6400   47.4670 O.2   128  GLN128     -0.2864
    176  CB         3.1640    0.2250   49.1960 C.3   128  GLN128      0.0394
    177  CG         3.8040   -1.0240   49.7810 C.3   128  GLN128      0.0908
    178  CD         5.1740   -1.3040   49.1970 C.2   128  GLN128      0.2608
    179  OE1        5.4260   -1.0440   48.0200 O.2   128  GLN128     -0.2717
    180  NE2        6.0710   -1.8390   50.0190 N.am  128  GLN128     -0.0878
@<TRIPOS>BOND
     1   109   107   ar
     2   109   111   ar
     3   107   106   ar
     4   100    99    2
     5   112   111    1
     6   120   119    2
     7   111   110   ar
     8   104   103    2
     9   119   118    1
    10   106   105    1
    11   106   108   ar
    12   102   105    1
    13   102   103    1
    14   102   101    1
    15    99   101   am
    16    99    98    1
    17   103   113   am
    18   110   108   ar
    19   123   121    1
    20   116   115    2
    21   118   121    1
    22   118   117    1
    23   121   122    1
    24    98    97    1
    25   115   117   am
    26   115   114    1
    27   113   114    1
    28   175   174    2
    29   179   178    2
    30    54    53    1
    31   174   173    1
    32   176   173    1
    33   176   177    1
    34   178   177    1
    35   178   180   am
    36   173   172    1
    37    67    65    1
    38    53    52    1
    39    53    55    1
    40    52    49    1
    41   166   165    2
    42    40    39    2
    43    66    65    1
    44    49    48    1
    45    49    50    1
    46    65    62    1
    47   172   165   am
    48    93    92    2
    49    92    91    1
    50    56    50   am
    51    56    57    1
    52     8     6    1
    53   165   164    1
    54    62    61    1
    55    62    63    1
    56    19    17   ar
    57    19    18   ar
    58    59    58    2
    59    39    48   am
    60    39    38    1
    61    50    51    2
    62    61    58   am
    63    58    57    1
    64    84    83    2
    65    37    38    1
    66    17    15   ar
    67    57    60    1
    68    83    82    1
    69    83    90   am
    70    18    16   ar
    71    82    81    1
    72    82    85    1
    73   155   154    2
    74    38    41    1
    75    91    90    1
    76    91    94    1
    77    63    64    2
    78     6     5    1
    79   164   167    1
    80   164   163    1
    81   160   158   ar
    82   160   162   ar
    83   158   157   ar
    84    85    86    1
    85   143   142    2
    86    15    14   ar
    87   167   168    1
    88   154   153    1
    89     7     5    1
    90    16    14   ar
    91     5     2    1
    92    94    96    1
    93    94    95    1
    94    86    87    1
    95    41    42    1
    96   153   156    1
    97   153   152    1
    98    76    75    2
    99   162   161   ar
   100    14    13    1
   101   157   156    1
   102   157   159   ar
   103    43    42   ar
   104    43    45   ar
   105    75    74    1
   106   142   152   am
   107   142   141    1
   108   168   169    1
   109    42    44   ar
   110     2     1    1
   111     2     3    1
   112    87    89   am
   113    87    88    2
   114   161   159   ar
   115   169   170    1
   116    45    47   ar
   117    71    70    2
   118     9     3   am
   119     9    10    1
   120   141   144    1
   121   141   140    1
   122    68    69    1
   123    13    10    1
   124   144   145    1
   125   171   170    1
   126     3     4    2
   127    74    73    1
   128    74    77    1
   129    70    73   am
   130    70    69    1
   131    44    46   ar
   132    10    11    1
   133    69    72    1
   134    47    46   ar
   135    77    78    1
   136   145   146   ar
   137   145   147   ar
   138   138   137    2
   139   146   148   ar
   140   147   149   ar
   141    78    79    2
   142    78    80   am
   143   139   136    1
   144    11    12    2
   145   137   136    1
   146    28    26   am
   147   136   135    1
   148   148   150   ar
   149    35    34    1
   150   149   150   ar
   151    25    26    1
   152    25    24    1
   153   150   151    1
   154    26    27    2
   155    24    21    1
   156    36    34    1
   157    34    33    1
   158   127   126    2
   159   135   126   am
   160    20    21    1
   161   126   125    1
   162   133   131   ar
   163   133   134   ar
   164    21    22    1
   165   131   129   ar
   166    33    30    1
   167    29    22   am
   168    29    30    1
   169    22    23    2
   170   134   132   ar
   171   125   128    1
   172   125   124    1
   173   129   128    1
   174   129   130   ar
   175    30    31    1
   176   132   130   ar
   177    31    32    2
