@<TRIPOS>MOLECULE
tmp/5gg5A01.pdb
 115 113 0 0 0
SMALL
GASTEIGER

@<TRIPOS>ATOM
      1  N          1.8940   11.1570   31.2190 N.3     5  ARG5       -0.1245
      2  CA         2.1390   11.5700   29.8620 C.3     5  ARG5        0.1563
      3  C          2.5320   10.4130   28.9850 C.2     5  ARG5        0.2260
      4  O          3.3420    9.5580   29.3840 O.2     5  ARG5       -0.2867
      5  CB         3.2550   12.6210   29.8390 C.3     5  ARG5        0.0307
      6  CG         2.8100   13.8780   30.5520 C.3     5  ARG5        0.0489
      7  CD         4.0530   14.6870   30.9190 C.3     5  ARG5        0.2205
      8  NE         4.6700   15.2120   29.7030 N.pl3   5  ARG5       -0.0865
      9  CZ         5.8420   15.8760   29.6670 C.cat   5  ARG5        0.5346
     10  NH1        6.5440   16.0710   30.7830 N.pl3   5  ARG5        0.1354
     11  NH2        6.3060   16.3520   28.5230 N.pl3   5  ARG5        0.1354
     12  N         10.4170   14.0910   26.2130 N.3    45  THR45      -0.1203
     13  CA         9.2270   14.7840   25.8570 C.3    45  THR45       0.1994
     14  C          8.4390   13.8790   24.8880 C.2    45  THR45       0.2618
     15  O          8.9760   12.8870   24.4020 O.2    45  THR45      -0.2717
     16  CB         9.4210   16.1690   25.2220 C.3    45  THR45       0.1784
     17  OG1       10.1620   16.0260   24.0610 O.3    45  THR45      -0.2211
     18  CG2       10.2190   17.0800   26.2160 C.3    45  THR45       0.0376
     19  N          7.2140   14.2660   24.5930 N.am   46  GLU46      -0.1965
     20  CA         6.3100   13.4570   23.7910 C.3    46  GLU46       0.1718
     21  C          6.8360   13.0260   22.4360 C.2    46  GLU46       0.2458
     22  O          6.7310   11.8830   22.0780 O.2    46  GLU46      -0.2730
     23  CB         4.9370   14.0890   23.6300 C.3    46  GLU46       0.0428
     24  CG         3.9860   13.9500   24.8070 C.3    46  GLU46       0.1163
     25  CD         4.3130   14.8600   26.0200 C.2    46  GLU46       0.3649
     26  OE1        5.2600   15.7380   25.9440 O.co2  46  GLU46      -0.2457
     27  OE2        3.6240   14.7040   27.0750 O.co2  46  GLU46      -0.2457
     28  N          7.4710   13.9330   21.6780 N.am   47  PRO47      -0.2727
     29  CA         7.9230   13.5150   20.3470 C.3    47  PRO47       0.1402
     30  C          8.9950   12.4100   20.4540 C.2    47  PRO47       0.2269
     31  O          9.0100   11.4730   19.6180 O.2    47  PRO47      -0.2865
     32  CB         8.5010   14.7950   19.7730 C.3    47  PRO47       0.0296
     33  CG         7.5960   15.8550   20.3780 C.3    47  PRO47       0.0237
     34  CD         7.5240   15.4010   21.8260 C.3    47  PRO47       0.0939
     35  N          1.1060   16.5710   13.9690 N.3    67  ARG67      -0.1245
     36  CA         0.4800   16.0580   15.1710 C.3    67  ARG67       0.1563
     37  C         -0.9830   15.7060   14.8060 C.2    67  ARG67       0.2260
     38  O         -1.6150   16.3770   14.0020 O.2    67  ARG67      -0.2867
     39  CB         0.6200   16.9970   16.3240 C.3    67  ARG67       0.0307
     40  CG         0.3520   16.4300   17.7280 C.3    67  ARG67       0.0489
     41  CD         0.5650   17.4760   18.7690 C.3    67  ARG67       0.2205
     42  NE        -0.2870   18.6530   18.5700 N.pl3  67  ARG67      -0.0865
     43  CZ        -0.1190   19.8140   19.1980 C.cat  67  ARG67       0.5346
     44  NH1        0.8640   19.9650   20.1050 N.pl3  67  ARG67       0.1354
     45  NH2       -0.8840   20.8330   18.9080 N.pl3  67  ARG67       0.1354
     46  N         -0.5530   12.0080   23.2790 N.3    83  TRP83      -0.1241
     47  CA        -0.4430   12.7730   22.0240 C.3    83  TRP83       0.1605
     48  C          0.0280   11.8960   20.8950 C.2    83  TRP83       0.2264
     49  O          0.9680   11.1110   21.0510 O.2    83  TRP83      -0.2867
     50  CB         0.5550   13.9290   22.2340 C.3    83  TRP83       0.0550
     51  CG        -0.0390   15.1090   22.9400 C.ar   83  TRP83       0.0003
     52  CD1        0.1670   15.4890   24.2580 C.ar   83  TRP83       0.0946
     53  CD2       -0.8950   16.0720   22.3780 C.ar   83  TRP83       0.0152
     54  NE1       -0.5890   16.6040   24.5460 N.ar   83  TRP83      -0.2442
     55  CE2       -1.2230   16.9940   23.3870 C.ar   83  TRP83       0.0810
     56  CE3       -1.5470   16.1720   21.1460 C.ar   83  TRP83       0.0012
     57  CZ2       -2.1090   18.0920   23.1350 C.ar   83  TRP83       0.0191
     58  CZ3       -2.3720   17.2500   20.8940 C.ar   83  TRP83       0.0001
     59  CH2       -2.6680   18.1810   21.8810 C.ar   83  TRP83       0.0015
     60  N          1.2500   11.4300   16.6300 N.3    85  TRP85      -0.1241
     61  CA         1.8540   12.0280   15.4540 C.3    85  TRP85       0.1605
     62  C          1.7940   11.0700   14.2700 C.2    85  TRP85       0.2264
     63  O          1.8440    9.8450   14.4550 O.2    85  TRP85      -0.2867
     64  CB         3.3610   12.2400   15.7350 C.3    85  TRP85       0.0550
     65  CG         3.5720   13.5330   16.4330 C.ar   85  TRP85       0.0003
     66  CD1        3.7940   14.7670   15.8330 C.ar   85  TRP85       0.0946
     67  CD2        3.5820   13.7580   17.8360 C.ar   85  TRP85       0.0152
     68  NE1        3.9440   15.7440   16.8150 N.ar   85  TRP85      -0.2442
     69  CE2        3.7990   15.1530   18.0440 C.ar   85  TRP85       0.0810
     70  CE3        3.4280   12.9350   18.9310 C.ar   85  TRP85       0.0012
     71  CZ2        3.8480   15.7110   19.3120 C.ar   85  TRP85       0.0191
     72  CZ3        3.4720   13.5170   20.2230 C.ar   85  TRP85       0.0001
     73  CH2        3.7180   14.8710   20.3850 C.ar   85  TRP85       0.0015
     74  N         14.1850   16.3290   21.0090 N.3   174  GLN174     -0.1245
     75  CA        12.8590   16.7060   20.5800 C.3   174  GLN174      0.1566
     76  C         12.8270   17.1300   19.1100 C.2   174  GLN174      0.2260
     77  O         11.9930   16.6860   18.3010 O.2   174  GLN174     -0.2867
     78  CB        12.2660   17.7920   21.4520 C.3   174  GLN174      0.0367
     79  CG        10.8490   18.1370   21.0600 C.3   174  GLN174      0.0905
     80  CD        10.2990   19.1680   22.0130 C.2   174  GLN174      0.2608
     81  OE1        9.9880   18.8680   23.1590 O.2   174  GLN174     -0.2717
     82  NE2       10.3040   20.4280   21.5960 N.am  174  GLN174     -0.0878
     83  N         -3.3240   23.5430   19.7200 N.3   264  THR264     -0.1218
     84  CA        -2.8690   24.1610   20.9660 C.3   264  THR264      0.1862
     85  C         -2.1880   25.4610   20.5620 C.2   264  THR264      0.2287
     86  O         -1.8560   25.6850   19.3910 O.2   264  THR264     -0.2866
     87  CB        -1.8800   23.3200   21.6840 C.3   264  THR264      0.1770
     88  OG1       -0.7420   23.0280   20.8470 O.3   264  THR264     -0.2211
     89  CG2       -2.6010   22.0540   22.2500 C.3   264  THR264      0.0375
     90  N          1.8120   23.3910   18.4220 N.3   287  TYR287     -0.1227
     91  CA         2.5530   24.0590   19.4470 C.3   287  TYR287      0.1736
     92  C          2.9490   23.0370   20.5080 C.2   287  TYR287      0.2595
     93  O          2.0820   22.3650   21.1390 O.2   287  TYR287     -0.2718
     94  CB         1.7130   25.1430   20.0790 C.3   287  TYR287      0.0548
     95  CG         2.3310   25.7050   21.3490 C.ar  287  TYR287     -0.0200
     96  CD1        3.3350   26.6600   21.2710 C.ar  287  TYR287     -0.0009
     97  CD2        1.9060   25.3230   22.6030 C.ar  287  TYR287     -0.0009
     98  CE1        3.9060   27.1910   22.4260 C.ar  287  TYR287      0.0417
     99  CE2        2.4880   25.8400   23.7780 C.ar  287  TYR287      0.0417
    100  CZ         3.4940   26.7680   23.6760 C.ar  287  TYR287      0.1957
    101  OH         4.0600   27.3180   24.8230 O.3   287  TYR287     -0.2866
    102  N          4.2350   22.9670   20.7670 N.am  288  LEU288     -0.1966
    103  CA         4.7800   22.0770   21.8010 C.3   288  LEU288      0.1728
    104  C          5.2730   22.8980   22.9750 C.2   288  LEU288      0.2616
    105  O          6.0400   23.8140   22.8020 O.2   288  LEU288     -0.2715
    106  CB         5.9490   21.2520   21.3030 C.3   288  LEU288      0.0311
    107  CG         5.7990   20.5630   19.9560 C.3   288  LEU288      0.0022
    108  CD1        7.0250   19.7390   19.6020 C.3   288  LEU288      0.0001
    109  CD2        4.5920   19.6640   19.9240 C.3   288  LEU288      0.0001
    110  N          4.9090   22.4650   24.1670 N.am  289  SER289     -0.1950
    111  CA         5.3960   23.1010   25.3430 C.3   289  SER289      0.1924
    112  C          6.9160   23.0990   25.4740 C.2   289  SER289      0.2314
    113  O          7.6060   22.2230   24.9150 O.2   289  SER289     -0.2863
    114  CB         4.7530   22.4630   26.5540 C.3   289  SER289      0.2116
    115  OG         3.3830   22.8160   26.5850 O.3   289  SER289     -0.2180
@<TRIPOS>BOND
     1    35    36    1
     2    38    37    2
     3    62    63    2
     4    62    61    1
     5    37    36    1
     6    36    39    1
     7    61    64    1
     8    61    60    1
     9    64    65    1
    10    66    65   ar
    11    66    68   ar
    12    39    40    1
    13    65    67   ar
    14    68    69   ar
    15    40    41    1
    16    67    69   ar
    17    67    70   ar
    18    69    71   ar
    19    77    76    2
    20    90    91    1
    21    42    41    1
    22    42    43    2
    23    45    43    1
    24    70    72   ar
    25    76    75    1
    26    43    44    1
    27    71    73   ar
    28    86    85    2
    29    91    94    1
    30    91    92    1
    31   108   107    1
    32    31    30    2
    33    83    84    1
    34    32    29    1
    35    32    33    1
    36   109   107    1
    37   107   106    1
    38    94    95    1
    39    72    73   ar
    40    29    30    1
    41    29    28    1
    42    33    34    1
    43    92   102   am
    44    92    93    2
    45    85    84    1
    46    75    74    1
    47    75    78    1
    48   102   103    1
    49    88    87    1
    50    58    56   ar
    51    58    59   ar
    52    48    49    2
    53    48    47    1
    54    84    87    1
    55    79    78    1
    56    79    80    1
    57    56    53   ar
    58    96    95   ar
    59    96    98   ar
    60   106   103    1
    61    95    97   ar
    62    82    80   am
    63    28    34    1
    64    28    21   am
    65    87    89    1
    66   103   104    1
    67    59    57   ar
    68    80    81    2
    69    47    50    1
    70    47    46    1
    71    22    21    2
    72    50    51    1
    73    53    51   ar
    74    53    55   ar
    75    98   100   ar
    76    21    20    1
    77    97    99   ar
    78   105   104    2
    79    51    52   ar
    80   104   110   am
    81    57    55   ar
    82    55    54   ar
    83    23    20    1
    84    23    24    1
    85   100    99   ar
    86   100   101    1
    87    20    19    1
    88    17    16    1
    89   110   111    1
    90    52    54   ar
    91    15    14    2
    92    19    14   am
    93    24    25    1
    94    14    13    1
    95   113   112    2
    96    16    13    1
    97    16    18    1
    98   111   112    1
    99   111   114    1
   100    13    12    1
   101    26    25   ar
   102    25    27   ar
   103   114   115    1
   104    11     9    1
   105     3     4    2
   106     3     2    1
   107     9     8    2
   108     9    10    1
   109     8     7    1
   110     5     2    1
   111     5     6    1
   112     2     1    1
   113     6     7    1
