@<TRIPOS>MOLECULE
tmp/5gg6B00.pdb
 202 196 0 0 0
SMALL
GASTEIGER

@<TRIPOS>ATOM
      1  N         -5.7470   45.1270   39.2400 N.3    28  ARG28      -0.1245
      2  CA        -6.3710   44.0780   40.0500 C.3    28  ARG28       0.1563
      3  C         -6.1180   44.4160   41.5150 C.2    28  ARG28       0.2260
      4  O         -4.9650   44.5940   41.8920 O.2    28  ARG28      -0.2867
      5  CB        -5.7540   42.7180   39.7340 C.3    28  ARG28       0.0307
      6  CG        -5.8920   42.4100   38.2260 C.3    28  ARG28       0.0489
      7  CD        -5.4060   41.0080   37.9660 C.3    28  ARG28       0.2205
      8  NE        -3.9660   40.8620   38.1810 N.pl3  28  ARG28      -0.0865
      9  CZ        -3.3370   39.6950   38.1780 C.cat  28  ARG28       0.5346
     10  NH1       -2.0350   39.6660   38.3990 N.pl3  28  ARG28       0.1354
     11  NH2       -4.0060   38.5650   37.9650 N.pl3  28  ARG28       0.1354
     12  N         -6.5050   42.4970   44.1320 N.3    30  ARG30      -0.1231
     13  CA        -5.9360   41.3740   44.9040 C.3    30  ARG30       0.1694
     14  C         -4.4600   41.5600   45.1860 C.2    30  ARG30       0.2592
     15  O         -3.9760   41.2740   46.2980 O.2    30  ARG30      -0.2718
     16  CB        -6.1550   40.0420   44.1930 C.3    30  ARG30       0.0321
     17  CG        -5.4090   38.8770   44.8350 C.3    30  ARG30       0.0489
     18  CD        -5.9050   37.5690   44.2850 C.3    30  ARG30       0.2205
     19  NE        -5.2180   36.4540   44.9320 N.pl3  30  ARG30      -0.0865
     20  CZ        -5.0620   35.2460   44.3860 C.cat  30  ARG30       0.5346
     21  NH1       -4.4230   34.2920   45.0480 N.pl3  30  ARG30       0.1354
     22  NH2       -5.5230   34.9840   43.1690 N.pl3  30  ARG30       0.1354
     23  N         -3.7220   42.0020   44.1710 N.am   31  TYR31      -0.1976
     24  CA        -2.3100   42.2190   44.3130 C.3    31  TYR31       0.1639
     25  C         -1.9630   43.6810   44.2050 C.2    31  TYR31       0.2290
     26  O         -0.7780   44.0090   44.2480 O.2    31  TYR31      -0.2864
     27  CB        -1.5120   41.4730   43.2160 C.3    31  TYR31       0.0560
     28  CG        -1.8360   40.0340   43.0090 C.ar   31  TYR31      -0.0198
     29  CD1       -1.4720   39.0690   43.9450 C.ar   31  TYR31      -0.0009
     30  CD2       -2.4940   39.6230   41.8780 C.ar   31  TYR31      -0.0009
     31  CE1       -1.7660   37.7340   43.7360 C.ar   31  TYR31       0.0417
     32  CE2       -2.7860   38.2890   41.6680 C.ar   31  TYR31       0.0417
     33  CZ        -2.4050   37.3460   42.5760 C.ar   31  TYR31       0.1957
     34  OH        -2.6650   35.9830   42.3720 O.3    31  TYR31      -0.2866
     35  N         -1.9900   45.4590   41.4510 N.3    33  ASP33      -0.1239
     36  CA        -0.9930   45.4670   40.3640 C.3    33  ASP33       0.1674
     37  C         -1.5990   45.9370   39.0940 C.2    33  ASP33       0.2266
     38  O         -2.8140   45.9900   38.9690 O.2    33  ASP33      -0.2867
     39  CB        -0.2690   44.1100   40.2340 C.3    33  ASP33       0.1410
     40  CG        -1.1940   42.9560   39.8140 C.2    33  ASP33       0.3668
     41  OD1       -2.3770   43.2440   39.5040 O.co2  33  ASP33      -0.2456
     42  OD2       -0.6810   41.8180   39.7000 O.co2  33  ASP33      -0.2456
     43  N         -1.2590   45.0100   34.9100 N.3    35  SER35      -0.1202
     44  CA        -0.7620   43.8700   34.1510 C.3    35  SER35       0.2020
     45  C         -1.5750   43.7590   32.8360 C.2    35  SER35       0.2618
     46  O         -2.2480   44.7060   32.4440 O.2    35  SER35      -0.2717
     47  CB        -0.8310   42.5990   34.9670 C.3    35  SER35       0.2103
     48  OG        -2.1380   42.2580   35.2460 O.3    35  SER35      -0.2182
     49  N         -1.5130   42.6090   32.1860 N.am   36  LEU36      -0.1979
     50  CA        -2.1500   42.4360   30.8890 C.3    36  LEU36       0.1596
     51  C         -3.2620   41.4280   31.0930 C.2    36  LEU36       0.2287
     52  O         -3.1280   40.4900   31.8820 O.2    36  LEU36      -0.2864
     53  CB        -1.1870   41.8800   29.8390 C.3    36  LEU36       0.0297
     54  CG         0.0010   42.7940   29.4610 C.3    36  LEU36       0.0022
     55  CD1        1.0530   42.0560   28.6290 C.3    36  LEU36       0.0001
     56  CD2       -0.4440   44.1240   28.8290 C.3    36  LEU36       0.0001
     57  N         -5.4320   38.3730   30.8910 N.3    38  LYS38      -0.1231
     58  CA        -5.1050   36.9690   30.6710 C.3    38  LYS38       0.1693
     59  C         -5.7850   36.1170   31.7220 C.2    38  LYS38       0.2593
     60  O         -6.2290   36.6110   32.8150 O.2    38  LYS38      -0.2718
     61  CB        -3.5760   36.7680   30.7300 C.3    38  LYS38       0.0285
     62  CG        -2.9730   37.0100   32.1390 C.3    38  LYS38       0.0035
     63  CD        -2.5050   35.7830   32.8640 C.3    38  LYS38       0.0206
     64  CE        -1.9200   36.2050   34.2160 C.3    38  LYS38       0.1093
     65  NZ        -2.8900   36.9600   35.0610 N.3    38  LYS38      -0.1314
     66  N         -5.8110   34.8290   31.4120 N.am   39  GLY39      -0.1942
     67  CA        -6.3650   33.8540   32.3570 C.3    39  GLY39       0.2014
     68  C         -6.1080   32.4120   31.9970 C.2    39  GLY39       0.2638
     69  O         -5.5490   32.0650   30.9720 O.2    39  GLY39      -0.2714
     70  N         -6.4240   31.5850   32.9510 N.am   40  LYS40      -0.1977
     71  CA        -6.2010   30.1570   32.8940 C.3    40  LYS40       0.1596
     72  C         -7.0540   29.4780   31.8850 C.2    40  LYS40       0.2287
     73  O         -8.2350   29.7550   31.7650 O.2    40  LYS40      -0.2864
     74  CB        -6.4890   29.5760   34.2800 C.3    40  LYS40       0.0298
     75  CG        -5.4410   29.9900   35.2470 C.3    40  LYS40       0.0038
     76  CD        -5.6140   29.2280   36.5600 C.3    40  LYS40       0.0206
     77  CE        -6.1610   30.0900   37.6550 C.3    40  LYS40       0.1093
     78  NZ        -5.3030   31.2300   37.9970 N.3    40  LYS40      -0.1314
     79  N        -10.6380   35.4490   27.9520 N.3    54  GLU54      -0.1245
     80  CA       -10.2070   36.2160   29.1300 C.3    54  GLU54       0.1567
     81  C        -10.0090   37.7050   28.8300 C.2    54  GLU54       0.2260
     82  O        -10.3350   38.5550   29.6560 O.2    54  GLU54      -0.2867
     83  CB        -8.9870   35.5680   29.7600 C.3    54  GLU54       0.0388
     84  CG        -9.3180   34.2310   30.3860 C.3    54  GLU54       0.1160
     85  CD       -10.1250   34.3910   31.7020 C.2    54  GLU54       0.3649
     86  OE1      -11.1210   35.1820   31.7690 O.co2  54  GLU54      -0.2457
     87  OE2       -9.8100   33.6890   32.6720 O.co2  54  GLU54      -0.2457
     88  N        -12.1280   40.3850   31.0960 N.3    58  GLU58      -0.1245
     89  CA       -11.4510   41.4020   31.8920 C.3    58  GLU58       0.1567
     90  C        -11.5540   42.8320   31.3640 C.2    58  GLU58       0.2260
     91  O        -11.5230   43.8200   32.1220 O.2    58  GLU58      -0.2867
     92  CB        -9.9870   40.9520   32.0780 C.3    58  GLU58       0.0388
     93  CG        -9.9210   39.7300   32.9670 C.3    58  GLU58       0.1160
     94  CD        -8.5260   39.2280   33.2760 C.2    58  GLU58       0.3649
     95  OE1       -7.5160   39.8820   32.8700 O.co2  58  GLU58      -0.2457
     96  OE2       -8.4050   38.1860   33.9870 O.co2  58  GLU58      -0.2457
     97  N          5.6910   33.1930   28.2020 N.3    72  VAL72      -0.1245
     98  CA         6.4240   33.6350   29.3830 C.3    72  VAL72       0.1561
     99  C          6.2000   32.6450   30.4670 C.2    72  VAL72       0.2260
    100  O          5.1510   31.9790   30.5270 O.2    72  VAL72      -0.2867
    101  CB         6.0350   35.0690   29.8220 C.3    72  VAL72       0.0252
    102  CG1        6.3760   36.0350   28.6560 C.3    72  VAL72       0.0019
    103  CG2        4.6100   35.1230   30.2770 C.3    72  VAL72       0.0019
    104  N          6.8850   31.9530   34.7230 N.3    74  TYR74      -0.1228
    105  CA         7.3750   32.4860   35.9620 C.3    74  TYR74       0.1721
    106  C          6.8150   31.7890   37.1500 C.2    74  TYR74       0.2437
    107  O          5.7640   31.1870   37.0970 O.2    74  TYR74      -0.2733
    108  CB         7.0700   33.9700   36.0490 C.3    74  TYR74       0.0547
    109  CG         5.5820   34.3430   35.8410 C.ar   74  TYR74      -0.0200
    110  CD1        5.1000   34.6400   34.5830 C.ar   74  TYR74      -0.0009
    111  CD2        4.7170   34.4780   36.9010 C.ar   74  TYR74      -0.0009
    112  CE1        3.7730   35.0050   34.4110 C.ar   74  TYR74       0.0417
    113  CE2        3.3760   34.8230   36.7030 C.ar   74  TYR74       0.0417
    114  CZ         2.9400   35.0940   35.4370 C.ar   74  TYR74       0.1957
    115  OH         1.6390   35.5250   35.1730 O.3    74  TYR74      -0.2866
    116  N          7.5550   31.8290   38.2710 N.am   75  PRO75      -0.2718
    117  CA         7.1130   31.0820   39.4490 C.3    75  PRO75       0.1535
    118  C          5.9440   31.7220   40.1030 C.2    75  PRO75       0.2598
    119  O          5.8080   32.9680   40.0860 O.2    75  PRO75      -0.2715
    120  CB         8.3140   31.1650   40.4020 C.3    75  PRO75       0.0310
    121  CG         9.4570   31.5030   39.5300 C.3    75  PRO75       0.0237
    122  CD         8.9120   32.3900   38.4300 C.3    75  PRO75       0.0939
    123  N          5.0790   30.8550   40.6290 N.am   76  ILE76      -0.1964
    124  CA         3.9290   31.2810   41.4490 C.3    76  ILE76       0.1712
    125  C          3.9370   30.3340   42.6850 C.2    76  ILE76       0.2458
    126  O          4.6350   29.3360   42.7000 O.2    76  ILE76      -0.2730
    127  CB         2.6010   31.1850   40.6610 C.3    76  ILE76       0.0289
    128  CG1        2.5280   29.8240   39.9930 C.3    76  ILE76       0.0022
    129  CG2        2.5500   32.3180   39.6200 C.3    76  ILE76       0.0023
    130  CD1        1.1630   29.4580   39.4580 C.3    76  ILE76       0.0001
    131  N          3.1690   30.6640   43.7290 N.am   77  PRO77      -0.2727
    132  CA         3.0720   29.8050   44.9430 C.3    77  PRO77       0.1402
    133  C          2.8080   28.3150   44.6600 C.2    77  PRO77       0.2269
    134  O          3.4780   27.4320   45.2130 O.2    77  PRO77      -0.2865
    135  CB         1.8690   30.4020   45.6650 C.3    77  PRO77       0.0296
    136  CG         1.9350   31.8440   45.3380 C.3    77  PRO77       0.0237
    137  CD         2.4240   31.9170   43.8880 C.3    77  PRO77       0.0939
    138  N          3.8960   29.2850   36.3400 N.3    81  LYS81      -0.1245
    139  CA         2.8340   29.8700   35.4740 C.3    81  LYS81       0.1561
    140  C          3.3950   29.9440   34.0520 C.2    81  LYS81       0.2260
    141  O          4.4680   30.4690   33.8300 O.2    81  LYS81      -0.2867
    142  CB         2.4710   31.2030   36.0020 C.3    81  LYS81       0.0271
    143  CG         1.3190   31.8930   35.3060 C.3    81  LYS81       0.0035
    144  CD         0.0520   31.0970   35.4570 C.3    81  LYS81       0.0206
    145  CE        -1.1840   31.9450   35.4210 C.3    81  LYS81       0.1093
    146  NZ        -1.5180   32.6460   36.6680 N.3    81  LYS81      -0.1314
    147  N          0.9310   34.7080   24.9140 N.3    85  TYR85      -0.1241
    148  CA         0.3440   36.0290   24.6390 C.3    85  TYR85       0.1605
    149  C          0.2290   36.2700   23.1490 C.2    85  TYR85       0.2264
    150  O          1.0990   35.8760   22.4070 O.2    85  TYR85      -0.2867
    151  CB         1.2210   37.1530   25.2700 C.3    85  TYR85       0.0534
    152  CG         0.9390   37.3830   26.7460 C.ar   85  TYR85      -0.0201
    153  CD1       -0.1370   38.1600   27.1440 C.ar   85  TYR85      -0.0009
    154  CD2        1.7120   36.8070   27.7520 C.ar   85  TYR85      -0.0009
    155  CE1       -0.4510   38.3420   28.4640 C.ar   85  TYR85       0.0417
    156  CE2        1.3830   37.0210   29.1040 C.ar   85  TYR85       0.0417
    157  CZ         0.3590   37.8100   29.4310 C.ar   85  TYR85       0.1957
    158  OH        -0.0220   37.9940   30.7500 O.3    85  TYR85      -0.2866
    159  N        -12.1290   40.5610   39.4510 N.3   100  GLU100     -0.1245
    160  CA       -10.6460   40.5810   39.3760 C.3   100  GLU100      0.1567
    161  C        -10.0520   41.9360   39.0570 C.2   100  GLU100      0.2260
    162  O         -9.0180   42.2970   39.6730 O.2   100  GLU100     -0.2867
    163  CB       -10.1250   39.5520   38.3710 C.3   100  GLU100      0.0388
    164  CG        -8.5760   39.3850   38.3910 C.3   100  GLU100      0.1160
    165  CD        -8.0650   38.2920   37.4250 C.2   100  GLU100      0.3649
    166  OE1       -8.8700   37.8750   36.6090 O.co2 100  GLU100     -0.2457
    167  OE2       -6.8900   37.8430   37.4340 O.co2 100  GLU100     -0.2457
    168  N          5.5860   44.0450   35.9120 N.3   118  TYR118     -0.1228
    169  CA         6.2620   42.7400   35.9030 C.3   118  TYR118      0.1721
    170  C          7.1690   42.6490   34.6800 C.2   118  TYR118      0.2437
    171  O          6.7970   43.0990   33.5770 O.2   118  TYR118     -0.2733
    172  CB         5.2360   41.6010   35.8390 C.3   118  TYR118      0.0547
    173  CG         4.3210   41.5810   37.0130 C.ar  118  TYR118     -0.0200
    174  CD1        4.8250   41.3990   38.3200 C.ar  118  TYR118     -0.0009
    175  CD2        2.9550   41.7490   36.8600 C.ar  118  TYR118     -0.0009
    176  CE1        4.0120   41.4360   39.4290 C.ar  118  TYR118      0.0417
    177  CE2        2.1290   41.7850   37.9610 C.ar  118  TYR118      0.0417
    178  CZ         2.6560   41.6120   39.2500 C.ar  118  TYR118      0.1957
    179  OH         1.8410   41.6160   40.3660 O.3   118  TYR118     -0.2866
    180  N          8.3290   42.0110   34.8290 N.am  119  PRO119     -0.2718
    181  CA         9.2280   41.8260   33.6780 C.3   119  PRO119      0.1535
    182  C          8.6390   41.0690   32.4950 C.2   119  PRO119      0.2599
    183  O          8.8830   41.4210   31.3200 O.2   119  PRO119     -0.2715
    184  CB        10.3830   40.9760   34.2470 C.3   119  PRO119      0.0310
    185  CG        10.2350   40.9910   35.7300 C.3   119  PRO119      0.0237
    186  CD         8.9230   41.6190   36.1160 C.3   119  PRO119      0.0939
    187  N          7.8550   40.0330   32.7980 N.am  120  ASP120     -0.1958
    188  CA         7.2230   39.2440   31.7300 C.3   120  ASP120      0.1840
    189  C          6.2520   40.0980   30.9070 C.2   120  ASP120      0.2622
    190  O          6.2760   40.0260   29.6890 O.2   120  ASP120     -0.2715
    191  CB         6.6600   37.9500   32.2630 C.3   120  ASP120      0.1450
    192  CG         7.8090   36.8940   32.5930 C.2   120  ASP120      0.3671
    193  OD1        8.4960   36.4110   31.6410 O.co2 120  ASP120     -0.2456
    194  OD2        8.1060   36.6570   33.7950 O.co2 120  ASP120     -0.2456
    195  N          5.4180   40.8920   31.5520 N.am  121  ASP121     -0.1971
    196  CA         4.5200   41.7430   30.8020 C.3   121  ASP121      0.1709
    197  C          5.2750   42.7320   29.9610 C.2   121  ASP121      0.2293
    198  O          4.8940   43.0360   28.8690 O.2   121  ASP121     -0.2864
    199  CB         3.5820   42.5450   31.7380 C.3   121  ASP121      0.1436
    200  CG         2.4660   41.6890   32.3740 C.2   121  ASP121      0.3671
    201  OD1        2.1410   40.5610   31.9000 O.co2 121  ASP121     -0.2456
    202  OD2        2.0350   42.1300   33.4740 O.co2 121  ASP121     -0.2456
@<TRIPOS>BOND
     1   150   149    2
     2   149   148    1
     3   148   147    1
     4   148   151    1
     5   151   152    1
     6   152   153   ar
     7   152   154   ar
     8   153   155   ar
     9   154   156   ar
    10    79    80    1
    11    97    98    1
    12   155   157   ar
    13    55    54    1
    14   102   101    1
    15    56    54    1
    16    81    80    1
    17    81    82    2
    18   198   197    2
    19   156   157   ar
    20    80    83    1
    21    98   101    1
    22    98    99    1
    23   157   158    1
    24    54    53    1
    25   190   189    2
    26    83    84    1
    27   101   103    1
    28    53    50    1
    29   197   196    1
    30    84    85    1
    31    99   100    2
    32    58    61    1
    33    58    57    1
    34    58    59    1
    35    61    62    1
    36   196   195    1
    37   196   199    1
    38    50    51    1
    39    50    49    1
    40   189   195   am
    41   189   188    1
    42    69    68    2
    43    51    52    2
    44    88    89    1
    45   183   182    2
    46    90    89    1
    47    90    91    2
    48    66    59   am
    49    66    67    1
    50   193   192   ar
    51    85    86   ar
    52    85    87   ar
    53    59    60    2
    54   188   191    1
    55   188   187    1
    56   199   200    1
    57    73    72    2
    58    72    71    1
    59    89    92    1
    60   201   200   ar
    61    68    67    1
    62    68    70   am
    63    92    93    1
    64    62    63    1
    65    49    45   am
    66   191   192    1
    67   200   202   ar
    68    46    45    2
    69   182   187   am
    70   182   181    1
    71   192   194   ar
    72    45    44    1
    73    63    64    1
    74    95    94   ar
    75    71    70    1
    76    71    74    1
    77    93    94    1
    78    94    96   ar
    79   171   170    2
    80   181   184    1
    81   181   180    1
    82   141   140    2
    83   140   139    1
    84    44    43    1
    85    44    47    1
    86    64    65    1
    87   184   185    1
    88    74    75    1
    89   112   110   ar
    90   112   114   ar
    91   110   109   ar
    92   170   180   am
    93   170   169    1
    94   104   105    1
    95   180   186    1
    96    47    48    1
    97   115   114    1
    98    75    76    1
    99   143   144    1
   100   143   142    1
   101   145   144    1
   102   145   146    1
   103   114   113   ar
   104   139   142    1
   105   139   138    1
   106   185   186    1
   107   172   169    1
   108   172   173    1
   109   109   108    1
   110   109   111   ar
   111   169   168    1
   112   105   108    1
   113   105   106    1
   114    76    77    1
   115   166   165   ar
   116   113   111   ar
   117   175   173   ar
   118   175   177   ar
   119   173   174   ar
   120   107   106    2
   121   106   116   am
   122   165   167   ar
   123   165   164    1
   124    77    78    1
   125   177   178   ar
   126    11     9    1
   127     7     8    1
   128     7     6    1
   129     9     8    2
   130     9    10    1
   131     6     5    1
   132   116   122    1
   133   116   117    1
   134   174   176   ar
   135   163   164    1
   136   163   160    1
   137   122   121    1
   138    38    37    2
   139   161   160    1
   140   161   162    2
   141    37    36    1
   142     1     2    1
   143   178   176   ar
   144   178   179    1
   145   160   159    1
   146   117   118    1
   147   117   120    1
   148   130   128    1
   149    41    40   ar
   150   121   120    1
   151   129   127    1
   152    42    40   ar
   153     5     2    1
   154    40    39    1
   155   128   127    1
   156     2     3    1
   157   119   118    2
   158   118   123   am
   159    39    36    1
   160    36    35    1
   161   123   124    1
   162   127   124    1
   163   124   125    1
   164     3     4    2
   165    32    30   ar
   166    32    33   ar
   167    30    28   ar
   168    34    33    1
   169    33    31   ar
   170   125   126    2
   171   125   131   am
   172    28    27    1
   173    28    29   ar
   174    22    20    1
   175    27    24    1
   176   131   137    1
   177   131   132    1
   178    31    29   ar
   179   137   136    1
   180    12    13    1
   181    23    24    1
   182    23    14   am
   183    16    17    1
   184    16    13    1
   185    25    26    2
   186    25    24    1
   187    18    17    1
   188    18    19    1
   189    20    19    2
   190    20    21    1
   191   133   132    1
   192   133   134    2
   193    13    14    1
   194   132   135    1
   195    14    15    2
   196   136   135    1
