@<TRIPOS>MOLECULE
tmp/5gg8A02.pdb
 114 108 0 0 0
SMALL
GASTEIGER

@<TRIPOS>ATOM
      1  N          5.6250  -11.5720   18.2560 N.3   140  ARG140     -0.1231
      2  CA         5.2810  -12.5960   19.2130 C.3   140  ARG140      0.1694
      3  C          4.1790  -12.0540   20.1530 C.2   140  ARG140      0.2592
      4  O          4.2800  -10.9240   20.6390 O.2   140  ARG140     -0.2718
      5  CB         6.4850  -13.1070   19.9960 C.3   140  ARG140      0.0321
      6  CG         6.1540  -14.3720   20.7330 C.3   140  ARG140      0.0489
      7  CD         7.2820  -14.8480   21.6240 C.3   140  ARG140      0.2205
      8  NE         6.8940  -16.0670   22.3260 N.pl3 140  ARG140     -0.0865
      9  CZ         7.5180  -16.6030   23.3560 C.cat 140  ARG140      0.5346
     10  NH1        8.6730  -16.0990   23.8130 N.pl3 140  ARG140      0.1354
     11  NH2        7.0220  -17.6970   23.9290 N.pl3 140  ARG140      0.1354
     12  N          3.1000  -12.8290   20.3000 N.am  141  HIS141     -0.1976
     13  CA         1.9780  -12.4480   21.1220 C.3   141  HIS141      0.1656
     14  C          2.4270  -12.0730   22.5530 C.2   141  HIS141      0.2291
     15  O          3.4270  -12.5560   23.0590 O.2   141  HIS141     -0.2864
     16  CB         0.9370  -13.5590   21.1820 C.3   141  HIS141      0.0771
     17  CG         1.4220  -14.8060   21.8760 C.ar  141  HIS141      0.0820
     18  ND1        1.5680  -14.8970   23.2390 N.ar  141  HIS141     -0.2267
     19  CD2        1.6890  -16.0410   21.3880 C.ar  141  HIS141      0.1154
     20  CE1        1.9410  -16.1220   23.5580 C.ar  141  HIS141      0.1986
     21  NE2        2.0290  -16.8240   22.4400 N.ar  141  HIS141     -0.2212
     22  N          0.5590  -14.3520   28.3520 N.3   144  ALA144     -0.1231
     23  CA        -0.7070  -15.0470   28.4290 C.3   144  ALA144      0.1694
     24  C         -0.6490  -16.1820   29.4630 C.2   144  ALA144      0.2593
     25  O         -1.1410  -17.2790   29.2190 O.2   144  ALA144     -0.2718
     26  CB        -1.0650  -15.5670   27.0570 C.3   144  ALA144      0.0304
     27  N         -0.0480  -15.9010   30.6160 N.am  145  GLY145     -0.1942
     28  CA         0.0940  -16.8920   31.6580 C.3   145  GLY145      0.2014
     29  C          0.9740  -18.0340   31.2010 C.2   145  GLY145      0.2639
     30  O          1.8360  -17.8790   30.3340 O.2   145  GLY145     -0.2714
     31  N          0.7230  -19.1990   31.7640 N.am  146  ARG146     -0.1963
     32  CA         1.6420  -20.3160   31.6740 C.3   146  ARG146      0.1729
     33  C          0.9150  -21.4350   30.9480 C.2   146  ARG146      0.2616
     34  O         -0.2820  -21.5720   31.0930 O.2   146  ARG146     -0.2715
     35  CB         2.0120  -20.7330   33.1080 C.3   146  ARG146      0.0348
     36  CG         3.4560  -21.1590   33.3120 C.3   146  ARG146      0.0492
     37  CD         3.8980  -20.7710   34.7070 C.3   146  ARG146      0.2205
     38  NE         4.6410  -21.8470   35.3580 N.pl3 146  ARG146     -0.0865
     39  CZ         5.9670  -21.8980   35.5030 C.cat 146  ARG146      0.5346
     40  NH1        6.7440  -20.9210   35.0480 N.pl3 146  ARG146      0.1354
     41  NH2        6.5170  -22.9390   36.1290 N.pl3 146  ARG146      0.1354
     42  N          1.6030  -22.2050   30.1320 N.am  147  ARG147     -0.1977
     43  CA         0.9770  -23.3800   29.5460 C.3   147  ARG147      0.1597
     44  C          0.3680  -24.2940   30.5460 C.2   147  ARG147      0.2287
     45  O          0.8770  -24.4380   31.6510 O.2   147  ARG147     -0.2864
     46  CB         1.9450  -24.1840   28.7370 C.3   147  ARG147      0.0334
     47  CG         2.4070  -23.4090   27.5670 C.3   147  ARG147      0.0492
     48  CD         2.5050  -24.2660   26.3610 C.3   147  ARG147      0.2205
     49  NE         2.7850  -23.4360   25.2240 N.pl3 147  ARG147     -0.0865
     50  CZ         3.0980  -23.9140   24.0300 C.cat 147  ARG147      0.5346
     51  NH1        3.1770  -25.2310   23.8260 N.pl3 147  ARG147      0.1354
     52  NH2        3.3460  -23.0840   23.0440 N.pl3 147  ARG147      0.1354
     53  N         -6.2810  -19.9220   25.3720 N.3   157  ARG157     -0.1245
     54  CA        -5.7020  -19.2950   26.5120 C.3   157  ARG157      0.1563
     55  C         -5.5280  -17.8090   26.1440 C.2   157  ARG157      0.2260
     56  O         -4.9350  -17.4590   25.0830 O.2   157  ARG157     -0.2867
     57  CB        -4.3790  -19.9480   26.9050 C.3   157  ARG157      0.0307
     58  CG        -3.6320  -19.2700   28.0580 C.3   157  ARG157      0.0489
     59  CD        -2.6570  -20.1930   28.7350 C.3   157  ARG157      0.2205
     60  NE        -1.8670  -20.9740   27.8050 N.pl3 157  ARG157     -0.0865
     61  CZ        -0.8180  -20.5340   27.1390 C.cat 157  ARG157      0.5346
     62  NH1       -0.4030  -19.2710   27.2390 N.pl3 157  ARG157      0.1354
     63  NH2       -0.1940  -21.3850   26.3520 N.pl3 157  ARG157      0.1354
     64  N         -4.6680  -15.8500   21.8910 N.3   189  ARG189     -0.1245
     65  CA        -3.6530  -14.9170   22.3500 C.3   189  ARG189      0.1563
     66  C         -2.9360  -14.1400   21.2470 C.2   189  ARG189      0.2260
     67  O         -2.5260  -12.9640   21.5140 O.2   189  ARG189     -0.2867
     68  CB        -2.6760  -15.6070   23.2830 C.3   189  ARG189      0.0307
     69  CG        -1.7880  -16.7090   22.6950 C.3   189  ARG189      0.0489
     70  CD        -1.2880  -17.5390   23.8390 C.3   189  ARG189      0.2205
     71  NE        -0.4150  -18.6770   23.5470 N.pl3 189  ARG189     -0.0865
     72  CZ        -0.8320  -19.9120   23.2960 C.cat 189  ARG189      0.5346
     73  NH1       -2.1400  -20.1930   23.1800 N.pl3 189  ARG189      0.1354
     74  NH2        0.0520  -20.8740   23.1390 N.pl3 189  ARG189      0.1354
     75  N          2.2450  -23.0440   16.1040 N.3   213  GLU213     -0.1245
     76  CA         3.4030  -23.7890   16.4550 C.3   213  GLU213      0.1567
     77  C          3.1830  -25.2730   15.9840 C.2   213  GLU213      0.2260
     78  O          4.0860  -25.8910   15.4350 O.2   213  GLU213     -0.2867
     79  CB         3.5870  -23.7150   17.9570 C.3   213  GLU213      0.0388
     80  CG         4.1040  -24.9880   18.6080 C.3   213  GLU213      0.1160
     81  CD         4.1130  -24.8940   20.1260 C.2   213  GLU213      0.3649
     82  OE1        4.6600  -23.9080   20.6650 O.co2 213  GLU213     -0.2457
     83  OE2        3.5490  -25.7960   20.7950 O.co2 213  GLU213     -0.2457
     84  N          3.7840  -17.2390   17.4250 N.3   242  GLN242     -0.1231
     85  CA         4.2290  -17.8260   18.6620 C.3   242  GLN242      0.1698
     86  C          5.7380  -18.0540   18.6760 C.2   242  GLN242      0.2593
     87  O          6.4380  -18.0840   17.6120 O.2   242  GLN242     -0.2718
     88  CB         3.5380  -19.1840   18.8420 C.3   242  GLN242      0.0381
     89  CG         2.0070  -19.0770   18.8140 C.3   242  GLN242      0.0905
     90  CD         1.3430  -20.4680   18.8980 C.2   242  GLN242      0.2608
     91  OE1        1.0190  -21.0370   17.8890 O.2   242  GLN242     -0.2717
     92  NE2        1.1050  -20.9650   20.1000 N.am  242  GLN242     -0.0878
     93  N          6.2250  -18.3280   19.8780 N.am  243  GLY243     -0.1942
     94  CA         7.6760  -18.3950   20.1230 C.3   243  GLY243      0.2014
     95  C          8.4500  -19.4930   19.4220 C.2   243  GLY243      0.2638
     96  O          9.6530  -19.3200   19.2090 O.2   243  GLY243     -0.2714
     97  N          7.7990  -20.6210   19.0650 N.am  244  LYS244     -0.1977
     98  CA         8.5500  -21.6960   18.4150 C.3   244  LYS244      0.1596
     99  C          8.5850  -21.4480   16.9340 C.2   244  LYS244      0.2287
    100  O          9.3680  -22.0550   16.2300 O.2   244  LYS244     -0.2864
    101  CB         7.9940  -23.1000   18.6840 C.3   244  LYS244      0.0298
    102  CG         8.1360  -23.5760   20.0960 C.3   244  LYS244      0.0038
    103  CD         7.8460  -25.0780   20.1940 C.3   244  LYS244      0.0206
    104  CE         8.0010  -25.5960   21.6250 C.3   244  LYS244      0.1093
    105  NZ         6.8890  -25.1520   22.5190 N.3   244  LYS244     -0.1314
    106  N          7.9230  -12.2830   24.4130 N.3   268  LYS268     -0.1245
    107  CA         6.4870  -12.1130   24.2240 C.3   268  LYS268      0.1561
    108  C          6.2640  -10.6190   24.1640 C.2   268  LYS268      0.2260
    109  O          6.7570   -9.9080   25.0260 O.2   268  LYS268     -0.2867
    110  CB         5.7450  -12.6910   25.4270 C.3   268  LYS268      0.0271
    111  CG         5.6640  -14.2470   25.3940 C.3   268  LYS268      0.0035
    112  CD         5.1140  -14.8140   26.7270 C.3   268  LYS268      0.0206
    113  CE         5.1930  -16.3540   26.6180 C.3   268  LYS268      0.1093
    114  NZ         4.9120  -17.1080   27.8790 N.3   268  LYS268     -0.1314
@<TRIPOS>BOND
     1    78    77    2
     2    77    76    1
     3    75    76    1
     4   100    99    2
     5    76    79    1
     6    99    98    1
     7    84    85    1
     8    87    86    2
     9    91    90    2
    10    79    80    1
    11     1     2    1
    12    98   101    1
    13    98    97    1
    14    80    81    1
    15    85    86    1
    16    85    88    1
    17    86    93   am
    18   101   102    1
    19    89    88    1
    20    89    90    1
    21    90    92   am
    22    97    95   am
    23    96    95    2
    24     2     5    1
    25     2     3    1
    26    95    94    1
    27    93    94    1
    28     5     6    1
    29   102   103    1
    30    81    82   ar
    31    81    83   ar
    32     3    12   am
    33     3     4    2
    34   103   104    1
    35    12    13    1
    36     6     7    1
    37    13    16    1
    38    13    14    1
    39    16    17    1
    40    66    67    2
    41    66    65    1
    42    19    17   ar
    43    19    21   ar
    44     7     8    1
    45   104   105    1
    46    17    18   ar
    47    64    65    1
    48     8     9    2
    49    65    68    1
    50    21    20   ar
    51    14    15    2
    52    69    68    1
    53    69    70    1
    54    52    50    1
    55    74    72    1
    56    73    72    1
    57    18    20   ar
    58    72    71    2
    59     9    10    1
    60     9    11    1
    61    71    70    1
    62    51    50    1
    63    50    49    2
    64   108   107    1
    65   108   109    2
    66   107   106    1
    67   107   110    1
    68    56    55    2
    69    49    48    1
    70    53    54    1
    71   111   110    1
    72   111   112    1
    73    55    54    1
    74    63    61    1
    75    48    47    1
    76    54    57    1
    77   113   112    1
    78   113   114    1
    79    57    58    1
    80    26    23    1
    81    61    62    1
    82    61    60    2
    83    47    46    1
    84    60    59    1
    85    58    59    1
    86    22    23    1
    87    23    24    1
    88    46    43    1
    89    25    24    2
    90    24    27   am
    91    43    42    1
    92    43    44    1
    93    42    33   am
    94    30    29    2
    95    44    45    2
    96    27    28    1
    97    33    34    2
    98    33    32    1
    99    29    28    1
   100    29    31   am
   101    32    31    1
   102    32    35    1
   103    35    36    1
   104    36    37    1
   105    37    38    1
   106    40    39    1
   107    38    39    2
   108    39    41    1
