@<TRIPOS>MOLECULE
tmp/5ggaA00.pdb
 161 155 0 0 0
SMALL
GASTEIGER

@<TRIPOS>ATOM
      1  N         20.4830   23.6500   16.4830 N.3    25  ARG25      -0.1245
      2  CA        19.9860   24.0150   17.8390 C.3    25  ARG25       0.1563
      3  C         20.8470   25.1220   18.4670 C.2    25  ARG25       0.2260
      4  O         22.0000   24.9280   18.7290 O.2    25  ARG25      -0.2867
      5  CB        20.0600   22.8130   18.8030 C.3    25  ARG25       0.0307
      6  CG        19.3220   21.5750   18.2710 C.3    25  ARG25       0.0489
      7  CD        19.2590   20.4500   19.2570 C.3    25  ARG25       0.2205
      8  NE        20.5330   19.8110   19.5100 N.pl3  25  ARG25      -0.0865
      9  CZ        20.7540   18.8570   20.4210 C.cat  25  ARG25       0.5346
     10  NH1       21.9550   18.2980   20.4970 N.pl3  25  ARG25       0.1354
     11  NH2       19.7660   18.4270   21.2340 N.pl3  25  ARG25       0.1354
     12  N         20.8850   26.3470   21.5380 N.3    27  ARG27      -0.1231
     13  CA        21.3560   26.1500   22.8880 C.3    27  ARG27       0.1694
     14  C         22.7670   25.4810   22.9300 C.2    27  ARG27       0.2592
     15  O         23.5320   25.6820   23.8700 O.2    27  ARG27      -0.2718
     16  CB        20.2770   25.3390   23.6370 C.3    27  ARG27       0.0321
     17  CG        20.6550   24.7240   24.9550 C.3    27  ARG27       0.0489
     18  CD        19.4700   23.8970   25.4410 C.3    27  ARG27       0.2205
     19  NE        19.8200   22.9890   26.5350 N.pl3  27  ARG27      -0.0865
     20  CZ        19.0520   21.9670   26.9560 C.cat  27  ARG27       0.5346
     21  NH1       19.4650   21.1970   27.9650 N.pl3  27  ARG27       0.1354
     22  NH2       17.8820   21.6800   26.3700 N.pl3  27  ARG27       0.1354
     23  N         23.0700   24.6540   21.9240 N.am   28  TYR28      -0.1976
     24  CA        24.3130   23.9390   21.8600 C.3    28  TYR28       0.1639
     25  C         25.1170   24.4300   20.6700 C.2    28  TYR28       0.2290
     26  O         26.2710   24.0400   20.4420 O.2    28  TYR28      -0.2864
     27  CB        24.0090   22.4320   21.6490 C.3    28  TYR28       0.0560
     28  CG        23.1960   21.8150   22.7600 C.ar   28  TYR28      -0.0198
     29  CD1       23.6810   21.7880   24.0650 C.ar   28  TYR28      -0.0009
     30  CD2       21.9880   21.2360   22.5130 C.ar   28  TYR28      -0.0009
     31  CE1       22.9590   21.2310   25.0770 C.ar   28  TYR28       0.0417
     32  CE2       21.2630   20.6720   23.5270 C.ar   28  TYR28       0.0417
     33  CZ        21.7630   20.6640   24.7940 C.ar   28  TYR28       0.1957
     34  OH        21.0420   20.0830   25.7990 O.3    28  TYR28      -0.2866
     35  N         24.7810   23.4000   17.6810 N.3    30  ASP30      -0.1239
     36  CA        25.1830   22.2080   16.9080 C.3    30  ASP30       0.1674
     37  C         24.3570   21.9810   15.6660 C.2    30  ASP30       0.2266
     38  O         23.1990   22.4410   15.5530 O.2    30  ASP30      -0.2867
     39  CB        25.3120   20.9430   17.7690 C.3    30  ASP30       0.1410
     40  CG        24.0550   20.5490   18.4610 C.2    30  ASP30       0.3668
     41  OD1       22.9890   21.0880   18.1160 O.co2  30  ASP30      -0.2456
     42  OD2       24.1190   19.7400   19.4330 O.co2  30  ASP30      -0.2456
     43  N         23.0290   18.7210   13.7270 N.3    32  SER32      -0.1202
     44  CA        22.8650   17.2860   13.9720 C.3    32  SER32       0.2020
     45  C         21.5670   16.7150   13.3800 C.2    32  SER32       0.2618
     46  O         20.8360   17.3840   12.6640 O.2    32  SER32      -0.2717
     47  CB        22.8840   17.0570   15.5030 C.3    32  SER32       0.2103
     48  OG        21.8150   17.7950   16.0740 O.3    32  SER32      -0.2182
     49  N         21.2640   15.4820   13.7710 N.am   33  LEU33      -0.1979
     50  CA        20.0210   14.8090   13.4180 C.3    33  LEU33       0.1596
     51  C         19.0320   14.9380   14.5530 C.2    33  LEU33       0.2287
     52  O         19.4410   14.9370   15.7510 O.2    33  LEU33      -0.2864
     53  CB        20.3280   13.3330   13.1730 C.3    33  LEU33       0.0297
     54  CG        21.3060   13.0190   12.0790 C.3    33  LEU33       0.0022
     55  CD1       21.8040   11.6030   12.2470 C.3    33  LEU33       0.0001
     56  CD2       20.7460   13.2290   10.6420 C.3    33  LEU33       0.0001
     57  N         16.5230   14.1320   17.4070 N.3    35  LYS35      -0.1231
     58  CA        16.5110   13.0310   18.3440 C.3    35  LYS35       0.1693
     59  C         15.9880   13.6010   19.6600 C.2    35  LYS35       0.2593
     60  O         16.0100   14.8050   19.8570 O.2    35  LYS35      -0.2718
     61  CB        17.9120   12.4840   18.5810 C.3    35  LYS35       0.0285
     62  CG        18.8630   13.5020   19.2090 C.3    35  LYS35       0.0035
     63  CD        19.9370   12.8530   19.9870 C.3    35  LYS35       0.0206
     64  CE        20.6820   13.8090   20.9160 C.3    35  LYS35       0.1093
     65  NZ        20.0060   15.1230   21.1180 N.3    35  LYS35      -0.1314
     66  N         15.5980   12.7190   20.5470 N.am   36  GLY36      -0.1942
     67  CA        15.0850   13.1040   21.8600 C.3    36  GLY36       0.2014
     68  C         14.8640   11.9150   22.7630 C.2    36  GLY36       0.2638
     69  O         14.7570   10.7640   22.2980 O.2    36  GLY36      -0.2714
     70  N         14.8270   12.2180   24.0540 N.am   37  LYS37      -0.1977
     71  CA        14.6720   11.2170   25.0930 C.3    37  LYS37       0.1596
     72  C         13.3090   10.6240   25.0900 C.2    37  LYS37       0.2287
     73  O         12.3040   11.2550   24.7820 O.2    37  LYS37      -0.2864
     74  CB        14.9080   11.8270   26.5020 C.3    37  LYS37       0.0298
     75  CG        16.2100   12.6250   26.6210 C.3    37  LYS37       0.0038
     76  CD        16.5410   13.0690   28.0480 C.3    37  LYS37       0.0206
     77  CE        15.4440   13.9150   28.7050 C.3    37  LYS37       0.1093
     78  NZ        15.3010   15.2650   28.0690 N.3    37  LYS37      -0.1314
     79  N         24.0080    4.8530   19.0400 N.3    69  VAL69      -0.1245
     80  CA        25.0510    5.7890   19.4220 C.3    69  VAL69       0.1561
     81  C         24.9450    5.9360   20.9540 C.2    69  VAL69       0.2260
     82  O         23.8450    6.0720   21.4940 O.2    69  VAL69      -0.2867
     83  CB        24.7890    7.1290   18.7420 C.3    69  VAL69       0.0252
     84  CG1       25.5300    8.2780   19.4080 C.3    69  VAL69       0.0019
     85  CG2       25.1610    7.0580   17.2900 C.3    69  VAL69       0.0019
     86  N         26.9270    8.1510   24.3600 N.3    71  TYR71      -0.1228
     87  CA        27.9520    9.1040   24.7620 C.3    71  TYR71       0.1721
     88  C         27.6730    9.5200   26.1710 C.2    71  TYR71       0.2437
     89  O         26.5780    9.4740   26.5870 O.2    71  TYR71      -0.2733
     90  CB        28.0000   10.3500   23.8690 C.3    71  TYR71       0.0547
     91  CG        26.6620   11.0440   23.5410 C.ar   71  TYR71      -0.0200
     92  CD1       26.1340   12.0690   24.3600 C.ar   71  TYR71      -0.0009
     93  CD2       25.9920   10.7310   22.3660 C.ar   71  TYR71      -0.0009
     94  CE1       24.9470   12.7500   24.0210 C.ar   71  TYR71       0.0417
     95  CE2       24.7820   11.3430   22.0340 C.ar   71  TYR71       0.0417
     96  CZ        24.2770   12.3550   22.8440 C.ar   71  TYR71       0.1957
     97  OH        23.1410   12.9580   22.3850 O.3    71  TYR71      -0.2866
     98  N         28.6870    9.9310   26.9240 N.am   72  PRO72      -0.2718
     99  CA        28.4350   10.2060   28.3690 C.3    72  PRO72       0.1535
    100  C         27.8000   11.5570   28.6230 C.2    72  PRO72       0.2598
    101  O         28.0200   12.5330   27.9150 O.2    72  PRO72      -0.2715
    102  CB        29.8370   10.1540   28.9780 C.3    72  PRO72       0.0310
    103  CG        30.7220   10.5770   27.8590 C.3    72  PRO72       0.0237
    104  CD        30.1130   10.0720   26.5710 C.3    72  PRO72       0.0939
    105  N         26.9790   11.6060   29.6370 N.am   73  ILE73      -0.1978
    106  CA        26.2960   12.8080   29.9940 C.3    73  ILE73       0.1596
    107  C         26.3330   12.7820   31.5180 C.2    73  ILE73       0.2287
    108  O         26.6490   11.7400   32.1100 O.2    73  ILE73      -0.2864
    109  CB        24.8410   12.8150   29.4790 C.3    73  ILE73       0.0276
    110  CG1       24.0880   11.5380   29.9100 C.3    73  ILE73       0.0022
    111  CG2       24.8150   13.0160   27.9590 C.3    73  ILE73       0.0022
    112  CD1       22.5980   11.6340   29.7080 C.3    73  ILE73       0.0001
    113  N         23.9500    8.4540   27.5960 N.3    78  LYS78      -0.1245
    114  CA        22.8300    8.6570   26.6700 C.3    78  LYS78       0.1561
    115  C         22.8840    7.5690   25.6390 C.2    78  LYS78       0.2260
    116  O         23.9190    7.3490   25.0730 O.2    78  LYS78      -0.2867
    117  CB        22.9650    9.9930   25.9840 C.3    78  LYS78       0.0271
    118  CG        21.7710   10.3910   25.1060 C.3    78  LYS78       0.0035
    119  CD        20.7610   11.1950   25.8970 C.3    78  LYS78       0.0206
    120  CE        20.1910   12.3080   25.0630 C.3    78  LYS78       0.1093
    121  NZ        20.2040   13.6480   25.7080 N.3    78  LYS78      -0.1314
    122  N         18.6320    5.0260   16.1290 N.3    82  TYR82      -0.1241
    123  CA        18.2460    5.8150   14.9750 C.3    82  TYR82       0.1605
    124  C         17.5150    5.0430   13.9230 C.2    82  TYR82       0.2264
    125  O         17.8420    3.9010   13.6860 O.2    82  TYR82      -0.2867
    126  CB        19.4880    6.4420   14.2780 C.3    82  TYR82       0.0534
    127  CG        20.0660    7.5770   15.0040 C.ar   82  TYR82      -0.0201
    128  CD1       19.5950    8.8840   14.7660 C.ar   82  TYR82      -0.0009
    129  CD2       21.0200    7.3670   16.0160 C.ar   82  TYR82      -0.0009
    130  CE1       20.1090    9.9480   15.5190 C.ar   82  TYR82       0.0417
    131  CE2       21.5360    8.4130   16.7640 C.ar   82  TYR82       0.0417
    132  CZ        21.0780    9.6900   16.5030 C.ar   82  TYR82       0.1957
    133  OH        21.5720   10.7160   17.2960 O.3    82  TYR82      -0.2866
    134  N         28.9890   15.9070   14.3240 N.3   115  TYR115     -0.1241
    135  CA        29.4190   14.8470   15.1980 C.3   115  TYR115      0.1605
    136  C         29.7760   13.6040   14.3630 C.2   115  TYR115      0.2264
    137  O         29.0040   13.2000   13.4990 O.2   115  TYR115     -0.2867
    138  CB        28.3530   14.4970   16.2080 C.3   115  TYR115      0.0534
    139  CG        27.9400   15.6280   17.0650 C.ar  115  TYR115     -0.0201
    140  CD1       28.8330   16.2150   17.9440 C.ar  115  TYR115     -0.0009
    141  CD2       26.6580   16.1290   17.0070 C.ar  115  TYR115     -0.0009
    142  CE1       28.4490   17.2680   18.7440 C.ar  115  TYR115      0.0417
    143  CE2       26.2770   17.1640   17.8190 C.ar  115  TYR115      0.0417
    144  CZ        27.1850   17.7340   18.6620 C.ar  115  TYR115      0.1957
    145  OH        26.7920   18.7610   19.4750 O.3   115  TYR115     -0.2866
    146  N         29.5800   10.4590   15.2090 N.3   117  ASP117     -0.1225
    147  CA        28.5090    9.4100   15.3100 C.3   117  ASP117      0.1805
    148  C         27.3290    9.7090   14.4330 C.2   117  ASP117      0.2597
    149  O         26.6720    8.7930   13.9010 O.2   117  ASP117     -0.2718
    150  CB        28.0440    9.2940   16.7560 C.3   117  ASP117      0.1424
    151  CG        29.0770    8.5410   17.6540 C.2   117  ASP117      0.3668
    152  OD1       29.9490    7.8430   17.1100 O.co2 117  ASP117     -0.2456
    153  OD2       28.9840    8.6090   18.8620 O.co2 117  ASP117     -0.2456
    154  N         26.9870   10.9750   14.2540 N.am  118  ASP118     -0.1974
    155  CA        25.9110   11.2740   13.2820 C.3   118  ASP118      0.1709
    156  C         26.3650   10.8760   11.8750 C.2   118  ASP118      0.2293
    157  O         25.5600   10.3950   11.0750 O.2   118  ASP118     -0.2864
    158  CB        25.4720   12.7410   13.2980 C.3   118  ASP118      0.1436
    159  CG        24.6050   13.1230   14.5510 C.2   118  ASP118      0.3671
    160  OD1       24.0440   12.2380   15.2170 O.co2 118  ASP118     -0.2456
    161  OD2       24.4450   14.3320   14.7970 O.co2 118  ASP118     -0.2456
@<TRIPOS>BOND
     1    56    54    1
     2   157   156    2
     3   156   155    1
     4    54    55    1
     5    54    53    1
     6    46    45    2
     7    53    50    1
     8   155   158    1
     9   155   154    1
    10   158   159    1
    11    45    49   am
    12    45    44    1
    13    50    49    1
    14    50    51    1
    15   137   136    2
    16   125   124    2
    17    43    44    1
    18   149   148    2
    19   124   123    1
    20    44    47    1
    21   154   148   am
    22   126   123    1
    23   126   127    1
    24   134   135    1
    25   136   135    1
    26   148   147    1
    27   159   161   ar
    28   159   160   ar
    29    51    52    2
    30   128   127   ar
    31   128   130   ar
    32   123   122    1
    33   127   129   ar
    34   135   138    1
    35   146   147    1
    36   147   150    1
    37    47    48    1
    38   130   132   ar
    39    38    37    2
    40    37    36    1
    41   129   131   ar
    42   138   139    1
    43     1     2    1
    44   132   131   ar
    45   132   133    1
    46   150   151    1
    47    36    35    1
    48    36    39    1
    49   141   139   ar
    50   141   143   ar
    51   139   140   ar
    52   152   151   ar
    53    85    83    1
    54    57    58    1
    55   151   153   ar
    56    39    40    1
    57   143   144   ar
    58     2     3    1
    59     2     5    1
    60   140   142   ar
    61    41    40   ar
    62     6     5    1
    63     6     7    1
    64    58    61    1
    65    58    59    1
    66    40    42   ar
    67     3     4    2
    68    61    62    1
    69   144   142   ar
    70   144   145    1
    71    83    84    1
    72    83    80    1
    73    79    80    1
    74    62    63    1
    75     7     8    1
    76    80    81    1
    77     8     9    2
    78    59    60    2
    79    59    66   am
    80    63    64    1
    81     9    10    1
    82     9    11    1
    83    26    25    2
    84    66    67    1
    85    25    24    1
    86    64    65    1
    87    81    82    2
    88    12    13    1
    89    27    24    1
    90    27    28    1
    91    67    68    1
    92    24    23    1
    93    23    14   am
    94    95    93   ar
    95    95    96   ar
    96    69    68    2
    97    93    91   ar
    98    97    96    1
    99    30    28   ar
   100    30    32   ar
   101    28    29   ar
   102    68    70   am
   103    96    94   ar
   104    13    14    1
   105    13    16    1
   106    14    15    2
   107    32    33   ar
   108    91    90    1
   109    91    92   ar
   110    16    17    1
   111    90    87    1
   112    94    92   ar
   113    70    71    1
   114    29    31   ar
   115    86    87    1
   116    87    88    1
   117    73    72    2
   118    33    31   ar
   119    33    34    1
   120    17    18    1
   121   120   121    1
   122   120   119    1
   123   116   115    2
   124    72    71    1
   125    71    74    1
   126   118   119    1
   127   118   117    1
   128    18    19    1
   129   115   114    1
   130   117   114    1
   131    88    89    2
   132    88    98   am
   133    22    20    1
   134    74    75    1
   135    19    20    2
   136   104    98    1
   137   104   103    1
   138    75    76    1
   139   114   113    1
   140    98    99    1
   141    20    21    1
   142   103   102    1
   143   101   100    2
   144   111   109    1
   145    76    77    1
   146    78    77    1
   147    99   100    1
   148    99   102    1
   149   100   105   am
   150   109   110    1
   151   109   106    1
   152   105   106    1
   153   112   110    1
   154   106   107    1
   155   107   108    2
