@<TRIPOS>MOLECULE
tmp/5ggbA00.pdb
 129 123 0 0 0
SMALL
GASTEIGER

@<TRIPOS>ATOM
      1  N         12.5260   22.4060   19.3840 N.3   137  ARG137     -0.1231
      2  CA        12.9360   23.5070   20.2490 C.3   137  ARG137      0.1694
      3  C         14.1340   23.0220   21.0600 C.2   137  ARG137      0.2592
      4  O         14.0970   21.9540   21.6170 O.2   137  ARG137     -0.2718
      5  CB        11.8110   23.9830   21.1730 C.3   137  ARG137      0.0321
      6  CG        12.2210   25.2460   21.9180 C.3   137  ARG137      0.0489
      7  CD        11.1020   25.8320   22.7470 C.3   137  ARG137      0.2205
      8  NE        11.5590   26.9850   23.4710 N.pl3 137  ARG137     -0.0865
      9  CZ        10.9410   27.5700   24.4930 C.cat 137  ARG137      0.5346
     10  NH1        9.7880   27.1580   24.9190 N.pl3 137  ARG137      0.1354
     11  NH2       11.5390   28.5980   25.0940 N.pl3 137  ARG137      0.1354
     12  N         15.1670   23.8780   21.1410 N.am  138  HIS138     -0.1976
     13  CA        16.3370   23.4970   21.8940 C.3   138  HIS138      0.1656
     14  C         15.9960   23.1090   23.3140 C.2   138  HIS138      0.2291
     15  O         15.0110   23.5450   23.8800 O.2   138  HIS138     -0.2864
     16  CB        17.3870   24.5940   21.8690 C.3   138  HIS138      0.0771
     17  CG        16.9800   25.8100   22.5960 C.ar  138  HIS138      0.0820
     18  ND1       16.9390   25.9260   23.9820 N.ar  138  HIS138     -0.2267
     19  CD2       16.6040   26.9950   22.1210 C.ar  138  HIS138      0.1154
     20  CE1       16.5340   27.1300   24.3120 C.ar  138  HIS138      0.1986
     21  NE2       16.3620   27.8230   23.1970 N.ar  138  HIS138     -0.2212
     22  N         18.3020   25.4720   29.0800 N.3   141  ALA141     -0.1231
     23  CA        19.5280   26.2920   28.9880 C.3   141  ALA141      0.1694
     24  C         19.5430   27.4040   30.0600 C.2   141  ALA141      0.2593
     25  O         20.1700   28.4590   29.8700 O.2   141  ALA141     -0.2718
     26  CB        19.7690   26.8380   27.5760 C.3   141  ALA141      0.0304
     27  N         18.9430   27.0810   31.1980 N.am  142  GLY142     -0.1942
     28  CA        18.9320   28.0600   32.3090 C.3   142  GLY142      0.2014
     29  C         18.1440   29.2990   32.0060 C.2   142  GLY142      0.2639
     30  O         17.3420   29.3060   31.0450 O.2   142  GLY142     -0.2714
     31  N         18.3690   30.3160   32.8640 N.am  143  ARG143     -0.1963
     32  CA        17.7600   31.6340   32.7240 C.3   143  ARG143      0.1729
     33  C         18.7130   32.6360   32.1100 C.2   143  ARG143      0.2616
     34  O         19.9240   32.7050   32.5050 O.2   143  ARG143     -0.2715
     35  CB        17.2980   32.1780   34.0780 C.3   143  ARG143      0.0348
     36  CG        16.1680   31.4390   34.7640 C.3   143  ARG143      0.0492
     37  CD        15.7320   32.3000   35.9720 C.3   143  ARG143      0.2205
     38  NE        14.5350   31.7620   36.5620 N.pl3 143  ARG143     -0.0865
     39  CZ        13.5880   32.5050   37.1140 C.cat 143  ARG143      0.5346
     40  NH1       12.4840   31.9180   37.5940 N.pl3 143  ARG143      0.1354
     41  NH2       13.6860   33.8260   37.1860 N.pl3 143  ARG143      0.1354
     42  N         18.1640   33.4330   31.2180 N.am  144  ARG144     -0.1963
     43  CA        18.9160   34.5260   30.6310 C.3   144  ARG144      0.1729
     44  C         19.5150   35.4400   31.7250 C.2   144  ARG144      0.2616
     45  O         20.6670   35.9560   31.5710 O.2   144  ARG144     -0.2715
     46  CB        18.1150   35.3560   29.5880 C.3   144  ARG144      0.0348
     47  CG        17.4570   34.5120   28.5320 C.3   144  ARG144      0.0492
     48  CD        17.3020   35.2720   27.2260 C.3   144  ARG144      0.2205
     49  NE        16.5080   34.5120   26.2170 N.pl3 144  ARG144     -0.0865
     50  CZ        16.2510   34.9690   24.9960 C.cat 144  ARG144      0.5346
     51  NH1       16.6370   36.1790   24.6190 N.pl3 144  ARG144      0.1354
     52  NH2       15.5650   34.2050   24.1660 N.pl3 144  ARG144      0.1354
     53  N         18.7490   35.6870   32.7840 N.am  145  SER145     -0.1950
     54  CA        19.1440   36.7590   33.7740 C.3   145  SER145      0.1924
     55  C         20.3810   36.2950   34.5790 C.2   145  SER145      0.2314
     56  O         21.0090   37.0980   35.2220 O.2   145  SER145     -0.2863
     57  CB        18.0230   37.0690   34.7790 C.3   145  SER145      0.2116
     58  OG        17.6740   35.8570   35.4170 O.3   145  SER145     -0.2180
     59  N         24.9510   31.2300   25.3620 N.3   154  ARG154     -0.1245
     60  CA        24.5220   30.5120   26.5550 C.3   154  ARG154      0.1563
     61  C         24.2960   29.0250   26.2870 C.2   154  ARG154      0.2260
     62  O         23.5620   28.6800   25.3680 O.2   154  ARG154     -0.2867
     63  CB        23.2210   31.1290   27.0290 C.3   154  ARG154      0.0307
     64  CG        22.5950   30.4560   28.2470 C.3   154  ARG154      0.0489
     65  CD        21.5790   31.3280   28.9640 C.3   154  ARG154      0.2205
     66  NE        20.6510   31.9790   28.0580 N.pl3 154  ARG154     -0.0865
     67  CZ        19.5510   31.4520   27.5110 C.cat 154  ARG154      0.5346
     68  NH1       19.0750   30.2890   27.9600 N.pl3 154  ARG154      0.1354
     69  NH2       18.9450   32.0800   26.5480 N.pl3 154  ARG154      0.1354
     70  N         22.8970   27.1090   22.1150 N.3   186  ARG186     -0.1245
     71  CA        21.9670   26.1700   22.7210 C.3   186  ARG186      0.1563
     72  C         21.2170   25.3050   21.6620 C.2   186  ARG186      0.2260
     73  O         20.8520   24.1860   21.9800 O.2   186  ARG186     -0.2867
     74  CB        21.0370   26.8650   23.6970 C.3   186  ARG186      0.0307
     75  CG        20.1460   27.9790   23.1090 C.3   186  ARG186      0.0489
     76  CD        19.6180   28.8610   24.2020 C.3   186  ARG186      0.2205
     77  NE        18.7990   30.0010   23.7950 N.pl3 186  ARG186     -0.0865
     78  CZ        19.2100   31.2400   23.5910 C.cat 186  ARG186      0.5346
     79  NH1       20.4840   31.5410   23.5410 N.pl3 186  ARG186      0.1354
     80  NH2       18.3190   32.2170   23.4920 N.pl3 186  ARG186      0.1354
     81  N         15.4480   33.9690   16.9630 N.3   210  GLU210     -0.1231
     82  CA        14.3680   34.8070   17.4480 C.3   210  GLU210      0.1699
     83  C         14.4840   36.2170   16.8520 C.2   210  GLU210      0.2592
     84  O         13.5300   36.7630   16.4180 O.2   210  GLU210     -0.2718
     85  CB        14.3840   34.8630   18.9870 C.3   210  GLU210      0.0402
     86  CG        13.3880   35.8530   19.5460 C.3   210  GLU210      0.1161
     87  CD        13.3250   35.9070   21.0650 C.2   210  GLU210      0.3649
     88  OE1       13.7450   34.9470   21.7330 O.co2 210  GLU210     -0.2457
     89  OE2       12.9400   37.0390   21.5890 O.co2 210  GLU210     -0.2457
     90  N         15.6620   36.8220   16.9340 N.am  211  GLU211     -0.1979
     91  CA        15.8090   38.2020   16.4920 C.3   211  GLU211      0.1602
     92  C         15.6140   38.3600   14.9910 C.2   211  GLU211      0.2287
     93  O         14.9720   39.3170   14.5300 O.2   211  GLU211     -0.2864
     94  CB        17.1430   38.7690   16.8800 C.3   211  GLU211      0.0415
     95  CG        17.2980   39.0750   18.3520 C.3   211  GLU211      0.1163
     96  CD        17.5880   37.9000   19.3030 C.2   211  GLU211      0.3649
     97  OE1       17.6550   36.6810   18.8780 O.co2 211  GLU211     -0.2457
     98  OE2       17.8020   38.2130   20.5220 O.co2 211  GLU211     -0.2457
     99  N         14.0740   28.1560   18.2090 N.3   239  GLN239     -0.1231
    100  CA        13.7490   28.8090   19.4720 C.3   239  GLN239      0.1698
    101  C         12.2770   28.9730   19.6590 C.2   239  GLN239      0.2593
    102  O         11.4710   28.9260   18.7060 O.2   239  GLN239     -0.2718
    103  CB        14.4460   30.1950   19.4820 C.3   239  GLN239      0.0381
    104  CG        15.9440   30.1150   19.5090 C.3   239  GLN239      0.0905
    105  CD        16.5570   31.4700   19.5380 C.2   239  GLN239      0.2608
    106  OE1       16.8670   32.0210   18.5000 O.2   239  GLN239     -0.2717
    107  NE2       16.6840   32.0460   20.6990 N.am  239  GLN239     -0.0878
    108  N         11.9180   29.2100   20.9300 N.am  240  GLY240     -0.1942
    109  CA        10.5330   29.3250   21.3050 C.3   240  GLY240      0.2014
    110  C          9.7000   30.3790   20.6130 C.2   240  GLY240      0.2638
    111  O          8.5020   30.1690   20.3910 O.2   240  GLY240     -0.2714
    112  N         10.2750   31.5290   20.3010 N.am  241  LYS241     -0.1977
    113  CA         9.5060   32.5810   19.6750 C.3   241  LYS241      0.1596
    114  C          9.3870   32.3920   18.1840 C.2   241  LYS241      0.2287
    115  O          8.6570   33.1290   17.5480 O.2   241  LYS241     -0.2864
    116  CB        10.0580   33.9280   20.0100 C.3   241  LYS241      0.0298
    117  CG         9.8910   34.2970   21.4600 C.3   241  LYS241      0.0038
    118  CD         8.4230   34.6840   21.7070 C.3   241  LYS241      0.0206
    119  CE         8.0760   34.9570   23.1420 C.3   241  LYS241      0.1093
    120  NZ         8.8790   36.0850   23.5750 N.3   241  LYS241     -0.1314
    121  N         10.7180   23.3640   25.7110 N.3   265  LYS265     -0.1245
    122  CA        12.1340   23.1130   25.3800 C.3   265  LYS265      0.1561
    123  C         12.3530   21.6370   25.2380 C.2   265  LYS265      0.2260
    124  O         11.9420   20.8560   26.0880 O.2   265  LYS265     -0.2867
    125  CB        13.0330   23.7040   26.4390 C.3   265  LYS265      0.0271
    126  CG        12.9700   25.2590   26.4130 C.3   265  LYS265      0.0035
    127  CD        13.6050   25.8940   27.6830 C.3   265  LYS265      0.0206
    128  CE        13.3340   27.4240   27.7850 C.3   265  LYS265      0.1093
    129  NZ        13.5930   27.9660   29.1550 N.3   265  LYS265     -0.1314
@<TRIPOS>BOND
     1    93    92    2
     2    92    91    1
     3    84    83    2
     4    91    94    1
     5    91    90    1
     6    83    90   am
     7    83    82    1
     8    94    95    1
     9    81    82    1
    10    82    85    1
    11   115   114    2
    12   114   113    1
    13    99   100    1
    14    95    96    1
    15   106   105    2
    16   102   101    2
    17    97    96   ar
    18    85    86    1
    19    96    98   ar
    20     1     2    1
    21   100   103    1
    22   100   101    1
    23   103   104    1
    24   104   105    1
    25   105   107   am
    26    86    87    1
    27   101   108   am
    28   113   116    1
    29   113   112    1
    30   116   117    1
    31     2     3    1
    32     2     5    1
    33   112   110   am
    34   111   110    2
    35   110   109    1
    36   108   109    1
    37     3    12   am
    38     3     4    2
    39    87    89   ar
    40    87    88   ar
    41    12    13    1
    42     5     6    1
    43   117   118    1
    44    72    73    2
    45    72    71    1
    46   118   119    1
    47    16    13    1
    48    16    17    1
    49    13    14    1
    50     6     7    1
    51    70    71    1
    52    19    17   ar
    53    19    21   ar
    54    17    18   ar
    55    71    74    1
    56     7     8    1
    57    75    74    1
    58    75    76    1
    59   119   120    1
    60    21    20   ar
    61    14    15    2
    62     8     9    2
    63    80    78    1
    64    79    78    1
    65    78    77    2
    66    77    76    1
    67    18    20   ar
    68    52    50    1
    69     9    10    1
    70     9    11    1
    71    51    50    1
    72    50    49    2
    73   123   122    1
    74   123   124    2
    75    59    60    1
    76    62    61    2
    77   122   121    1
    78   122   125    1
    79    49    48    1
    80    61    60    1
    81   126   125    1
    82   126   127    1
    83    69    67    1
    84    60    63    1
    85    63    64    1
    86    48    47    1
    87    67    68    1
    88    67    66    2
    89    26    23    1
    90   127   128    1
    91   128   129    1
    92    66    65    1
    93    64    65    1
    94    47    46    1
    95    23    22    1
    96    23    24    1
    97    46    43    1
    98    25    24    2
    99    24    27   am
   100    43    42    1
   101    43    44    1
   102    30    29    2
   103    27    28    1
   104    42    33   am
   105    45    44    2
   106    44    53   am
   107    29    28    1
   108    29    31   am
   109    33    34    2
   110    33    32    1
   111    32    31    1
   112    32    35    1
   113    53    54    1
   114    54    55    1
   115    54    57    1
   116    35    36    1
   117    55    56    2
   118    36    37    1
   119    57    58    1
   120    37    38    1
   121    38    39    2
   122    39    41    1
   123    39    40    1
