@<TRIPOS>MOLECULE
tmp/5ggeA00.pdb
 132 121 0 0 0
SMALL
GASTEIGER

@<TRIPOS>ATOM
      1  N        -20.9700   -8.6670  -10.0900 N.3    15  PHE15      -0.1241
      2  CA       -21.0990  -10.0880  -10.3900 C.3    15  PHE15       0.1605
      3  C        -22.4310  -10.6180   -9.8360 C.2    15  PHE15       0.2264
      4  O        -23.0830  -11.4340  -10.4580 O.2    15  PHE15      -0.2867
      5  CB       -19.9300  -10.8900   -9.8180 C.3    15  PHE15       0.0534
      6  CG       -19.8590  -12.2970  -10.3350 C.ar   15  PHE15      -0.0203
      7  CD1      -19.9670  -12.5510  -11.6950 C.ar   15  PHE15      -0.0042
      8  CD2      -19.6530  -13.3500   -9.4870 C.ar   15  PHE15      -0.0042
      9  CE1      -19.8910  -13.8480  -12.1910 C.ar   15  PHE15      -0.0003
     10  CE2      -19.5680  -14.6470   -9.9700 C.ar   15  PHE15      -0.0003
     11  CZ       -19.6890  -14.8920  -11.3190 C.ar   15  PHE15      -0.0000
     12  N        -24.9590   -9.7890  -12.3270 N.3    18  TYR18      -0.1241
     13  CA       -24.7830  -10.6230  -13.5070 C.3    18  TYR18       0.1605
     14  C        -25.3870  -11.9890  -13.2970 C.2    18  TYR18       0.2264
     15  O        -26.1290  -12.5000  -14.1250 O.2    18  TYR18      -0.2867
     16  CB       -23.2970  -10.7150  -13.8480 C.3    18  TYR18       0.0534
     17  CG       -23.0010  -11.7090  -14.9470 C.ar   18  TYR18      -0.0201
     18  CD1      -23.0660  -11.3350  -16.2860 C.ar   18  TYR18      -0.0009
     19  CD2      -22.7040  -13.0260  -14.6510 C.ar   18  TYR18      -0.0009
     20  CE1      -22.7990  -12.2540  -17.2880 C.ar   18  TYR18       0.0417
     21  CE2      -22.4520  -13.9510  -15.6470 C.ar   18  TYR18       0.0417
     22  CZ       -22.5120  -13.5530  -16.9660 C.ar   18  TYR18       0.1957
     23  OH       -22.2540  -14.4600  -17.9810 O.3    18  TYR18      -0.2866
     24  N        -28.7240  -13.7010  -15.0310 N.3    22  LEU22      -0.1245
     25  CA       -28.4920  -14.9650  -15.7100 C.3    22  LEU22       0.1561
     26  C        -29.4370  -16.0560  -15.1920 C.2    22  LEU22       0.2260
     27  O        -29.6930  -17.0400  -15.8690 O.2    22  LEU22      -0.2867
     28  CB       -27.0290  -15.3850  -15.5310 C.3    22  LEU22       0.0270
     29  CG       -26.5780  -16.6580  -16.2480 C.3    22  LEU22       0.0019
     30  CD1      -26.8890  -16.6100  -17.7530 C.3    22  LEU22       0.0001
     31  CD2      -25.0890  -16.8370  -16.0380 C.3    22  LEU22       0.0001
     32  N        -12.1730  -17.4430   -7.3350 N.3    37  PRO37      -0.2116
     33  CA       -11.6910  -18.4870   -8.2580 C.3    37  PRO37       0.1372
     34  C        -10.4370  -18.1140   -8.9580 C.2    37  PRO37       0.2244
     35  O        -10.1180  -16.9180   -9.0810 O.2    37  PRO37      -0.2868
     36  CB       -12.8210  -18.6220   -9.2730 C.3    37  PRO37       0.0268
     37  CG       -13.6460  -17.4330   -9.1270 C.3    37  PRO37       0.0207
     38  CD       -13.4420  -16.8550   -7.7700 C.3    37  PRO37       0.0892
     39  N         -8.3880  -18.5260  -12.7400 N.3    39  VAL39      -0.1245
     40  CA        -8.5690  -18.6990  -14.1630 C.3    39  VAL39       0.1561
     41  C         -7.2150  -18.9890  -14.8020 C.2    39  VAL39       0.2260
     42  O         -6.2050  -18.3610  -14.4650 O.2    39  VAL39      -0.2867
     43  CB        -9.1840  -17.4460  -14.8180 C.3    39  VAL39       0.0252
     44  CG1       -9.1130  -17.5160  -16.3320 C.3    39  VAL39       0.0019
     45  CG2      -10.6380  -17.2620  -14.3490 C.3    39  VAL39       0.0019
     46  N        -11.6270  -22.5660  -14.9760 N.3    52  THR52      -0.1218
     47  CA       -12.0170  -21.7340  -13.8470 C.3    52  THR52       0.1862
     48  C        -12.2360  -22.6460  -12.6340 C.2    52  THR52       0.2287
     49  O        -13.0680  -23.5460  -12.6650 O.2    52  THR52      -0.2866
     50  CB       -13.2950  -20.9180  -14.1500 C.3    52  THR52       0.1770
     51  OG1      -13.1090  -20.2280  -15.3700 O.3    52  THR52      -0.2211
     52  CG2      -13.5810  -19.8830  -13.0340 C.3    52  THR52       0.0375
     53  N        -14.5890  -25.7690  -13.6420 N.3    59  SER59      -0.1217
     54  CA       -15.1520  -25.7530  -14.9700 C.3    59  SER59       0.1889
     55  C        -14.0190  -25.6090  -15.9860 C.2    59  SER59       0.2288
     56  O        -13.3950  -24.5550  -16.0850 O.2    59  SER59      -0.2866
     57  CB       -16.1450  -24.6030  -15.1470 C.3    59  SER59       0.2089
     58  OG       -16.4460  -24.4120  -16.5170 O.3    59  SER59      -0.2183
     59  N        -24.3190  -21.0760  -16.2310 N.3    74  LEU74      -0.1245
     60  CA       -24.4380  -21.2210  -14.7760 C.3    74  LEU74       0.1561
     61  C        -25.8260  -21.6110  -14.3340 C.2    74  LEU74       0.2260
     62  O        -25.9640  -22.2900  -13.3180 O.2    74  LEU74      -0.2867
     63  CB       -24.0500  -19.9380  -14.0720 C.3    74  LEU74       0.0270
     64  CG       -22.5780  -19.5200  -14.1900 C.3    74  LEU74       0.0019
     65  CD1      -22.2970  -18.3890  -13.2370 C.3    74  LEU74       0.0001
     66  CD2      -21.5910  -20.6790  -13.9490 C.3    74  LEU74       0.0001
     67  N        -22.1200  -15.8220  -26.3720 N.3    94  GLN94      -0.1245
     68  CA       -23.1470  -16.8380  -26.2360 C.3    94  GLN94       0.1566
     69  C        -24.4710  -16.3700  -26.8030 C.2    94  GLN94       0.2260
     70  O        -24.8730  -15.2390  -26.5570 O.2    94  GLN94      -0.2867
     71  CB       -23.3150  -17.2070  -24.7860 C.3    94  GLN94       0.0367
     72  CG       -22.1230  -17.9090  -24.1830 C.3    94  GLN94       0.0905
     73  CD       -22.4430  -18.3390  -22.7750 C.2    94  GLN94       0.2608
     74  OE1      -23.0550  -17.5880  -22.0170 O.2    94  GLN94      -0.2717
     75  NE2      -22.0820  -19.5690  -22.4330 N.am   94  GLN94      -0.0878
     76  N        -18.4260  -12.2430  -22.9040 N.3   102  ILE102     -0.1245
     77  CA       -17.3780  -12.2310  -21.8930 C.3   102  ILE102      0.1561
     78  C        -16.0580  -11.9730  -22.5750 C.2   102  ILE102      0.2260
     79  O        -15.6280  -12.7700  -23.4020 O.2   102  ILE102     -0.2867
     80  CB       -17.2880  -13.5430  -21.1040 C.3   102  ILE102      0.0252
     81  CG1      -18.6070  -13.8170  -20.3890 C.3   102  ILE102      0.0019
     82  CG2      -16.1910  -13.4790  -20.0600 C.3   102  ILE102      0.0019
     83  CD1      -18.6570  -15.1950  -19.6790 C.3   102  ILE102      0.0001
     84  N        -12.0530  -11.3410  -22.0330 N.3   104  ARG104     -0.1245
     85  CA       -10.9530  -11.5890  -21.1250 C.3   104  ARG104      0.1563
     86  C         -9.6910  -10.9830  -21.7100 C.2   104  ARG104      0.2260
     87  O         -9.1940  -11.4280  -22.7440 O.2   104  ARG104     -0.2867
     88  CB       -10.7790  -13.0810  -20.8720 C.3   104  ARG104      0.0307
     89  CG       -11.8980  -13.6720  -20.0160 C.3   104  ARG104      0.0489
     90  CD       -11.7000  -15.1480  -19.8770 C.3   104  ARG104      0.2205
     91  NE       -12.6700  -15.7740  -18.9750 N.pl3 104  ARG104     -0.0865
     92  CZ       -13.8190  -16.3150  -19.3570 C.cat 104  ARG104      0.5346
     93  NH1      -14.1920  -16.3120  -20.6330 N.pl3 104  ARG104      0.1354
     94  NH2      -14.6010  -16.8880  -18.4490 N.pl3 104  ARG104      0.1354
     95  N        -11.6880   -9.1930  -16.8770 N.3   113  THR113     -0.1218
     96  CA       -12.7870   -9.9020  -17.5100 C.3   113  THR113      0.1862
     97  C        -14.0040   -8.9720  -17.4550 C.2   113  THR113      0.2287
     98  O        -14.3650   -8.5030  -16.3870 O.2   113  THR113     -0.2866
     99  CB       -13.0930  -11.2600  -16.7950 C.3   113  THR113      0.1770
    100  OG1      -11.9030  -12.0690  -16.7290 O.3   113  THR113     -0.2211
    101  CG2      -14.1910  -12.0250  -17.5310 C.3   113  THR113      0.0375
    102  N        -17.9800   -8.9130  -18.3140 N.3   115  LEU115     -0.1245
    103  CA       -19.1570   -9.6840  -18.6760 C.3   115  LEU115      0.1561
    104  C        -20.3220   -8.7660  -18.9230 C.2   115  LEU115      0.2260
    105  O        -20.5540   -7.8240  -18.1470 O.2   115  LEU115     -0.2867
    106  CB       -19.5370  -10.6810  -17.5800 C.3   115  LEU115      0.0270
    107  CG       -18.3640  -11.5970  -17.2000 C.3   115  LEU115      0.0019
    108  CD1      -17.6320  -11.0140  -16.0530 C.3   115  LEU115      0.0001
    109  CD2      -18.8430  -12.9930  -16.8600 C.3   115  LEU115      0.0001
    110  N        -14.4200   -8.0030  -13.4880 N.3   124  ARG124     -0.1245
    111  CA       -13.7010   -8.8320  -12.5530 C.3   124  ARG124      0.1563
    112  C        -12.2200   -8.8460  -12.9070 C.2   124  ARG124      0.2260
    113  O        -11.7930   -9.1900  -14.0430 O.2   124  ARG124     -0.2867
    114  CB       -14.2880  -10.2430  -12.5310 C.3   124  ARG124      0.0307
    115  CG       -15.6060  -10.2480  -11.7690 C.3   124  ARG124      0.0489
    116  CD       -16.4430  -11.4360  -12.0780 C.3   124  ARG124      0.2205
    117  NE       -16.0590  -12.7030  -11.4460 N.pl3 124  ARG124     -0.0865
    118  CZ       -16.1970  -13.0250  -10.1540 C.cat 124  ARG124      0.5346
    119  NH1      -16.5700  -12.1430   -9.2420 N.pl3 124  ARG124      0.1354
    120  NH2      -15.9040  -14.2490   -9.7540 N.pl3 124  ARG124      0.1354
    121  N         -8.4990  -10.2310  -11.9550 N.3   126  TYR126     -0.1241
    122  CA        -7.7410  -11.3530  -11.4160 C.3   126  TYR126      0.1605
    123  C         -6.2670  -11.0090  -11.4600 C.2   126  TYR126      0.2264
    124  O         -5.7360  -10.6900  -12.5190 O.2   126  TYR126     -0.2867
    125  CB        -7.9630  -12.6330  -12.2210 C.3   126  TYR126      0.0534
    126  CG        -9.3860  -13.1210  -12.3290 C.ar  126  TYR126     -0.0201
    127  CD1      -10.3130  -12.4690  -13.1480 C.ar  126  TYR126     -0.0009
    128  CD2       -9.7990  -14.2710  -11.6720 C.ar  126  TYR126     -0.0009
    129  CE1      -11.6000  -12.9370  -13.2740 C.ar  126  TYR126      0.0417
    130  CE2      -11.1060  -14.7530  -11.8090 C.ar  126  TYR126      0.0417
    131  CZ       -11.9870  -14.0750  -12.6140 C.ar  126  TYR126      0.1957
    132  OH       -13.2760  -14.5240  -12.7410 O.3   126  TYR126     -0.2866
@<TRIPOS>BOND
     1    69    70    2
     2    69    68    1
     3    67    68    1
     4    68    71    1
     5    71    72    1
     6    72    73    1
     7    79    78    2
     8    76    77    1
     9    73    75   am
    10    73    74    2
    11    87    86    2
    12    78    77    1
    13    84    85    1
    14    77    80    1
    15    86    85    1
    16    85    88    1
    17    80    81    1
    18    80    82    1
    19    88    89    1
    20    93    92    1
    21    81    83    1
    22    89    90    1
    23    90    91    1
    24    92    91    2
    25    92    94    1
    26   104   103    1
    27   104   105    2
    28   103   102    1
    29   103   106    1
    30    23    22    1
    31    30    29    1
    32   106   107    1
    33   101    99    1
    34    96    97    1
    35    96    95    1
    36    96    99    1
    37    97    98    2
    38    20    22   ar
    39    20    18   ar
    40   107   109    1
    41   107   108    1
    42    22    21   ar
    43    99   100    1
    44    58    57    1
    45    44    43    1
    46    18    17   ar
    47    29    31    1
    48    29    28    1
    49    59    60    1
    50    56    55    2
    51    55    54    1
    52    27    26    2
    53    25    28    1
    54    25    26    1
    55    25    24    1
    56    21    19   ar
    57    51    50    1
    58    57    54    1
    59    46    47    1
    60    54    53    1
    61    17    19   ar
    62    17    16    1
    63    43    45    1
    64    43    40    1
    65    41    42    2
    66    41    40    1
    67    60    61    1
    68    60    63    1
    69    61    62    2
    70    64    63    1
    71    64    66    1
    72    64    65    1
    73    40    39    1
    74    50    47    1
    75    50    52    1
    76    15    14    2
    77   113   112    2
    78    16    13    1
    79    47    48    1
    80    13    14    1
    81    13    12    1
    82   110   111    1
    83   129   127   ar
    84   129   131   ar
    85   127   126   ar
    86   112   111    1
    87   132   131    1
    88    49    48    2
    89   131   130   ar
    90   111   114    1
    91   114   115    1
    92   124   123    2
    93   126   125    1
    94   126   128   ar
    95   125   122    1
    96     9     7   ar
    97     9    11   ar
    98   116   115    1
    99   116   117    1
   100   121   122    1
   101   130   128   ar
   102     7     6   ar
   103   123   122    1
   104   117   118    2
   105    11    10   ar
   106     4     3    2
   107     2     1    1
   108     2     3    1
   109     2     5    1
   110     6     5    1
   111     6     8   ar
   112   118   120    1
   113   118   119    1
   114    10     8   ar
   115    36    37    1
   116    36    33    1
   117    37    38    1
   118    35    34    2
   119    34    33    1
   120    33    32    1
   121    38    32    1
