@<TRIPOS>MOLECULE
tmp/5ggiB04.pdb
 113 108 0 0 0
SMALL
GASTEIGER

@<TRIPOS>ATOM
      1  N         43.3580  140.1760   67.4690 N.3   351  PRO351     -0.2116
      2  CA        43.6010  140.4120   66.0330 C.3   351  PRO351      0.1372
      3  C         43.8390  139.1500   65.2210 C.2   351  PRO351      0.2244
      4  O         43.5330  139.1470   64.0230 O.2   351  PRO351     -0.2868
      5  CB        44.8450  141.3230   66.0270 C.3   351  PRO351      0.0268
      6  CG        44.9580  141.8440   67.4370 C.3   351  PRO351      0.0207
      7  CD        44.4130  140.7610   68.3140 C.3   351  PRO351      0.0892
      8  N         45.9850  136.5600   62.9720 N.3   353  LEU353     -0.1245
      9  CA        47.0320  136.7580   61.9640 C.3   353  LEU353      0.1561
     10  C         48.4290  136.6320   62.5750 C.2   353  LEU353      0.2260
     11  O         49.2460  137.5550   62.5390 O.2   353  LEU353     -0.2867
     12  CB        46.8620  138.1070   61.2550 C.3   353  LEU353      0.0270
     13  CG        45.5430  138.3100   60.5010 C.3   353  LEU353      0.0019
     14  CD1       45.4380  139.7190   59.9530 C.3   353  LEU353      0.0001
     15  CD2       45.3940  137.2930   59.3820 C.3   353  LEU353      0.0001
     16  N         31.9130  132.9980   62.2960 N.3   378  ASP378     -0.1239
     17  CA        33.3550  133.1200   62.1690 C.3   378  ASP378      0.1674
     18  C         33.9850  132.8860   63.5330 C.2   378  ASP378      0.2266
     19  O         33.5200  133.4360   64.5380 O.2   378  ASP378     -0.2867
     20  CB        33.7420  134.4930   61.6210 C.3   378  ASP378      0.1410
     21  CG        33.2690  134.7040   60.1990 C.2   378  ASP378      0.3668
     22  OD1       32.2410  135.3850   60.0120 O.co2 378  ASP378     -0.2456
     23  OD2       33.9210  134.1810   59.2680 O.co2 378  ASP378     -0.2456
     24  N         36.8650  133.8040   64.7850 N.3   380  ASP380     -0.1225
     25  CA        37.5510  134.9450   65.3850 C.3   380  ASP380      0.1805
     26  C         36.5760  136.0330   65.8250 C.2   380  ASP380      0.2597
     27  O         36.7920  136.6770   66.8560 O.2   380  ASP380     -0.2718
     28  CB        38.5780  135.5100   64.4060 C.3   380  ASP380      0.1424
     29  CG        37.9930  135.7720   63.0340 C.2   380  ASP380      0.3668
     30  OD1       36.9880  135.1250   62.6650 O.co2 380  ASP380     -0.2456
     31  OD2       38.5500  136.6250   62.3190 O.co2 380  ASP380     -0.2456
     32  N         35.5100  136.2650   65.0570 N.am  381  MET381     -0.1979
     33  CA        34.4750  137.1810   65.5230 C.3   381  MET381      0.1605
     34  C         33.7970  136.6550   66.7790 C.2   381  MET381      0.2287
     35  O         33.3750  137.4430   67.6330 O.2   381  MET381     -0.2864
     36  CB        33.4430  137.4190   64.4240 C.3   381  MET381      0.0413
     37  CG        33.9600  138.2600   63.2760 C.3   381  MET381      0.0598
     38  SD        34.3100  139.9480   63.8020 S.3   381  MET381     -0.1393
     39  CE        35.1350  140.6000   62.3550 C.3   381  MET381      0.0692
     40  N         36.0000  137.2470   69.7810 N.3   384  ARG384     -0.1245
     41  CA        36.0120  138.6570   70.1430 C.3   384  ARG384      0.1563
     42  C         34.7270  139.1020   70.8340 C.2   384  ARG384      0.2260
     43  O         34.6320  140.2630   71.2420 O.2   384  ARG384     -0.2867
     44  CB        36.2800  139.5150   68.8980 C.3   384  ARG384      0.0307
     45  CG        37.7170  139.3990   68.3870 C.3   384  ARG384      0.0489
     46  CD        38.0140  140.3990   67.2840 C.3   384  ARG384      0.2205
     47  NE        37.5170  139.9460   65.9890 N.pl3 384  ARG384     -0.0865
     48  CZ        38.2940  139.5270   64.9950 C.cat 384  ARG384      0.5346
     49  NH1       39.6120  139.5110   65.1370 N.pl3 384  ARG384      0.1354
     50  NH2       37.7510  139.1310   63.8540 N.pl3 384  ARG384      0.1354
     51  N         36.7890  135.3350   52.4180 N.3   411  ASN411     -0.1225
     52  CA        36.2030  136.6700   52.5090 C.3   411  ASN411      0.1785
     53  C         37.0570  137.7210   51.8090 C.2   411  ASN411      0.2597
     54  O         36.9240  138.9150   52.0970 O.2   411  ASN411     -0.2718
     55  CB        35.9910  137.0680   53.9730 C.3   411  ASN411      0.1169
     56  CG        35.0690  136.1190   54.7160 C.2   411  ASN411      0.2627
     57  OD1       35.4400  135.5530   55.7450 O.2   411  ASN411     -0.2716
     58  ND2       33.8570  135.9470   54.2010 N.am  411  ASN411     -0.0877
     59  N         37.9320  137.3080   50.8980 N.am  412  MET412     -0.1979
     60  CA        38.9220  138.1980   50.3120 C.3   412  MET412      0.1605
     61  C         38.7620  138.2600   48.7980 C.2   412  MET412      0.2287
     62  O         38.4510  137.2540   48.1510 O.2   412  MET412     -0.2864
     63  CB        40.3400  137.7400   50.6710 C.3   412  MET412      0.0413
     64  CG        41.4180  138.7710   50.3810 C.3   412  MET412      0.0598
     65  SD        41.1840  140.2900   51.3150 S.3   412  MET412     -0.1393
     66  CE        41.1520  139.6450   52.9870 C.3   412  MET412      0.0692
     67  N         39.4270  144.4740   47.9880 N.3   416  PHE416     -0.1241
     68  CA        39.4600  144.4380   49.4460 C.3   416  PHE416      0.1605
     69  C         40.8980  144.3910   49.9530 C.2   416  PHE416      0.2264
     70  O         41.2350  145.0340   50.9540 O.2   416  PHE416     -0.2867
     71  CB        38.6660  143.2340   49.9570 C.3   416  PHE416      0.0534
     72  CG        38.3810  143.2680   51.4370 C.ar  416  PHE416     -0.0203
     73  CD1       38.4770  144.4500   52.1550 C.ar  416  PHE416     -0.0042
     74  CD2       38.0200  142.1120   52.1090 C.ar  416  PHE416     -0.0042
     75  CE1       38.2200  144.4780   53.5120 C.ar  416  PHE416     -0.0003
     76  CE2       37.7580  142.1370   53.4640 C.ar  416  PHE416     -0.0003
     77  CZ        37.8590  143.3210   54.1670 C.ar  416  PHE416     -0.0000
     78  N         45.0740  146.0920   53.0000 N.3   421  PHE421     -0.1241
     79  CA        46.1640  145.2100   53.4040 C.3   421  PHE421      0.1605
     80  C         47.4680  145.4620   52.6540 C.2   421  PHE421      0.2264
     81  O         48.5480  145.1760   53.1840 O.2   421  PHE421     -0.2867
     82  CB        45.7420  143.7500   53.2330 C.3   421  PHE421      0.0534
     83  CG        44.6450  143.3250   54.1670 C.ar  421  PHE421     -0.0203
     84  CD1       43.3140  143.4170   53.7820 C.ar  421  PHE421     -0.0042
     85  CD2       44.9430  142.8400   55.4310 C.ar  421  PHE421     -0.0042
     86  CE1       42.3010  143.0270   54.6410 C.ar  421  PHE421     -0.0003
     87  CE2       43.9340  142.4480   56.2930 C.ar  421  PHE421     -0.0003
     88  CZ        42.6100  142.5430   55.8970 C.ar  421  PHE421     -0.0000
     89  N         42.2000  151.3770   59.0060 N.3   504  TRP504     -0.1241
     90  CA        41.0800  150.4520   59.1390 C.3   504  TRP504      0.1605
     91  C         39.8690  151.1670   59.7310 C.2   504  TRP504      0.2264
     92  O         39.9290  151.6910   60.8490 O.2   504  TRP504     -0.2867
     93  CB        41.4640  149.2540   60.0010 C.3   504  TRP504      0.0550
     94  CG        40.3720  148.2290   60.0660 C.ar  504  TRP504      0.0003
     95  CD1       39.3530  148.1720   60.9730 C.ar  504  TRP504      0.0946
     96  CD2       40.1760  147.1250   59.1740 C.ar  504  TRP504      0.0152
     97  NE1       38.5420  147.0980   60.7070 N.ar  504  TRP504     -0.2442
     98  CE2       39.0240  146.4380   59.6080 C.ar  504  TRP504      0.0810
     99  CE3       40.8640  146.6490   58.0540 C.ar  504  TRP504      0.0012
    100  CZ2       38.5450  145.3000   58.9600 C.ar  504  TRP504      0.0191
    101  CZ3       40.3870  145.5170   57.4140 C.ar  504  TRP504      0.0001
    102  CH2       39.2400  144.8560   57.8690 C.ar  504  TRP504      0.0015
    103  N         38.7280  149.3210   65.8530 N.3   509  ARG509     -0.1245
    104  CA        39.9090  148.5390   66.1860 C.3   509  ARG509      0.1563
    105  C         41.0190  149.4610   66.6720 C.2   509  ARG509      0.2260
    106  O         41.0860  150.6360   66.2940 O.2   509  ARG509     -0.2867
    107  CB        40.3860  147.7150   64.9850 C.3   509  ARG509      0.0307
    108  CG        39.6670  146.3890   64.8490 C.3   509  ARG509      0.0489
    109  CD        39.8650  145.7570   63.4880 C.3   509  ARG509      0.2205
    110  NE        39.0960  144.5210   63.3670 N.pl3 509  ARG509     -0.0865
    111  CZ        39.1850  143.6820   62.3410 C.cat 509  ARG509      0.5346
    112  NH1       40.0180  143.9410   61.3450 N.pl3 509  ARG509      0.1354
    113  NH2       38.4450  142.5800   62.3110 N.pl3 509  ARG509      0.1354
@<TRIPOS>BOND
     1    67    68    1
     2    62    61    2
     3    61    60    1
     4    68    69    1
     5    68    71    1
     6    69    70    2
     7    71    72    1
     8    60    63    1
     9    60    59    1
    10    64    63    1
    11    64    65    1
    12    59    53   am
    13    65    66    1
    14    72    74   ar
    15    72    73   ar
    16    53    54    2
    17    53    52    1
    18    74    76   ar
    19    73    75   ar
    20    51    52    1
    21    52    55    1
    22    80    81    2
    23    80    79    1
    24    78    79    1
    25    82    79    1
    26    82    83    1
    27    76    77   ar
    28    75    77   ar
    29    84    83   ar
    30    84    86   ar
    31    55    56    1
    32    83    85   ar
    33    58    56   am
    34    86    88   ar
    35    56    57    2
    36    85    87   ar
    37    88    87   ar
    38   101   102   ar
    39   101    99   ar
    40   102   100   ar
    41    99    96   ar
    42   100    98   ar
    43    89    90    1
    44    90    91    1
    45    90    93    1
    46    96    98   ar
    47    96    94   ar
    48    23    21   ar
    49    15    13    1
    50    98    97   ar
    51    91    92    2
    52    14    13    1
    53    93    94    1
    54    22    21   ar
    55    94    95   ar
    56    21    20    1
    57    13    12    1
    58    97    95   ar
    59    12     9    1
    60   112   111    1
    61    20    17    1
    62     9    10    1
    63     9     8    1
    64    17    16    1
    65    17    18    1
    66   113   111    1
    67    31    29   ar
    68   111   110    2
    69    39    38    1
    70    11    10    2
    71    30    29   ar
    72    29    28    1
    73    37    38    1
    74    37    36    1
    75   110   109    1
    76   109   108    1
    77    18    19    2
    78    50    48    1
    79     4     3    2
    80    28    25    1
    81    36    33    1
    82    24    25    1
    83   108   107    1
    84   107   104    1
    85    48    49    1
    86    48    47    2
    87    32    33    1
    88    32    26   am
    89     3     2    1
    90    25    26    1
    91    33    34    1
    92    26    27    2
    93   103   104    1
    94    47    46    1
    95     5     2    1
    96     5     6    1
    97     2     1    1
    98   104   105    1
    99   106   105    2
   100    34    35    2
   101    46    45    1
   102     6     7    1
   103     1     7    1
   104    45    44    1
   105    44    41    1
   106    40    41    1
   107    41    42    1
   108    42    43    2
