@<TRIPOS>MOLECULE
tmp/5ggiB02.pdb
 161 155 0 0 0
SMALL
GASTEIGER

@<TRIPOS>ATOM
      1  N         47.6690  126.5510   59.7180 N.3   211  ILE211     -0.1231
      2  CA        46.3210  126.2470   59.2520 C.3   211  ILE211      0.1692
      3  C         46.2880  126.4500   57.7430 C.2   211  ILE211      0.2592
      4  O         46.5400  127.5580   57.2520 O.2   211  ILE211     -0.2718
      5  CB        45.2700  127.1260   59.9490 C.3   211  ILE211      0.0266
      6  CG1       45.5080  127.1590   61.4640 C.3   211  ILE211      0.0019
      7  CG2       43.8760  126.6150   59.6430 C.3   211  ILE211      0.0020
      8  CD1       45.3730  125.8150   62.1420 C.3   211  ILE211      0.0001
      9  N         45.9750  125.3860   57.0040 N.am  212  ALA212     -0.1966
     10  CA        46.0080  125.4220   55.5510 C.3   212  ALA212      0.1728
     11  C         44.7490  124.7980   54.9630 C.2   212  ALA212      0.2617
     12  O         44.1690  123.8660   55.5260 O.2   212  ALA212     -0.2715
     13  CB        47.2470  124.7030   55.0060 C.3   212  ALA212      0.0334
     14  N         44.3280  125.3390   53.8220 N.am  213  GLY213     -0.1940
     15  CA        43.2880  124.7400   53.0110 C.3   213  GLY213      0.2014
     16  C         43.8820  124.1600   51.7440 C.2   213  GLY213      0.2639
     17  O         44.8570  123.4050   51.8120 O.2   213  GLY213     -0.2714
     18  N         43.3320  124.5070   50.5850 N.am  214  ASN214     -0.1958
     19  CA        43.8660  124.0480   49.3040 C.3   214  ASN214      0.1819
     20  C         44.3640  125.2620   48.5170 C.2   214  ASN214      0.2621
     21  O         43.7770  125.6500   47.5050 O.2   214  ASN214     -0.2715
     22  CB        42.8190  123.2440   48.5080 C.3   214  ASN214      0.1195
     23  CG        43.3460  122.7860   47.1530 C.2   214  ASN214      0.2630
     24  OD1       44.5550  122.5680   46.9860 O.2   214  ASN214     -0.2716
     25  ND2       42.4420  122.6250   46.1840 N.am  214  ASN214     -0.0877
     26  N         45.4520  125.8670   48.9930 N.am  215  ARG215     -0.1977
     27  CA        46.1400  126.9490   48.2860 C.3   215  ARG215      0.1597
     28  C         47.6410  126.6850   48.3360 C.2   215  ARG215      0.2287
     29  O         48.3820  127.3690   49.0510 O.2   215  ARG215     -0.2864
     30  CB        45.7910  128.3100   48.8920 C.3   215  ARG215      0.0334
     31  CG        44.3310  128.7140   48.7120 C.3   215  ARG215      0.0492
     32  CD        44.0340  130.0630   49.3570 C.3   215  ARG215      0.2205
     33  NE        44.2310  130.0430   50.8080 N.pl3 215  ARG215     -0.0865
     34  CZ        44.0000  131.0790   51.6110 C.cat 215  ARG215      0.5346
     35  NH1       43.5640  132.2270   51.1100 N.pl3 215  ARG215      0.1354
     36  NH2       44.2040  130.9700   52.9160 N.pl3 215  ARG215      0.1354
     37  N         42.9000  121.2460   55.6380 N.3   242  ASP242     -0.1239
     38  CA        41.4580  121.0260   55.7490 C.3   242  ASP242      0.1674
     39  C         40.9710  120.3300   54.4810 C.2   242  ASP242      0.2266
     40  O         40.4230  120.9410   53.5610 O.2   242  ASP242     -0.2867
     41  CB        40.7350  122.3460   55.9830 C.3   242  ASP242      0.1410
     42  CG        39.2390  122.1720   56.1690 C.2   242  ASP242      0.3668
     43  OD1       38.8090  121.0850   56.6110 O.co2 242  ASP242     -0.2456
     44  OD2       38.4940  123.1300   55.8750 O.co2 242  ASP242     -0.2456
     45  N         31.4860  126.2990   54.5400 N.3   268  LYS268     -0.1245
     46  CA        31.8830  127.7040   54.5950 C.3   268  LYS268      0.1561
     47  C         32.5080  128.0990   55.9340 C.2   268  LYS268      0.2260
     48  O         33.4440  127.4310   56.3850 O.2   268  LYS268     -0.2867
     49  CB        30.7070  128.6100   54.2260 C.3   268  LYS268      0.0271
     50  CG        30.3160  128.3740   52.7710 C.3   268  LYS268      0.0035
     51  CD        28.9830  128.9570   52.3260 C.3   268  LYS268      0.0206
     52  CE        27.7510  128.6960   53.1520 C.3   268  LYS268      0.1093
     53  NZ        27.4280  127.3150   53.4670 N.3   268  LYS268     -0.1314
     54  N         32.8480  125.4220   58.3840 N.3   271  ARG271     -0.1231
     55  CA        33.9140  124.4790   58.0620 C.3   271  ARG271      0.1694
     56  C         35.2600  124.9690   58.5870 C.2   271  ARG271      0.2591
     57  O         36.0200  124.2020   59.1900 O.2   271  ARG271     -0.2718
     58  CB        33.9640  124.2520   56.5490 C.3   271  ARG271      0.0321
     59  CG        35.1990  123.5090   56.0500 C.3   271  ARG271      0.0489
     60  CD        35.0970  123.2160   54.5540 C.3   271  ARG271      0.2205
     61  NE        36.3570  122.7330   53.9960 N.pl3 271  ARG271     -0.0865
     62  CZ        36.5040  122.2860   52.7520 C.cat 271  ARG271      0.5346
     63  NH1       35.4630  122.2510   51.9290 N.pl3 271  ARG271      0.1354
     64  NH2       37.6910  121.8650   52.3310 N.pl3 271  ARG271      0.1354
     65  N         35.5680  126.2500   58.3680 N.am  272  VAL272     -0.1980
     66  CA        36.8260  126.8110   58.8590 C.3   272  VAL272      0.1595
     67  C         36.8860  126.7250   60.3770 C.2   272  VAL272      0.2287
     68  O         37.9040  126.3260   60.9560 O.2   272  VAL272     -0.2864
     69  CB        36.9930  128.2630   58.3740 C.3   272  VAL272      0.0276
     70  CG1       38.2310  128.8940   59.0020 C.3   272  VAL272      0.0022
     71  CG2       37.0720  128.3100   56.8560 C.3   272  VAL272      0.0022
     72  N         37.6410  123.2890   61.5560 N.3   275  HIS275     -0.1226
     73  CA        39.0320  122.9630   61.2580 C.3   275  HIS275      0.1752
     74  C         39.9690  123.5540   62.3060 C.2   275  HIS275      0.2596
     75  O         40.9540  122.9180   62.7000 O.2   275  HIS275     -0.2718
     76  CB        39.3930  123.4600   59.8570 C.3   275  HIS275      0.0759
     77  CG        40.7950  123.1440   59.4360 C.ar  275  HIS275      0.0818
     78  ND1       41.3550  121.8930   59.5800 N.ar  275  HIS275     -0.2268
     79  CD2       41.7460  123.9150   58.8560 C.ar  275  HIS275      0.1154
     80  CE1       42.5920  121.9090   59.1160 C.ar  275  HIS275      0.1986
     81  NE2       42.8540  123.1240   58.6690 N.ar  275  HIS275     -0.2212
     82  N         39.6750  124.7700   62.7760 N.am  276  TYR276     -0.1976
     83  CA        40.4950  125.3830   63.8170 C.3   276  TYR276      0.1639
     84  C         40.4480  124.5730   65.1030 C.2   276  TYR276      0.2290
     85  O         41.4870  124.2710   65.7030 O.2   276  TYR276     -0.2864
     86  CB        40.0320  126.8130   64.0760 C.3   276  TYR276      0.0560
     87  CG        40.8470  127.8340   63.3350 C.ar  276  TYR276     -0.0198
     88  CD1       40.6150  128.0940   61.9870 C.ar  276  TYR276     -0.0009
     89  CD2       41.8590  128.5300   63.9770 C.ar  276  TYR276     -0.0009
     90  CE1       41.3660  129.0190   61.3080 C.ar  276  TYR276      0.0417
     91  CE2       42.6160  129.4620   63.3060 C.ar  276  TYR276      0.0417
     92  CZ        42.3650  129.7030   61.9730 C.ar  276  TYR276      0.1957
     93  OH        43.1160  130.6340   61.3030 O.3   276  TYR276     -0.2866
     94  N         48.3200  131.2480   59.8210 N.3   297  GLU297     -0.1231
     95  CA        47.6140  130.8680   58.6100 C.3   297  GLU297      0.1699
     96  C         48.5780  130.8560   57.4270 C.2   297  GLU297      0.2592
     97  O         49.6560  131.4550   57.4670 O.2   297  GLU297     -0.2718
     98  CB        46.4360  131.8110   58.3630 C.3   297  GLU297      0.0402
     99  CG        45.2940  131.5320   59.3170 C.3   297  GLU297      0.1161
    100  CD        44.1010  132.4510   59.1350 C.2   297  GLU297      0.3649
    101  OE1       42.9720  132.0160   59.4610 O.co2 297  GLU297     -0.2457
    102  OE2       44.2880  133.6000   58.6770 O.co2 297  GLU297     -0.2457
    103  N         48.1820  130.1440   56.3700 N.am  298  GLU298     -0.1966
    104  CA        49.0820  129.8550   55.2570 C.3   298  GLU298      0.1733
    105  C         49.2800  131.0250   54.3000 C.2   298  GLU298      0.2616
    106  O         50.0820  130.9040   53.3700 O.2   298  GLU298     -0.2715
    107  CB        48.5650  128.6600   54.4590 C.3   298  GLU298      0.0429
    108  CG        47.2830  128.9670   53.7130 C.3   298  GLU298      0.1163
    109  CD        46.7460  127.7820   52.9460 C.2   298  GLU298      0.3649
    110  OE1       47.5390  126.8700   52.6280 O.co2 298  GLU298     -0.2457
    111  OE2       45.5290  127.7650   52.6600 O.co2 298  GLU298     -0.2457
    112  N         48.5700  132.1380   54.4780 N.am  299  ASP299     -0.1971
    113  CA        48.6900  133.2850   53.5860 C.3   299  ASP299      0.1709
    114  C         49.3710  134.4730   54.2650 C.2   299  ASP299      0.2293
    115  O         49.0820  135.6310   53.9490 O.2   299  ASP299     -0.2864
    116  CB        47.3180  133.6830   53.0380 C.3   299  ASP299      0.1436
    117  CG        46.3090  133.9790   54.1300 C.2   299  ASP299      0.3671
    118  OD1       46.4460  133.4300   55.2420 O.co2 299  ASP299     -0.2456
    119  OD2       45.3670  134.7560   53.8700 O.co2 299  ASP299     -0.2456
    120  N         49.7900  139.9310   55.3950 N.3   404  HIS404     -0.1241
    121  CA        48.7390  139.1640   54.7320 C.3   404  HIS404      0.1621
    122  C         48.8070  139.3990   53.2230 C.2   404  HIS404      0.2264
    123  O         48.5550  140.5110   52.7510 O.2   404  HIS404     -0.2867
    124  CB        47.3720  139.5570   55.2830 C.3   404  HIS404      0.0745
    125  CG        46.2550  138.6910   54.7920 C.ar  404  HIS404      0.0817
    126  ND1       45.7610  138.7710   53.5080 N.ar  404  HIS404     -0.2268
    127  CD2       45.5330  137.7300   55.4140 C.ar  404  HIS404      0.1154
    128  CE1       44.7850  137.8940   53.3590 C.ar  404  HIS404      0.1986
    129  NE2       44.6260  137.2500   54.5020 N.ar  404  HIS404     -0.2212
    130  N         47.2260  136.9280   51.0730 N.3   406  GLY406     -0.1225
    131  CA        46.2260  136.0650   50.4710 C.3   406  GLY406      0.1811
    132  C         45.0990  136.7990   49.7690 C.2   406  GLY406      0.2280
    133  O         44.0590  137.0680   50.3720 O.2   406  GLY406     -0.2866
    134  N         40.5980  134.1020   48.8370 N.3   409  GLY409     -0.1210
    135  CA        40.2280  133.3620   50.0220 C.3   409  GLY409      0.1956
    136  C         38.7300  133.3780   50.2270 C.2   409  GLY409      0.2612
    137  O         37.9600  133.6190   49.2950 O.2   409  GLY409     -0.2717
    138  N         38.3230  133.1300   51.4720 N.am  410  LEU410     -0.1965
    139  CA        36.9040  132.9780   51.7710 C.3   410  LEU410      0.1728
    140  C         36.1900  134.3260   51.7780 C.2   410  LEU410      0.2616
    141  O         35.1000  134.4630   51.2110 O.2   410  LEU410     -0.2715
    142  CB        36.7310  132.2620   53.1100 C.3   410  LEU410      0.0311
    143  CG        35.3070  132.1500   53.6600 C.3   410  LEU410      0.0022
    144  CD1       34.6300  130.9010   53.1220 C.3   410  LEU410      0.0001
    145  CD2       35.3200  132.1380   55.1780 C.3   410  LEU410      0.0001
    146  N         36.7890  135.3350   52.4180 N.am  411  ASN411     -0.1958
    147  CA        36.2030  136.6700   52.5090 C.3   411  ASN411      0.1819
    148  C         37.0570  137.7210   51.8090 C.2   411  ASN411      0.2621
    149  O         36.9240  138.9150   52.0970 O.2   411  ASN411     -0.2715
    150  CB        35.9910  137.0680   53.9730 C.3   411  ASN411      0.1195
    151  CG        35.0690  136.1190   54.7160 C.2   411  ASN411      0.2630
    152  OD1       35.4400  135.5530   55.7450 O.2   411  ASN411     -0.2716
    153  ND2       33.8570  135.9470   54.2010 N.am  411  ASN411     -0.0877
    154  N         37.9320  137.3080   50.8980 N.am  412  MET412     -0.1977
    155  CA        38.9220  138.1980   50.3120 C.3   412  MET412      0.1605
    156  C         38.7620  138.2600   48.7980 C.2   412  MET412      0.2287
    157  O         38.4510  137.2540   48.1510 O.2   412  MET412     -0.2864
    158  CB        40.3400  137.7400   50.6710 C.3   412  MET412      0.0413
    159  CG        41.4180  138.7710   50.3810 C.3   412  MET412      0.0598
    160  SD        41.1840  140.2900   51.3150 S.3   412  MET412     -0.1393
    161  CE        41.1520  139.6450   52.9870 C.3   412  MET412      0.0692
@<TRIPOS>BOND
     1    25    23   am
     2    24    23    2
     3    23    22    1
     4    21    20    2
     5   157   156    2
     6    27    28    1
     7    27    30    1
     8    27    26    1
     9    28    29    2
    10    22    19    1
    11    20    26   am
    12    20    19    1
    13    31    30    1
    14    31    32    1
    15   156   155    1
    16   134   135    1
    17   137   136    2
    18    19    18    1
    19    32    33    1
    20   132   133    2
    21   132   131    1
    22   135   136    1
    23   136   138   am
    24   155   158    1
    25   155   154    1
    26   159   158    1
    27   159   160    1
    28   131   130    1
    29    18    16   am
    30    33    34    2
    31   154   148   am
    32    35    34    1
    33   141   140    2
    34   160   161    1
    35   138   139    1
    36    34    36    1
    37    16    17    2
    38    16    15    1
    39   139   140    1
    40   139   142    1
    41   140   146   am
    42   148   149    2
    43   148   147    1
    44    63    62    1
    45    51    50    1
    46    51    52    1
    47    64    62    1
    48   146   147    1
    49   147   150    1
    50   110   109   ar
    51   111   109   ar
    52   123   122    2
    53    62    61    2
    54    50    49    1
    55   109   108    1
    56    15    14    1
    57   116   113    1
    58   116   117    1
    59   142   143    1
    60   144   143    1
    61    52    53    1
    62   122   121    1
    63   128   126   ar
    64   128   129   ar
    65   106   105    2
    66   126   125   ar
    67    40    39    2
    68   113   114    1
    69   113   112    1
    70   143   145    1
    71   108   107    1
    72    14    11   am
    73   119   117   ar
    74   115   114    2
    75   150   151    1
    76    61    60    1
    77   117   118   ar
    78   153   151   am
    79    49    46    1
    80   105   112   am
    81   105   104    1
    82   107   104    1
    83    39    38    1
    84   129   127   ar
    85    45    46    1
    86    60    59    1
    87    46    47    1
    88   151   152    2
    89   121   124    1
    90   121   120    1
    91   125   124    1
    92   125   127   ar
    93    11    12    2
    94    11    10    1
    95    13    10    1
    96   104   103    1
    97    10     9    1
    98    37    38    1
    99    38    41    1
   100    44    42   ar
   101    47    48    2
   102    41    42    1
   103    59    58    1
   104    42    43   ar
   105   103    96   am
   106    58    55    1
   107    71    69    1
   108     9     3   am
   109     4     3    2
   110    96    97    2
   111    96    95    1
   112     3     2    1
   113    55    54    1
   114    55    56    1
   115    98    95    1
   116    98    99    1
   117    65    56   am
   118    65    66    1
   119    69    66    1
   120    69    70    1
   121    56    57    2
   122    95    94    1
   123    81    79   ar
   124    81    80   ar
   125   102   100   ar
   126    79    77   ar
   127    66    67    1
   128    80    78   ar
   129   100    99    1
   130   100   101   ar
   131     2     1    1
   132     2     5    1
   133    77    78   ar
   134    77    76    1
   135     7     5    1
   136    76    73    1
   137     5     6    1
   138    67    68    2
   139    73    72    1
   140    73    74    1
   141    93    92    1
   142    90    92   ar
   143    90    88   ar
   144     6     8    1
   145    92    91   ar
   146    88    87   ar
   147    74    75    2
   148    74    82   am
   149    82    83    1
   150    91    89   ar
   151    87    89   ar
   152    87    86    1
   153    83    86    1
   154    83    84    1
   155    84    85    2
