@<TRIPOS>MOLECULE
tmp/5ggiB00.pdb
 96 97 0 0 0
SMALL
GASTEIGER

@<TRIPOS>ATOM
      1  N         35.8170  132.1570   33.9650 N.3    33  ARG33      -0.1245
      2  CA        36.0580  133.0440   32.8370 C.3    33  ARG33       0.1563
      3  C         37.5520  133.3030   32.6900 C.2    33  ARG33       0.2260
      4  O         38.2620  133.5110   33.6780 O.2    33  ARG33      -0.2867
      5  CB        35.3070  134.3670   33.0190 C.3    33  ARG33       0.0307
      6  CG        35.9050  135.5450   32.2430 C.3    33  ARG33       0.0489
      7  CD        35.1390  136.8240   32.4680 C.3    33  ARG33       0.2205
      8  NE        35.4250  137.3740   33.7890 N.pl3  33  ARG33      -0.0865
      9  CZ        34.5990  138.1680   34.4640 C.cat  33  ARG33       0.5346
     10  NH1       33.4250  138.5020   33.9360 N.pl3  33  ARG33       0.1354
     11  NH2       34.9570  138.6140   35.6640 N.pl3  33  ARG33       0.1354
     12  N         40.2000  138.8690   31.6050 N.3    56  TYR56      -0.1227
     13  CA        39.2260  139.9430   31.4640 C.3    56  TYR56       0.1736
     14  C         39.4570  141.0290   32.5110 C.2    56  TYR56       0.2596
     15  O         39.1670  142.2070   32.2650 O.2    56  TYR56      -0.2718
     16  CB        37.8160  139.3490   31.5650 C.3    56  TYR56       0.0548
     17  CG        36.6720  140.3390   31.6360 C.ar   56  TYR56      -0.0200
     18  CD1       36.0360  140.7780   30.4820 C.ar   56  TYR56      -0.0009
     19  CD2       36.2000  140.8040   32.8610 C.ar   56  TYR56      -0.0009
     20  CE1       34.9780  141.6710   30.5430 C.ar   56  TYR56       0.0417
     21  CE2       35.1470  141.6980   32.9300 C.ar   56  TYR56       0.0417
     22  CZ        34.5390  142.1270   31.7690 C.ar   56  TYR56       0.1957
     23  OH        33.4890  143.0160   31.8340 O.3    56  TYR56      -0.2866
     24  N         40.0140  140.6500   33.6970 N.am   57  SER57      -0.1938
     25  CA        40.2480  141.5200   34.8410 C.3    57  SER57       0.2040
     26  C         41.6910  142.0130   34.8730 C.2    57  SER57       0.2485
     27  O         42.5980  141.3400   34.3710 O.2    57  SER57      -0.2729
     28  CB        39.9350  140.7870   36.1480 C.3    57  SER57       0.2129
     29  OG        38.5890  140.3510   36.1750 O.3    57  SER57      -0.2179
     30  N         41.9230  143.1880   35.4600 N.am   58  PRO58      -0.2726
     31  CA        43.2900  143.7170   35.5400 C.3    58  PRO58       0.1402
     32  C         44.2230  142.7990   36.3170 C.2    58  PRO58       0.2269
     33  O         43.8010  142.0370   37.1890 O.2    58  PRO58      -0.2865
     34  CB        43.1070  145.0580   36.2620 C.3    58  PRO58       0.0296
     35  CG        41.6970  145.4470   35.9850 C.3    58  PRO58       0.0237
     36  CD        40.9230  144.1630   35.9290 C.3    58  PRO58       0.0939
     37  N         40.2900  141.1930   27.4630 N.3    87  PHE87      -0.1227
     38  CA        40.0020  142.5690   27.8670 C.3    87  PHE87       0.1736
     39  C         41.2260  143.2420   28.4800 C.2    87  PHE87       0.2595
     40  O         41.5860  144.3620   28.0980 O.2    87  PHE87      -0.2718
     41  CB        38.8270  142.6010   28.8470 C.3    87  PHE87       0.0547
     42  CG        38.1530  143.9450   28.9430 C.ar   87  PHE87      -0.0202
     43  CD1       38.3240  144.8980   27.9480 C.ar   87  PHE87      -0.0042
     44  CD2       37.3510  144.2610   30.0310 C.ar   87  PHE87      -0.0042
     45  CE1       37.7020  146.1410   28.0360 C.ar   87  PHE87      -0.0003
     46  CE2       36.7270  145.5050   30.1260 C.ar   87  PHE87      -0.0003
     47  CZ        36.9040  146.4440   29.1270 C.ar   87  PHE87      -0.0000
     48  N         41.8840  142.5750   29.4240 N.am   88  HIS88      -0.1975
     49  CA        43.0780  143.1140   30.0660 C.3    88  HIS88       0.1656
     50  C         44.2880  142.2200   29.8220 C.2    88  HIS88       0.2291
     51  O         45.1150  141.9960   30.7080 O.2    88  HIS88      -0.2864
     52  CB        42.8440  143.3320   31.5570 C.3    88  HIS88       0.0771
     53  CG        42.0660  144.5720   31.8600 C.ar   88  HIS88       0.0820
     54  ND1       40.6880  144.6050   31.8590 N.ar   88  HIS88      -0.2267
     55  CD2       42.4720  145.8310   32.1490 C.ar   88  HIS88       0.1154
     56  CE1       40.2790  145.8280   32.1450 C.ar   88  HIS88       0.1986
     57  NE2       41.3420  146.5910   32.3270 N.ar   88  HIS88      -0.2212
     58  N         38.1890  140.7300   21.6540 N.3   110  TRP110     -0.1227
     59  CA        37.0650  140.7010   22.5810 C.3   110  TRP110      0.1737
     60  C         36.1390  139.5320   22.2640 C.2   110  TRP110      0.2595
     61  O         35.5420  139.4760   21.1850 O.2   110  TRP110     -0.2718
     62  CB        36.3150  142.0330   22.5070 C.3   110  TRP110      0.0564
     63  CG        35.0430  142.1250   23.3120 C.ar  110  TRP110      0.0003
     64  CD1       33.7670  141.9660   22.8470 C.ar  110  TRP110      0.0946
     65  CD2       34.9240  142.4320   24.7080 C.ar  110  TRP110      0.0152
     66  NE1       32.8640  142.1420   23.8680 N.ar  110  TRP110     -0.2442
     67  CE2       33.5470  142.4290   25.0210 C.ar  110  TRP110      0.0810
     68  CE3       35.8460  142.7010   25.7250 C.ar  110  TRP110      0.0012
     69  CZ2       33.0710  142.6830   26.3080 C.ar  110  TRP110      0.0191
     70  CZ3       35.3720  142.9550   27.0040 C.ar  110  TRP110      0.0001
     71  CH2       33.9970  142.9430   27.2830 C.ar  110  TRP110      0.0015
     72  N         36.0550  138.5870   23.2050 N.am  111  ARG111     -0.1980
     73  CA        35.1450  137.4380   23.1720 C.3   111  ARG111      0.1597
     74  C         35.4820  136.4360   22.0750 C.2   111  ARG111      0.2287
     75  O         34.6210  135.6510   21.6650 O.2   111  ARG111     -0.2864
     76  CB        33.6840  137.8750   23.0350 C.3   111  ARG111      0.0334
     77  CG        33.1270  138.5620   24.2580 C.3   111  ARG111      0.0492
     78  CD        31.6530  138.7360   24.0950 C.3   111  ARG111      0.2205
     79  NE        31.0170  139.2840   25.2910 N.pl3 111  ARG111     -0.0865
     80  CZ        29.9510  140.0840   25.2680 C.cat 111  ARG111      0.5346
     81  NH1       29.4260  140.5260   26.4070 N.pl3 111  ARG111      0.1354
     82  NH2       29.4100  140.4250   24.1050 N.pl3 111  ARG111      0.1354
     83  N         30.9080  143.1160   18.6510 N.3   135  LEU135     -0.1231
     84  CA        31.1770  143.0830   20.0900 C.3   135  LEU135      0.1693
     85  C         30.0030  142.5280   20.8860 C.2   135  LEU135      0.2592
     86  O         30.2070  141.8620   21.9060 O.2   135  LEU135     -0.2718
     87  CB        31.5370  144.4770   20.6060 C.3   135  LEU135      0.0284
     88  CG        32.6420  145.2380   19.8700 C.3   135  LEU135      0.0019
     89  CD1       32.8890  146.5880   20.5410 C.3   135  LEU135      0.0001
     90  CD2       33.9260  144.4110   19.8280 C.3   135  LEU135      0.0001
     91  N         28.7820  142.7920   20.4500 N.am  136  SER136     -0.1952
     92  CA        27.6040  142.2880   21.1450 C.3   136  SER136      0.1924
     93  C         27.4370  140.7660   21.0340 C.2   136  SER136      0.2314
     94  O         26.4040  140.2630   21.5140 O.2   136  SER136     -0.2863
     95  CB        26.3590  142.9960   20.6110 C.3   136  SER136      0.2116
     96  OG        26.3520  143.0130   19.1940 O.3   136  SER136     -0.2180
@<TRIPOS>BOND
     1    83    84    1
     2    96    95    1
     3    90    88    1
     4    88    89    1
     5    88    87    1
     6    84    87    1
     7    84    85    1
     8    91    85   am
     9    91    92    1
    10    95    92    1
    11    85    86    2
    12    93    92    1
    13    93    94    2
    14    61    60    2
    15    58    59    1
    16    75    74    2
    17    74    73    1
    18    60    59    1
    19    60    72   am
    20    62    59    1
    21    62    63    1
    22    64    63   ar
    23    64    66   ar
    24    76    73    1
    25    76    77    1
    26    73    72    1
    27    63    65   ar
    28    66    67   ar
    29    78    77    1
    30    78    79    1
    31    82    80    1
    32    65    67   ar
    33    65    68   ar
    34    67    69   ar
    35    80    79    2
    36    80    81    1
    37    68    70   ar
    38    69    71   ar
    39    70    71   ar
    40    37    38    1
    41    38    39    1
    42    38    41    1
    43    43    45   ar
    44    43    42   ar
    45    45    47   ar
    46    40    39    2
    47    39    48   am
    48    41    42    1
    49    42    44   ar
    50    47    46   ar
    51    48    49    1
    52    50    49    1
    53    50    51    2
    54    44    46   ar
    55    49    52    1
    56    18    20   ar
    57    18    17   ar
    58    20    22   ar
    59    13    16    1
    60    13    12    1
    61    13    14    1
    62    52    53    1
    63    16    17    1
    64    17    19   ar
    65    22    23    1
    66    22    21   ar
    67    54    53   ar
    68    54    56   ar
    69    53    55   ar
    70    56    57   ar
    71    55    57   ar
    72     6     7    1
    73     6     5    1
    74    15    14    2
    75     7     8    1
    76    14    24   am
    77     3     2    1
    78     3     4    2
    79     2     5    1
    80     2     1    1
    81    19    21   ar
    82    24    25    1
    83     8     9    2
    84    10     9    1
    85    27    26    2
    86     9    11    1
    87    25    26    1
    88    25    28    1
    89    26    30   am
    90    30    31    1
    91    30    36    1
    92    31    34    1
    93    31    32    1
    94    36    35    1
    95    35    34    1
    96    28    29    1
    97    32    33    2
