@<TRIPOS>MOLECULE
tmp/5ggiA00.pdb
 129 125 0 0 0
SMALL
GASTEIGER

@<TRIPOS>ATOM
      1  N         31.1650  154.9970   17.1420 N.3    61  TYR61      -0.1241
      2  CA        29.9100  154.3680   17.5460 C.3    61  TYR61       0.1605
      3  C         29.1920  153.7770   16.3420 C.2    61  TYR61       0.2264
      4  O         28.7150  152.6370   16.3840 O.2    61  TYR61      -0.2867
      5  CB        29.0000  155.3760   18.2500 C.3    61  TYR61       0.0534
      6  CG        29.4340  155.7930   19.6330 C.ar   61  TYR61      -0.0201
      7  CD1       30.5820  155.2750   20.2160 C.ar   61  TYR61      -0.0009
      8  CD2       28.6800  156.7020   20.3660 C.ar   61  TYR61      -0.0009
      9  CE1       30.9730  155.6610   21.4870 C.ar   61  TYR61       0.0417
     10  CE2       29.0610  157.0920   21.6360 C.ar   61  TYR61       0.0417
     11  CZ        30.2050  156.5680   22.1910 C.ar   61  TYR61       0.1957
     12  OH        30.5850  156.9560   23.4540 O.3    61  TYR61      -0.2866
     13  N         30.5860  150.5030   15.1970 N.3    64  ARG64      -0.1245
     14  CA        30.1850  149.4440   16.1180 C.3    64  ARG64       0.1563
     15  C         28.7350  149.0240   15.8810 C.2    64  ARG64       0.2260
     16  O         28.4220  147.8280   15.8250 O.2    64  ARG64      -0.2867
     17  CB        30.3930  149.9110   17.5590 C.3    64  ARG64       0.0307
     18  CG        29.7270  149.0350   18.6040 C.3    64  ARG64       0.0489
     19  CD        30.1320  149.4330   20.0170 C.3    64  ARG64       0.2205
     20  NE        29.3330  148.7320   21.0210 N.pl3  64  ARG64      -0.0865
     21  CZ        29.6470  148.6460   22.3100 C.cat  64  ARG64       0.5346
     22  NH1       30.7570  149.2110   22.7680 N.pl3  64  ARG64       0.1354
     23  NH2       28.8530  147.9850   23.1420 N.pl3  64  ARG64       0.1354
     24  N         23.6470  148.6320   20.0960 N.3   144  ASP144     -0.1239
     25  CA        23.8610  147.2760   19.6220 C.3   144  ASP144      0.1674
     26  C         22.5120  146.6700   19.2500 C.2   144  ASP144      0.2266
     27  O         21.5110  146.8760   19.9420 O.2   144  ASP144     -0.2867
     28  CB        24.5630  146.4280   20.6840 C.3   144  ASP144      0.1410
     29  CG        26.0350  146.7900   20.8460 C.2   144  ASP144      0.3668
     30  OD1       26.7490  146.8750   19.8230 O.co2 144  ASP144     -0.2456
     31  OD2       26.4820  146.9810   21.9980 O.co2 144  ASP144     -0.2456
     32  N         18.6790  143.3450   34.2340 N.3   178  GLU178     -0.1245
     33  CA        19.2470  142.0030   34.2960 C.3   178  GLU178      0.1567
     34  C         18.5560  141.1280   35.3340 C.2   178  GLU178      0.2260
     35  O         18.4690  139.9070   35.1550 O.2   178  GLU178     -0.2867
     36  CB        20.7470  142.0950   34.5930 C.3   178  GLU178      0.0388
     37  CG        21.5040  140.8000   34.3720 C.3   178  GLU178      0.1160
     38  CD        21.4770  140.3570   32.9240 C.2   178  GLU178      0.3649
     39  OE1       21.6500  141.2190   32.0370 O.co2 178  GLU178     -0.2457
     40  OE2       21.2760  139.1480   32.6750 O.co2 178  GLU178     -0.2457
     41  N         20.5610  147.5720   22.7560 N.3   246  TYR246     -0.1241
     42  CA        21.3620  147.9550   23.9120 C.3   246  TYR246      0.1605
     43  C         22.0210  149.2940   23.6280 C.2   246  TYR246      0.2264
     44  O         22.6460  149.4670   22.5780 O.2   246  TYR246     -0.2867
     45  CB        22.4190  146.8870   24.2200 C.3   246  TYR246      0.0534
     46  CG        23.2690  147.1470   25.4470 C.ar  246  TYR246     -0.0201
     47  CD1       22.8260  146.7830   26.7120 C.ar  246  TYR246     -0.0009
     48  CD2       24.5260  147.7300   25.3370 C.ar  246  TYR246     -0.0009
     49  CE1       23.6010  147.0040   27.8330 C.ar  246  TYR246      0.0417
     50  CE2       25.3150  147.9560   26.4560 C.ar  246  TYR246      0.0417
     51  CZ        24.8470  147.5880   27.7040 C.ar  246  TYR246      0.1957
     52  OH        25.6180  147.8050   28.8270 O.3   246  TYR246     -0.2866
     53  N         24.8330  151.7640   24.1230 N.3   248  PHE248     -0.1241
     54  CA        26.2130  151.8050   24.5910 C.3   248  PHE248      0.1605
     55  C         26.8350  153.1940   24.5420 C.2   248  PHE248      0.2264
     56  O         27.9460  153.3700   25.0500 O.2   248  PHE248     -0.2867
     57  CB        27.0930  150.8200   23.7900 C.3   248  PHE248      0.0534
     58  CG        27.2050  151.1360   22.3150 C.ar  248  PHE248     -0.0203
     59  CD1       28.0880  152.1110   21.8560 C.ar  248  PHE248     -0.0042
     60  CD2       26.4480  150.4370   21.3810 C.ar  248  PHE248     -0.0042
     61  CE1       28.1920  152.4010   20.4930 C.ar  248  PHE248     -0.0003
     62  CE2       26.5520  150.7180   20.0140 C.ar  248  PHE248     -0.0003
     63  CZ        27.4230  151.7000   19.5720 C.ar  248  PHE248     -0.0000
     64  N         28.2260  156.4420   25.4680 N.3   250  ILE250     -0.1245
     65  CA        28.5480  157.1680   26.6930 C.3   250  ILE250      0.1561
     66  C         28.6550  158.6740   26.4560 C.2   250  ILE250      0.2260
     67  O         28.3290  159.4660   27.3460 O.2   250  ILE250     -0.2867
     68  CB        29.8460  156.6180   27.3110 C.3   250  ILE250      0.0252
     69  CG1       29.7130  155.1230   27.5870 C.3   250  ILE250      0.0019
     70  CG2       30.1740  157.3420   28.6110 C.3   250  ILE250      0.0019
     71  CD1       28.9970  154.8160   28.8750 C.3   250  ILE250      0.0001
     72  N         25.0020  156.4580   32.7490 N.3   260  HIS260     -0.1226
     73  CA        24.9980  155.1710   32.0590 C.3   260  HIS260      0.1752
     74  C         25.2290  154.0170   33.0270 C.2   260  HIS260      0.2595
     75  O         24.5520  152.9860   32.9510 O.2   260  HIS260     -0.2718
     76  CB        26.0570  155.1580   30.9560 C.3   260  HIS260      0.0759
     77  CG        26.0550  153.9030   30.1400 C.ar  260  HIS260      0.0818
     78  ND1       26.7410  152.7690   30.5190 N.ar  260  HIS260     -0.2268
     79  CD2       25.4480  153.6010   28.9670 C.ar  260  HIS260      0.1154
     80  CE1       26.5510  151.8210   29.6190 C.ar  260  HIS260      0.1986
     81  NE2       25.7740  152.3010   28.6650 N.ar  260  HIS260     -0.2212
     82  N         26.1950  154.1670   33.9350 N.am  261  GLU261     -0.1979
     83  CA        26.4320  153.1290   34.9320 C.3   261  GLU261      0.1602
     84  C         25.2140  152.9250   35.8250 C.2   261  GLU261      0.2287
     85  O         25.0030  151.8250   36.3470 O.2   261  GLU261     -0.2864
     86  CB        27.6630  153.4860   35.7670 C.3   261  GLU261      0.0415
     87  CG        27.9130  152.5730   36.9570 C.3   261  GLU261      0.1163
     88  CD        28.9870  151.5360   36.6890 C.2   261  GLU261      0.3649
     89  OE1       29.9820  151.8760   36.0180 O.co2 261  GLU261     -0.2457
     90  OE2       28.8410  150.3870   37.1570 O.co2 261  GLU261     -0.2457
     91  N         23.7000  150.4140   31.9870 N.3   265  LYS265     -0.1231
     92  CA        24.7140  149.3650   31.9520 C.3   265  LYS265      0.1693
     93  C         24.1170  147.9960   32.2570 C.2   265  LYS265      0.2592
     94  O         24.5080  146.9910   31.6500 O.2   265  LYS265     -0.2718
     95  CB        25.8320  149.7030   32.9370 C.3   265  LYS265      0.0285
     96  CG        27.0370  148.7740   32.8880 C.3   265  LYS265      0.0035
     97  CD        28.0600  149.1780   33.9400 C.3   265  LYS265      0.0206
     98  CE        29.4490  148.6580   33.6100 C.3   265  LYS265      0.1093
     99  NZ        29.5920  147.2080   33.9110 N.3   265  LYS265     -0.1314
    100  N         23.1540  147.9380   33.1730 N.am  266  LYS266     -0.1966
    101  CA        22.5720  146.6770   33.6120 C.3   266  LYS266      0.1728
    102  C         21.3120  146.2960   32.8410 C.2   266  LYS266      0.2616
    103  O         20.6040  145.3740   33.2560 O.2   266  LYS266     -0.2715
    104  CB        22.2670  146.7380   35.1100 C.3   266  LYS266      0.0311
    105  CG        23.4640  146.4110   35.9790 C.3   266  LYS266      0.0038
    106  CD        23.4820  147.2420   37.2470 C.3   266  LYS266      0.0206
    107  CE        24.6840  146.8850   38.1020 C.3   266  LYS266      0.1093
    108  NZ        24.2800  146.1710   39.3410 N.3   266  LYS266     -0.1314
    109  N         21.0200  146.9700   31.7330 N.am  267  HIS267     -0.1973
    110  CA        19.8590  146.6040   30.9320 C.3   267  HIS267      0.1656
    111  C         20.0770  145.2410   30.2840 C.2   267  HIS267      0.2291
    112  O         21.1520  144.9600   29.7480 O.2   267  HIS267     -0.2864
    113  CB        19.5930  147.6640   29.8670 C.3   267  HIS267      0.0771
    114  CG        18.1430  147.9970   29.6990 C.ar  267  HIS267      0.0820
    115  ND1       17.4490  148.7670   30.6070 N.ar  267  HIS267     -0.2267
    116  CD2       17.2540  147.6580   28.7350 C.ar  267  HIS267      0.1154
    117  CE1       16.1960  148.8930   30.2080 C.ar  267  HIS267      0.1986
    118  NE2       16.0510  148.2280   29.0750 N.ar  267  HIS267     -0.2212
    119  N         19.8900  142.2470   27.6290 N.3   269  PHE269     -0.1241
    120  CA        20.0180  142.2040   26.1790 C.3   269  PHE269      0.1605
    121  C         19.8380  140.7630   25.7270 C.2   269  PHE269      0.2264
    122  O         20.5150  139.8640   26.2350 O.2   269  PHE269     -0.2867
    123  CB        21.3880  142.7550   25.7570 C.3   269  PHE269      0.0534
    124  CG        21.5620  142.9270   24.2740 C.ar  269  PHE269     -0.0203
    125  CD1       20.7190  143.7560   23.5490 C.ar  269  PHE269     -0.0042
    126  CD2       22.6100  142.2960   23.6090 C.ar  269  PHE269     -0.0042
    127  CE1       20.8950  143.9310   22.1730 C.ar  269  PHE269     -0.0003
    128  CE2       22.7960  142.4670   22.2400 C.ar  269  PHE269     -0.0003
    129  CZ        21.9340  143.2860   21.5210 C.ar  269  PHE269     -0.0000
@<TRIPOS>BOND
     1    13    14    1
     2    16    15    2
     3    15    14    1
     4    14    17    1
     5     3     4    2
     6     3     2    1
     7     1     2    1
     8     2     5    1
     9    17    18    1
    10     5     6    1
    11    18    19    1
    12    26    25    1
    13    26    27    2
    14    63    62   ar
    15    63    61   ar
    16    25    24    1
    17    25    28    1
    18     6     7   ar
    19     6     8   ar
    20    30    29   ar
    21    62    60   ar
    22    19    20    1
    23     7     9   ar
    24     8    10   ar
    25    61    59   ar
    26    28    29    1
    27    29    31   ar
    28    20    21    2
    29    60    58   ar
    30     9    11   ar
    31   129   127   ar
    32   129   128   ar
    33    10    11   ar
    34    59    58   ar
    35   127   125   ar
    36    11    12    1
    37   128   126   ar
    38    21    22    1
    39    21    23    1
    40    58    57    1
    41    44    43    2
    42    41    42    1
    43   125   124   ar
    44   126   124   ar
    45    43    42    1
    46    57    54    1
    47    42    45    1
    48    53    54    1
    49    45    46    1
    50   124   123    1
    51    55    54    1
    52    55    56    2
    53    48    46   ar
    54    48    50   ar
    55    46    47   ar
    56    64    65    1
    57   121   120    1
    58   121   122    2
    59   123   120    1
    60   120   119    1
    61    50    51   ar
    62    66    65    1
    63    66    67    2
    64    65    68    1
    65    47    49   ar
    66    68    69    1
    67    68    70    1
    68    69    71    1
    69    51    49   ar
    70    51    52    1
    71    81    79   ar
    72    81    80   ar
    73   116   118   ar
    74   116   114   ar
    75    79    77   ar
    76   118   117   ar
    77    80    78   ar
    78   114   113    1
    79   114   115   ar
    80   112   111    2
    81   113   110    1
    82    77    78   ar
    83    77    76    1
    84   117   115   ar
    85   111   110    1
    86   110   109    1
    87    76    73    1
    88    94    93    2
    89   109   102   am
    90    92    91    1
    91    92    93    1
    92    92    95    1
    93    39    38   ar
    94    73    72    1
    95    73    74    1
    96    93   100   am
    97    40    38   ar
    98   102   103    2
    99   102   101    1
   100    96    95    1
   101    96    97    1
   102    38    37    1
   103    75    74    2
   104    74    82   am
   105   100   101    1
   106    98    99    1
   107    98    97    1
   108   101   104    1
   109    82    83    1
   110    32    33    1
   111    33    36    1
   112    33    34    1
   113    37    36    1
   114    83    86    1
   115    83    84    1
   116   104   105    1
   117    35    34    2
   118    86    87    1
   119    84    85    2
   120   105   106    1
   121    89    88   ar
   122    88    87    1
   123    88    90   ar
   124   106   107    1
   125   107   108    1
