@<TRIPOS>MOLECULE
tmp/5ggoB00.pdb
 107 105 0 0 0
SMALL
GASTEIGER

@<TRIPOS>ATOM
      1  N        107.5510   94.2600  101.9670 N.3    29  GLU29      -0.1245
      2  CA       108.6890   94.6560  101.1250 C.3    29  GLU29       0.1567
      3  C        108.2970   94.9630   99.6870 C.2    29  GLU29       0.2260
      4  O        109.1370   94.9160   98.7900 O.2    29  GLU29      -0.2867
      5  CB       109.7750   93.5710  101.1350 C.3    29  GLU29       0.0388
      6  CG       110.3740   93.3180  102.4960 C.3    29  GLU29       0.1160
      7  CD       111.1630   94.4530  103.0660 C.2    29  GLU29       0.3649
      8  OE1      111.5500   95.3960  102.3270 O.co2  29  GLU29      -0.2457
      9  OE2      111.4900   94.3320  104.2560 O.co2  29  GLU29      -0.2457
     10  N        105.9660  100.1770   97.8680 N.3    32  ARG32      -0.1245
     11  CA       106.3820  101.5340   98.2550 C.3    32  ARG32       0.1563
     12  C        106.0900  102.5050   97.1270 C.2    32  ARG32       0.2260
     13  O        106.3030  102.1660   95.9620 O.2    32  ARG32      -0.2867
     14  CB       107.8860  101.5710   98.5760 C.3    32  ARG32       0.0307
     15  CG       108.4100  102.9750   99.0400 C.3    32  ARG32       0.0489
     16  CD       109.9410  102.9020   99.3830 C.3    32  ARG32       0.2205
     17  NE       110.7150  102.2960   98.3170 N.pl3  32  ARG32      -0.0865
     18  CZ       111.7530  101.4900   98.5010 C.cat  32  ARG32       0.5346
     19  NH1      112.1800  101.2300   99.7450 N.pl3  32  ARG32       0.1354
     20  NH2      112.3630  100.9800   97.4410 N.pl3  32  ARG32       0.1354
     21  N        110.3200  106.7950   95.3690 N.3    55  TYR55      -0.1241
     22  CA       111.4980  106.8610   96.2410 C.3    55  TYR55       0.1605
     23  C        112.7750  106.4930   95.4590 C.2    55  TYR55       0.2264
     24  O        113.8680  106.9920   95.7640 O.2    55  TYR55      -0.2867
     25  CB       111.2870  105.8920   97.4280 C.3    55  TYR55       0.0534
     26  CG       112.5570  105.4870   98.1750 C.ar   55  TYR55      -0.0201
     27  CD1      113.0110  106.2340   99.2400 C.ar   55  TYR55      -0.0009
     28  CD2      113.2670  104.3510   97.7990 C.ar   55  TYR55      -0.0009
     29  CE1      114.1720  105.8790   99.9300 C.ar   55  TYR55       0.0417
     30  CE2      114.4310  103.9980   98.4850 C.ar   55  TYR55       0.0417
     31  CZ       114.8530  104.7570   99.5250 C.ar   55  TYR55       0.1957
     32  OH       116.0050  104.3570  100.1760 O.3    55  TYR55      -0.2866
     33  N        104.5200  104.5980  102.4750 N.3    82  ASP82      -0.1225
     34  CA       105.9070  104.7180  102.9620 C.3    82  ASP82       0.1805
     35  C        106.5960  106.0340  102.4830 C.2    82  ASP82       0.2597
     36  O        106.7930  106.9530  103.2570 O.2    82  ASP82      -0.2718
     37  CB       106.7130  103.4490  102.6070 C.3    82  ASP82       0.1424
     38  CG       108.2030  103.5270  103.0370 C.2    82  ASP82       0.3668
     39  OD1      108.6030  104.4700  103.7270 O.co2  82  ASP82      -0.2456
     40  OD2      108.9470  102.6100  102.6470 O.co2  82  ASP82      -0.2456
     41  N        106.9320  106.1130  101.2070 N.am   83  GLU83      -0.1979
     42  CA       107.7730  107.2230  100.7470 C.3    83  GLU83       0.1602
     43  C        107.5660  107.3910   99.2690 C.2    83  GLU83       0.2287
     44  O        107.7780  106.4410   98.5000 O.2    83  GLU83      -0.2864
     45  CB       109.2560  106.9440  101.0600 C.3    83  GLU83       0.0415
     46  CG       110.1080  108.1910  101.4060 C.3    83  GLU83       0.1163
     47  CD       110.0680  109.2270  100.2730 C.2    83  GLU83       0.3649
     48  OE1      110.5520  108.8770   99.1720 O.co2  83  GLU83      -0.2457
     49  OE2      109.5180  110.3270  100.5020 O.co2  83  GLU83      -0.2457
     50  N        111.3580  110.7560   97.2040 N.3    86  PHE86      -0.1241
     51  CA       112.8120  110.9150   97.2550 C.3    86  PHE86       0.1605
     52  C        113.4770  111.1490   95.8650 C.2    86  PHE86       0.2264
     53  O        114.4020  111.9760   95.7780 O.2    86  PHE86      -0.2867
     54  CB       113.4510  109.7040   97.9380 C.3    86  PHE86       0.0534
     55  CG       114.8340  109.9640   98.5040 C.ar   86  PHE86      -0.0203
     56  CD1      115.1490  111.1140   99.2120 C.ar   86  PHE86      -0.0042
     57  CD2      115.7790  108.9680   98.4010 C.ar   86  PHE86      -0.0042
     58  CE1      116.4400  111.2840   99.7960 C.ar   86  PHE86      -0.0003
     59  CE2      117.0690  109.1250   98.9560 C.ar   86  PHE86      -0.0003
     60  CZ       117.3960  110.2860   99.6490 C.ar   86  PHE86      -0.0000
     61  N        110.0760  114.1470  102.1810 N.3   109  TRP109     -0.1227
     62  CA       110.5450  112.8640  102.6750 C.3   109  TRP109      0.1737
     63  C        109.5790  112.2230  103.6690 C.2   109  TRP109      0.2595
     64  O        109.2940  112.7750  104.7190 O.2   109  TRP109     -0.2718
     65  CB       111.9310  113.0490  103.3120 C.3   109  TRP109      0.0564
     66  CG       112.4760  111.8390  104.0560 C.ar  109  TRP109      0.0003
     67  CD1      112.5010  111.6750  105.4160 C.ar  109  TRP109      0.0946
     68  CD2      113.0620  110.6490  103.4880 C.ar  109  TRP109      0.0152
     69  NE1      113.0950  110.4310  105.7240 N.ar  109  TRP109     -0.2442
     70  CE2      113.4230  109.7920  104.5590 C.ar  109  TRP109      0.0810
     71  CE3      113.2990  110.2120  102.1800 C.ar  109  TRP109      0.0012
     72  CZ2      114.0430  108.5560  104.3510 C.ar  109  TRP109      0.0191
     73  CZ3      113.9140  108.9560  101.9790 C.ar  109  TRP109      0.0001
     74  CH2      114.2420  108.1320  103.0650 C.ar  109  TRP109      0.0015
     75  N        109.0900  111.0510  103.2830 N.am  110  ARG110     -0.1980
     76  CA       108.1620  110.2460  104.0930 C.3   110  ARG110      0.1597
     77  C        106.8820  110.9950  104.4170 C.2   110  ARG110      0.2287
     78  O        106.1770  110.6100  105.3280 O.2   110  ARG110     -0.2864
     79  CB       108.8120  109.7060  105.3920 C.3   110  ARG110      0.0334
     80  CG       109.9240  108.7420  105.1010 C.3   110  ARG110      0.0492
     81  CD       110.6050  108.1930  106.3970 C.3   110  ARG110      0.2205
     82  NE       111.4290  107.0780  106.0120 N.pl3 110  ARG110     -0.0865
     83  CZ       112.3580  106.5110  106.7860 C.cat 110  ARG110      0.5346
     84  NH1      113.0960  105.4970  106.3270 N.pl3 110  ARG110      0.1354
     85  NH2      112.5850  107.0320  107.9880 N.pl3 110  ARG110      0.1354
     86  N        113.5490  112.9080  110.0740 N.3   134  LEU134     -0.1245
     87  CA       114.1110  111.9580  109.1360 C.3   134  LEU134      0.1561
     88  C        113.6140  110.5460  109.4220 C.2   134  LEU134      0.2260
     89  O        113.3060  109.7900  108.5080 O.2   134  LEU134     -0.2867
     90  CB       115.6550  111.9780  109.1840 C.3   134  LEU134      0.0270
     91  CG       116.2980  111.1130  108.0910 C.3   134  LEU134      0.0019
     92  CD1      116.1770  111.7670  106.7420 C.3   134  LEU134      0.0001
     93  CD2      117.7580  110.7930  108.4060 C.3   134  LEU134      0.0001
     94  N        107.4780  109.4180  109.8800 N.3   137  TRP137     -0.1241
     95  CA       106.6090  109.5240  108.7300 C.3   137  TRP137      0.1605
     96  C        105.5570  110.6120  109.0030 C.2   137  TRP137      0.2264
     97  O        105.2660  110.9970  110.1480 O.2   137  TRP137     -0.2867
     98  CB       105.9260  108.1660  108.4420 C.3   137  TRP137      0.0550
     99  CG       106.7820  107.2100  107.7210 C.ar  137  TRP137      0.0003
    100  CD1      106.7280  106.9350  106.3700 C.ar  137  TRP137      0.0946
    101  CD2      107.8690  106.4060  108.2350 C.ar  137  TRP137      0.0152
    102  NE1      107.6860  106.0400  106.0330 N.ar  137  TRP137     -0.2442
    103  CE2      108.4050  105.7040  107.1510 C.ar  137  TRP137      0.0810
    104  CE3      108.4430  106.2280  109.5050 C.ar  137  TRP137      0.0012
    105  CZ2      109.4800  104.8120  107.2740 C.ar  137  TRP137      0.0191
    106  CZ3      109.4860  105.3400  109.6330 C.ar  137  TRP137      0.0001
    107  CH2      110.0060  104.6500  108.5200 C.ar  137  TRP137      0.0015
@<TRIPOS>BOND
     1    21    22    1
     2    23    24    2
     3    23    22    1
     4    53    52    2
     5    52    51    1
     6    13    12    2
     7    22    25    1
     8    12    11    1
     9    50    51    1
    10    51    54    1
    11    25    26    1
    12    20    18    1
    13    28    26   ar
    14    28    30   ar
    15    10    11    1
    16    54    55    1
    17    26    27   ar
    18    11    14    1
    19    17    18    2
    20    17    16    1
    21    57    55   ar
    22    57    59   ar
    23    30    31   ar
    24    44    43    2
    25    18    19    1
    26    55    56   ar
    27    14    15    1
    28     4     3    2
    29    59    60   ar
    30    15    16    1
    31    48    47   ar
    32    56    58   ar
    33    27    29   ar
    34    43    42    1
    35    31    29   ar
    36    31    32    1
    37    60    58   ar
    38     3     2    1
    39    47    49   ar
    40    47    46    1
    41    42    45    1
    42    42    41    1
    43    45    46    1
    44     2     5    1
    45     2     1    1
    46     5     6    1
    47    41    35   am
    48    73    71   ar
    49    73    74   ar
    50    71    68   ar
    51    61    62    1
    52     8     7   ar
    53    33    34    1
    54    35    34    1
    55    35    36    2
    56     6     7    1
    57    37    34    1
    58    37    38    1
    59    40    38   ar
    60    62    65    1
    61    62    63    1
    62    38    39   ar
    63    74    72   ar
    64     7     9   ar
    65    75    63   am
    66    75    76    1
    67    65    66    1
    68    68    66   ar
    69    68    70   ar
    70    63    64    2
    71    66    67   ar
    72    76    77    1
    73    76    79    1
    74    72    70   ar
    75    77    78    2
    76    70    69   ar
    77    80    79    1
    78    80    81    1
    79    67    69   ar
    80    82    81    1
    81    82    83    2
    82   102   100   ar
    83   102   103   ar
    84    84    83    1
    85   100    99   ar
    86    92    91    1
    87    83    85    1
    88   103   105   ar
    89   103   101   ar
    90   105   107   ar
    91    99   101   ar
    92    99    98    1
    93    91    93    1
    94    91    90    1
    95   101   104   ar
    96    98    95    1
    97    89    88    2
    98   107   106   ar
    99    95    96    1
   100    95    94    1
   101    96    97    2
   102    87    90    1
   103    87    88    1
   104    87    86    1
   105   104   106   ar
