@<TRIPOS>MOLECULE
tmp/5ggxD00.pdb
 146 145 0 0 0
SMALL
GASTEIGER

@<TRIPOS>ATOM
      1  N         89.5960  -32.2930   -5.2550 N.3    10  ASN10      -0.1225
      2  CA        89.6160  -31.9540   -3.8390 C.3    10  ASN10       0.1785
      3  C         89.8580  -30.4600   -3.6310 C.2    10  ASN10       0.2597
      4  O         90.4970  -29.8080   -4.4580 O.2    10  ASN10      -0.2718
      5  CB        90.6800  -32.7820   -3.1160 C.3    10  ASN10       0.1169
      6  CG        90.3040  -33.0920   -1.6810 C.2    10  ASN10       0.2627
      7  OD1       89.1600  -33.4380   -1.3890 O.2    10  ASN10      -0.2716
      8  ND2       91.2710  -32.9770   -0.7770 N.am   10  ASN10      -0.0877
      9  N         89.3410  -29.9190   -2.5310 N.am   11  TRP11      -0.1976
     10  CA        89.4000  -28.4800   -2.2840 C.3    11  TRP11       0.1640
     11  C         90.8150  -27.9670   -2.0390 C.2    11  TRP11       0.2290
     12  O         91.1380  -26.8400   -2.4130 O.2    11  TRP11      -0.2864
     13  CB        88.5090  -28.1070   -1.0980 C.3    11  TRP11       0.0576
     14  CG        87.0680  -27.9280   -1.4720 C.ar   11  TRP11       0.0006
     15  CD1       86.5420  -27.9290   -2.7320 C.ar   11  TRP11       0.0946
     16  CD2       85.9680  -27.7170   -0.5790 C.ar   11  TRP11       0.0152
     17  NE1       85.1830  -27.7350   -2.6770 N.ar   11  TRP11      -0.2442
     18  CE2       84.8060  -27.6020   -1.3670 C.ar   11  TRP11       0.0810
     19  CE3       85.8520  -27.6190    0.8120 C.ar   11  TRP11       0.0012
     20  CZ2       83.5450  -27.3920   -0.8120 C.ar   11  TRP11       0.0191
     21  CZ3       84.6000  -27.4100    1.3600 C.ar   11  TRP11       0.0001
     22  CH2       83.4640  -27.2990    0.5500 C.ar   11  TRP11       0.0015
     23  N         82.2210  -29.2080   -5.8200 N.3    29  GLU29      -0.1245
     24  CA        81.4570  -28.4060   -4.8580 C.3    29  GLU29       0.1567
     25  C         81.8290  -26.9270   -4.8370 C.2    29  GLU29       0.2260
     26  O         82.2340  -26.4010   -3.8020 O.2    29  GLU29      -0.2867
     27  CB        81.6150  -28.9820   -3.4510 C.3    29  GLU29       0.0388
     28  CG        81.0840  -30.3920   -3.3000 C.3    29  GLU29       0.1160
     29  CD        81.1760  -30.8950   -1.8760 C.2    29  GLU29       0.3649
     30  OE1       80.6970  -30.1880   -0.9640 O.co2  29  GLU29      -0.2457
     31  OE2       81.7260  -31.9960   -1.6690 O.co2  29  GLU29      -0.2457
     32  N         79.5190  -24.8440   -2.4600 N.3    32  SER32      -0.1217
     33  CA        79.8700  -25.0030   -1.0560 C.3    32  SER32       0.1889
     34  C         81.2610  -24.4420   -0.7680 C.2    32  SER32       0.2288
     35  O         81.5760  -24.0880    0.3670 O.2    32  SER32      -0.2866
     36  CB        79.7980  -26.4780   -0.6560 C.3    32  SER32       0.2089
     37  OG        80.1240  -26.6560    0.7100 O.3    32  SER32      -0.2183
     38  N         83.0990  -22.2890    2.7280 N.3    36  TRP36      -0.1241
     39  CA        84.0070  -22.9450    3.6630 C.3    36  TRP36       0.1605
     40  C         85.4780  -22.6030    3.4370 C.2    36  TRP36       0.2264
     41  O         86.2160  -22.3710    4.3950 O.2    36  TRP36      -0.2867
     42  CB        83.8070  -24.4580    3.5950 C.3    36  TRP36       0.0550
     43  CG        82.5180  -24.8910    4.2100 C.ar   36  TRP36       0.0003
     44  CD1       81.3160  -25.0290    3.5840 C.ar   36  TRP36       0.0946
     45  CD2       82.3010  -25.2490    5.5800 C.ar   36  TRP36       0.0152
     46  NE1       80.3610  -25.4450    4.4790 N.ar   36  TRP36      -0.2442
     47  CE2       80.9410  -25.5900    5.7100 C.ar   36  TRP36       0.0810
     48  CE3       83.1250  -25.3150    6.7060 C.ar   36  TRP36       0.0012
     49  CZ2       80.3870  -25.9870    6.9250 C.ar   36  TRP36       0.0191
     50  CZ3       82.5720  -25.7130    7.9100 C.ar   36  TRP36       0.0001
     51  CH2       81.2170  -26.0450    8.0090 C.ar   36  TRP36       0.0015
     52  N         83.4550  -34.0250   -3.7300 N.3    52  ARG52      -0.1231
     53  CA        84.7720  -34.6060   -3.4840 C.3    52  ARG52       0.1694
     54  C         84.7050  -36.1110   -3.2610 C.2    52  ARG52       0.2592
     55  O         85.5690  -36.8540   -3.7240 O.2    52  ARG52      -0.2718
     56  CB        85.4390  -33.9440   -2.2740 C.3    52  ARG52       0.0321
     57  CG        85.9300  -32.5220   -2.4990 C.3    52  ARG52       0.0489
     58  CD        84.8330  -31.4860   -2.2990 C.3    52  ARG52       0.2205
     59  NE        84.1970  -31.5800   -0.9850 N.pl3  52  ARG52      -0.0865
     60  CZ        84.7670  -31.2110    0.1590 C.cat  52  ARG52       0.5346
     61  NH1       86.0030  -30.7330    0.1680 N.pl3  52  ARG52       0.1354
     62  NH2       84.1020  -31.3300    1.3000 N.pl3  52  ARG52       0.1354
     63  N         83.6780  -36.5520   -2.5430 N.am   53  THR53      -0.1953
     64  CA        83.5200  -37.9660   -2.2300 C.3    53  THR53       0.1897
     65  C         82.9660  -38.7460   -3.4170 C.2    53  THR53       0.2313
     66  O         83.3900  -39.8700   -3.6860 O.2    53  THR53      -0.2863
     67  CB        82.5940  -38.1660   -1.0170 C.3    53  THR53       0.1794
     68  OG1       82.9920  -37.2840    0.0380 O.3    53  THR53      -0.2208
     69  CG2       82.6570  -39.6040   -0.5240 C.3    53  THR53       0.0378
     70  N         90.7890  -38.5640   -0.2950 N.3    73  PRO73      -0.2116
     71  CA        89.4100  -39.0650   -0.3320 C.3    73  PRO73       0.1372
     72  C         88.9510  -39.5740   -1.7050 C.2    73  PRO73       0.2244
     73  O         87.8430  -40.1020   -1.8050 O.2    73  PRO73      -0.2868
     74  CB        88.5830  -37.8440    0.0940 C.3    73  PRO73       0.0268
     75  CG        89.4700  -36.6690   -0.1390 C.3    73  PRO73       0.0207
     76  CD        90.8460  -37.1620    0.1500 C.3    73  PRO73       0.0892
     77  N         86.7130  -26.6280   15.4140 N.3   153  ARG153     -0.1245
     78  CA        85.5420  -26.3980   14.5810 C.3   153  ARG153      0.1563
     79  C         84.3690  -27.1030   15.2500 C.2   153  ARG153      0.2260
     80  O         84.5170  -28.2230   15.7380 O.2   153  ARG153     -0.2867
     81  CB        85.7600  -26.9420   13.1650 C.3   153  ARG153      0.0307
     82  CG        86.6130  -26.0640   12.2500 C.3   153  ARG153      0.0489
     83  CD        86.5470  -26.5430   10.8010 C.3   153  ARG153      0.2205
     84  NE        86.9890  -25.5320    9.8420 N.pl3 153  ARG153     -0.0865
     85  CZ        86.2060  -24.6000    9.3120 C.cat 153  ARG153      0.5346
     86  NH1       84.9260  -24.5330    9.6540 N.pl3 153  ARG153      0.1354
     87  NH2       86.7050  -23.7290    8.4440 N.pl3 153  ARG153      0.1354
     88  N         85.4030  -30.2780   17.3290 N.3   161  PHE161     -0.1241
     89  CA        86.5590  -30.8860   16.6790 C.3   161  PHE161      0.1605
     90  C         87.8520  -30.1730   17.0620 C.2   161  PHE161      0.2264
     91  O         88.2070  -29.1620   16.4620 O.2   161  PHE161     -0.2867
     92  CB        86.3950  -30.8580   15.1590 C.3   161  PHE161      0.0534
     93  CG        85.3860  -31.8360   14.6340 C.ar  161  PHE161     -0.0203
     94  CD1       85.3370  -33.1320   15.1160 C.ar  161  PHE161     -0.0042
     95  CD2       84.4810  -31.4560   13.6570 C.ar  161  PHE161     -0.0042
     96  CE1       84.4080  -34.0310   14.6290 C.ar  161  PHE161     -0.0003
     97  CE2       83.5510  -32.3520   13.1680 C.ar  161  PHE161     -0.0003
     98  CZ        83.5140  -33.6400   13.6550 C.ar  161  PHE161     -0.0000
     99  N         93.1040  -36.3160    9.3730 N.3   189  TRP189     -0.1241
    100  CA        92.5470  -34.9860    9.1090 C.3   189  TRP189      0.1605
    101  C         92.9290  -33.9680   10.1860 C.2   189  TRP189      0.2264
    102  O         92.4720  -32.8270   10.1580 O.2   189  TRP189     -0.2867
    103  CB        91.0220  -35.0540    8.9650 C.3   189  TRP189      0.0550
    104  CG        90.5700  -35.8550    7.7810 C.ar  189  TRP189      0.0003
    105  CD1       89.9730  -37.0820    7.8020 C.ar  189  TRP189      0.0946
    106  CD2       90.6800  -35.4870    6.4000 C.ar  189  TRP189      0.0152
    107  NE1       89.7070  -37.5020    6.5210 N.ar  189  TRP189     -0.2442
    108  CE2       90.1310  -36.5400    5.6420 C.ar  189  TRP189      0.0810
    109  CE3       91.1880  -34.3700    5.7320 C.ar  189  TRP189      0.0012
    110  CZ2       90.0760  -36.5100    4.2510 C.ar  189  TRP189      0.0191
    111  CZ3       91.1330  -34.3420    4.3500 C.ar  189  TRP189      0.0001
    112  CH2       90.5810  -35.4050    3.6250 C.ar  189  TRP189      0.0015
    113  N         92.2230  -33.9190   13.3630 N.3   191  ILE191     -0.1245
    114  CA        91.1610  -33.6000   14.3110 C.3   191  ILE191      0.1561
    115  C         90.8540  -34.7160   15.3060 C.2   191  ILE191      0.2260
    116  O         91.1690  -35.8840   15.0750 O.2   191  ILE191     -0.2867
    117  CB        89.8480  -33.2690   13.5870 C.3   191  ILE191      0.0252
    118  CG1       89.3110  -34.5220   12.8940 C.3   191  ILE191      0.0019
    119  CG2       90.0450  -32.1200   12.6080 C.3   191  ILE191      0.0019
    120  CD1       88.0390  -34.3040   12.1500 C.3   191  ILE191      0.0001
    121  N         90.0110  -22.5580    5.2790 N.3   243  TRP243     -0.1241
    122  CA        89.9260  -24.0080    5.2010 C.3   243  TRP243      0.1605
    123  C         91.0560  -24.6810    5.9690 C.2   243  TRP243      0.2264
    124  O         92.2310  -24.5010    5.6540 O.2   243  TRP243     -0.2867
    125  CB        89.9290  -24.4660    3.7450 C.3   243  TRP243      0.0550
    126  CG        89.4910  -25.8820    3.5810 C.ar  243  TRP243      0.0003
    127  CD1       90.1770  -26.8860    2.9670 C.ar  243  TRP243      0.0946
    128  CD2       88.2620  -26.4570    4.0410 C.ar  243  TRP243      0.0152
    129  NE1       89.4530  -28.0530    3.0160 N.ar  243  TRP243     -0.2442
    130  CE2       88.2730  -27.8150    3.6700 C.ar  243  TRP243      0.0810
    131  CE3       87.1530  -25.9540    4.7290 C.ar  243  TRP243      0.0012
    132  CZ2       87.2220  -28.6740    3.9630 C.ar  243  TRP243      0.0191
    133  CZ3       86.1130  -26.8090    5.0190 C.ar  243  TRP243      0.0001
    134  CH2       86.1540  -28.1520    4.6350 C.ar  243  TRP243      0.0015
    135  N         91.8190  -27.7180    6.0650 N.3   245  TYR245     -0.1241
    136  CA        92.3550  -28.8810    5.3670 C.3   245  TYR245      0.1605
    137  C         92.7290  -28.5200    3.9370 C.2   245  TYR245      0.2264
    138  O         92.4350  -29.2630    3.0020 O.2   245  TYR245     -0.2867
    139  CB        91.3430  -30.0260    5.3830 C.3   245  TYR245      0.0534
    140  CG        90.5540  -30.0940    6.6660 C.ar  245  TYR245     -0.0201
    141  CD1       91.1300  -30.5860    7.8290 C.ar  245  TYR245     -0.0009
    142  CD2       89.2370  -29.6590    6.7190 C.ar  245  TYR245     -0.0009
    143  CE1       90.4170  -30.6450    9.0090 C.ar  245  TYR245      0.0417
    144  CE2       88.5140  -29.7150    7.8960 C.ar  245  TYR245      0.0417
    145  CZ        89.1100  -30.2100    9.0380 C.ar  245  TYR245      0.1957
    146  OH        88.4000  -30.2690   10.2140 O.3   245  TYR245     -0.2866
@<TRIPOS>BOND
     1    23    24    1
     2     1     2    1
     3    24    25    1
     4    24    27    1
     5    25    26    2
     6     4     3    2
     7     2     3    1
     8     2     5    1
     9    52    53    1
    10    55    54    2
    11    66    65    2
    12     3     9   am
    13    53    54    1
    14    53    56    1
    15    27    28    1
    16    65    64    1
    17    28    29    1
    18    54    63   am
    19     5     6    1
    20    15    17   ar
    21    15    14   ar
    22    17    18   ar
    23    63    64    1
    24     9    10    1
    25    57    58    1
    26    57    56    1
    27    32    33    1
    28    12    11    2
    29    58    59    1
    30    10    11    1
    31    10    13    1
    32    64    67    1
    33    29    31   ar
    34    29    30   ar
    35    73    72    2
    36    72    71    1
    37     6     7    2
    38     6     8   am
    39    14    13    1
    40    14    16   ar
    41    18    20   ar
    42    18    16   ar
    43    33    34    1
    44    33    36    1
    45    67    69    1
    46    67    68    1
    47    59    60    2
    48    20    22   ar
    49    34    35    2
    50    36    37    1
    51    16    19   ar
    52    71    70    1
    53    71    74    1
    54    70    76    1
    55    75    74    1
    56    75    76    1
    57    60    61    1
    58    60    62    1
    59    22    21   ar
    60    19    21   ar
    61    38    39    1
    62   127   129   ar
    63   127   126   ar
    64   138   137    2
    65   129   130   ar
    66    40    39    1
    67    40    41    2
    68   126   125    1
    69   126   128   ar
    70    44    43   ar
    71    44    46   ar
    72    42    39    1
    73    42    43    1
    74   112   110   ar
    75   112   111   ar
    76   130   132   ar
    77   130   128   ar
    78   125   122    1
    79   137   136    1
    80   132   134   ar
    81   128   131   ar
    82    43    45   ar
    83   110   108   ar
    84   111   109   ar
    85    46    47   ar
    86   134   133   ar
    87   131   133   ar
    88   122   121    1
    89   122   123    1
    90   136   139    1
    91   136   135    1
    92   139   140    1
    93    45    47   ar
    94    45    48   ar
    95   108   106   ar
    96   108   107   ar
    97   124   123    2
    98    47    49   ar
    99   109   106   ar
   100   106   104   ar
   101   107   105   ar
   102   140   142   ar
   103   140   141   ar
   104    48    50   ar
   105   142   144   ar
   106    49    51   ar
   107   104   105   ar
   108   104   103    1
   109   141   143   ar
   110   144   145   ar
   111    50    51   ar
   112    87    85    1
   113   103   100    1
   114   143   145   ar
   115   145   146    1
   116   100    99    1
   117   100   101    1
   118    85    86    1
   119    85    84    2
   120    84    83    1
   121   102   101    2
   122    83    82    1
   123   120   118    1
   124    82    81    1
   125   119   117    1
   126   118   117    1
   127    81    78    1
   128    97    98   ar
   129    97    95   ar
   130   113   114    1
   131   117   114    1
   132    98    96   ar
   133    95    93   ar
   134   114   115    1
   135    78    79    1
   136    78    77    1
   137    96    94   ar
   138    93    94   ar
   139    93    92    1
   140   116   115    2
   141    92    89    1
   142    79    80    2
   143    91    90    2
   144    89    90    1
   145    89    88    1
