@<TRIPOS>MOLECULE
tmp/5ggzB00.pdb
 128 116 0 0 0
SMALL
GASTEIGER

@<TRIPOS>ATOM
      1  N         17.9200   -6.8280  -91.1400 N.3    33  LEU33      -0.1245
      2  CA        18.5760   -6.2480  -92.3100 C.3    33  LEU33       0.1561
      3  C         19.8410   -7.0220  -92.6880 C.2    33  LEU33       0.2260
      4  O         20.1150   -7.2490  -93.8720 O.2    33  LEU33      -0.2867
      5  CB        18.8980   -4.7760  -92.0670 C.3    33  LEU33       0.0270
      6  CG        17.6310   -3.9550  -91.8040 C.3    33  LEU33       0.0019
      7  CD1       17.9780   -2.5220  -91.5150 C.3    33  LEU33       0.0001
      8  CD2       16.6190   -4.0580  -92.9680 C.3    33  LEU33       0.0001
      9  N         18.7760  -10.2860  -94.5150 N.3    36  ASN36      -0.1225
     10  CA        18.4500   -9.9690  -95.8990 C.3    36  ASN36       0.1785
     11  C         19.7280   -9.8030  -96.7120 C.2    36  ASN36       0.2597
     12  O         19.8640  -10.3710  -97.7980 O.2    36  ASN36      -0.2718
     13  CB        17.5900   -8.7020  -95.9850 C.3    36  ASN36       0.1169
     14  CG        16.1390   -8.9390  -95.5530 C.2    36  ASN36       0.2627
     15  OD1       15.7200  -10.0760  -95.3230 O.2    36  ASN36      -0.2716
     16  ND2       15.3680   -7.8600  -95.4500 N.am   36  ASN36      -0.0877
     17  N         20.6750   -9.0440  -96.1790 N.am   37  SER37      -0.1952
     18  CA        21.9450   -8.8560  -96.8710 C.3    37  SER37       0.1924
     19  C         22.6100  -10.2040  -97.1350 C.2    37  SER37       0.2314
     20  O         23.0790  -10.4690  -98.2520 O.2    37  SER37      -0.2863
     21  CB        22.8870   -7.9620  -96.0680 C.3    37  SER37       0.2116
     22  OG        22.5220   -6.5940  -96.1880 O.3    37  SER37      -0.2180
     23  N         21.2790  -13.1880  -97.4290 N.3    39  ASP39      -0.1225
     24  CA        20.5780  -13.9420  -98.4680 C.3    39  ASP39       0.1805
     25  C         20.8880  -13.4000  -99.8650 C.2    39  ASP39       0.2597
     26  O         20.9950  -14.1700 -100.8240 O.2    39  ASP39      -0.2718
     27  CB        19.0670  -13.9200  -98.2540 C.3    39  ASP39       0.1424
     28  CG        18.6410  -14.5950  -96.9590 C.2    39  ASP39       0.3668
     29  OD1       19.4840  -15.2650  -96.3120 O.co2  39  ASP39      -0.2456
     30  OD2       17.4550  -14.4390  -96.5870 O.co2  39  ASP39      -0.2456
     31  N         20.9950  -12.0770  -99.9870 N.am   40  ALA40      -0.1979
     32  CA        21.2610  -11.4640 -101.2840 C.3    40  ALA40       0.1597
     33  C         22.6900  -11.7600 -101.7380 C.2    40  ALA40       0.2287
     34  O         22.9460  -11.8830 -102.9390 O.2    40  ALA40      -0.2864
     35  CB        21.0100   -9.9490 -101.2400 C.3    40  ALA40       0.0319
     36  N         23.0050  -15.3470 -102.9080 N.3    43  LYS43      -0.1245
     37  CA        22.4290  -15.4580 -104.2370 C.3    43  LYS43       0.1561
     38  C         23.4260  -15.0820 -105.3330 C.2    43  LYS43       0.2260
     39  O         23.6030  -15.8380 -106.2650 O.2    43  LYS43      -0.2867
     40  CB        21.1660  -14.5950 -104.3560 C.3    43  LYS43       0.0271
     41  CG        20.5240  -14.6180 -105.7330 C.3    43  LYS43       0.0035
     42  CD        20.1970  -16.0440 -106.1860 C.3    43  LYS43       0.0206
     43  CE        19.2130  -16.0630 -107.3560 C.3    43  LYS43       0.1093
     44  NZ        18.8680  -17.4520 -107.7850 N.3    43  LYS43      -0.1314
     45  N         22.9130    0.5370  -94.1990 N.3    76  ILE76      -0.1245
     46  CA        23.4300   -0.8240  -94.3670 C.3    76  ILE76       0.1561
     47  C         23.6170   -1.0520  -95.8500 C.2    76  ILE76       0.2260
     48  O         22.6560   -0.9620  -96.5930 O.2    76  ILE76      -0.2867
     49  CB        22.4820   -1.9180  -93.7710 C.3    76  ILE76       0.0252
     50  CG1       22.3040   -1.7350  -92.2610 C.3    76  ILE76       0.0019
     51  CG2       23.0240   -3.3200  -94.0600 C.3    76  ILE76       0.0019
     52  CD1       21.2850   -0.6660  -91.8680 C.3    76  ILE76       0.0001
     53  N         25.1500   -3.6570  -98.9280 N.3    78  ASP78      -0.1239
     54  CA        25.7280   -4.9420  -99.2730 C.3    78  ASP78       0.1674
     55  C         25.9970   -5.0010 -100.7730 C.2    78  ASP78       0.2266
     56  O         25.5390   -4.1460 -101.5380 O.2    78  ASP78      -0.2867
     57  CB        24.8320   -6.1150  -98.8040 C.3    78  ASP78       0.1410
     58  CG        23.4900   -6.1820  -99.5340 C.2    78  ASP78       0.3668
     59  OD1       23.4780   -6.4440 -100.7660 O.co2  78  ASP78      -0.2456
     60  OD2       22.4410   -6.0020  -98.8660 O.co2  78  ASP78      -0.2456
     61  N         23.0320   -9.6770 -104.8550 N.3    81  ILE81      -0.1231
     62  CA        22.4180   -9.7320 -106.1790 C.3    81  ILE81       0.1692
     63  C         21.6670   -8.4350 -106.5540 C.2    81  ILE81       0.2593
     64  O         21.5470   -8.1070 -107.7340 O.2    81  ILE81      -0.2718
     65  CB        21.4590  -10.9390 -106.2650 C.3    81  ILE81       0.0266
     66  CG1       21.0240  -11.2080 -107.7180 C.3    81  ILE81       0.0019
     67  CG2       20.2630  -10.7280 -105.3740 C.3    81  ILE81       0.0020
     68  CD1       22.0830  -11.8200 -108.5600 C.3    81  ILE81       0.0001
     69  N         21.1960   -7.6840 -105.5570 N.am   82  GLY82      -0.1942
     70  CA        20.4240   -6.4810 -105.8100 C.3    82  GLY82       0.2014
     71  C         19.0070   -6.7630 -106.3050 C.2    82  GLY82       0.2638
     72  O         18.5800   -7.9170 -106.3950 O.2    82  GLY82      -0.2714
     73  N         18.2660   -5.7040 -106.6140 N.am   83  MET83      -0.1976
     74  CA        16.8890   -5.8440 -107.0850 C.3    83  MET83       0.1605
     75  C         16.6600   -5.1020 -108.3970 C.2    83  MET83       0.2287
     76  O         17.0780   -3.9580 -108.5460 O.2    83  MET83      -0.2864
     77  CB        15.9090   -5.3260 -106.0230 C.3    83  MET83       0.0413
     78  CG        15.6940   -6.2920 -104.8700 C.3    83  MET83       0.0598
     79  SD        14.8020   -5.5460 -103.4840 S.3    83  MET83      -0.1393
     80  CE        16.0350   -4.3600 -102.9260 C.3    83  MET83       0.0692
     81  N         11.5080   -6.3510 -109.1000 N.3    87  ASP87      -0.1239
     82  CA        11.7810   -6.9670 -107.8100 C.3    87  ASP87       0.1674
     83  C         11.4300   -5.9990 -106.6970 C.2    87  ASP87       0.2266
     84  O         10.6930   -6.3520 -105.7750 O.2    87  ASP87      -0.2867
     85  CB        13.2600   -7.3740 -107.6910 C.3    87  ASP87       0.1410
     86  CG        13.5960   -8.6560 -108.4400 C.2    87  ASP87       0.3668
     87  OD1       12.7740   -9.6030 -108.4290 O.co2  87  ASP87      -0.2456
     88  OD2       14.7050   -8.7210 -109.0210 O.co2  87  ASP87      -0.2456
     89  N          8.5850   -5.4200 -102.3740 N.3    92  LEU92      -0.1245
     90  CA         8.6480   -4.3810 -101.3630 C.3    92  LEU92       0.1561
     91  C          7.4650   -3.4170 -101.4110 C.2    92  LEU92       0.2260
     92  O          7.6560   -2.1960 -101.4080 O.2    92  LEU92      -0.2867
     93  CB         9.9510   -3.5910 -101.5040 C.3    92  LEU92       0.0270
     94  CG        10.6240   -3.2260 -100.1940 C.3    92  LEU92       0.0019
     95  CD1       10.8460   -4.4980  -99.3920 C.3    92  LEU92       0.0001
     96  CD2       11.9190   -2.5230 -100.4680 C.3    92  LEU92       0.0001
     97  N         12.0560   -7.0180  -93.1420 N.3   123  PHE123     -0.1241
     98  CA        12.4690   -5.6740  -93.5540 C.3   123  PHE123      0.1605
     99  C         11.6720   -4.6000  -92.8490 C.2   123  PHE123      0.2264
    100  O         12.2360   -3.5900  -92.4670 O.2   123  PHE123     -0.2867
    101  CB        12.3490   -5.4670  -95.0790 C.3   123  PHE123      0.0534
    102  CG        12.3010   -4.0020  -95.5010 C.ar  123  PHE123     -0.0203
    103  CD1       13.4560   -3.2310  -95.5450 C.ar  123  PHE123     -0.0042
    104  CD2       11.0910   -3.4040  -95.8510 C.ar  123  PHE123     -0.0042
    105  CE1       13.4110   -1.8860  -95.9370 C.ar  123  PHE123     -0.0003
    106  CE2       11.0400   -2.0800  -96.2600 C.ar  123  PHE123     -0.0003
    107  CZ        12.2040   -1.3170  -96.2930 C.ar  123  PHE123     -0.0000
    108  N         15.4700    2.9010  -99.8370 N.3   135  VAL135     -0.1245
    109  CA        16.2580    1.7810 -100.3300 C.3   135  VAL135      0.1561
    110  C         16.7940    2.0830 -101.7350 C.2   135  VAL135      0.2260
    111  O         16.0180    2.3020 -102.6670 O.2   135  VAL135     -0.2867
    112  CB        15.4420    0.4830 -100.3450 C.3   135  VAL135      0.0252
    113  CG1       16.2980   -0.6690 -100.8320 C.3   135  VAL135      0.0019
    114  CG2       14.8640    0.1820  -98.9390 C.3   135  VAL135      0.0019
    115  N         22.3520   -3.7040 -102.5860 N.3   169  THR169     -0.1218
    116  CA        21.2570   -2.9750 -101.9500 C.3   169  THR169      0.1862
    117  C         21.7320   -2.1690 -100.7480 C.2   169  THR169      0.2287
    118  O         22.5270   -2.6410  -99.9350 O.2   169  THR169     -0.2866
    119  CB        20.1230   -3.9450 -101.5380 C.3   169  THR169      0.1770
    120  OG1       19.5270   -4.4890 -102.7190 O.3   169  THR169     -0.2211
    121  CG2       19.0510   -3.2370 -100.7140 C.3   169  THR169      0.0375
    122  N         20.3390    0.2310  -97.6320 N.3   171  VAL171     -0.1245
    123  CA        19.1960    0.6390  -96.8340 C.3   171  VAL171      0.1561
    124  C         19.5800    1.8120  -95.9290 C.2   171  VAL171      0.2260
    125  O         20.4600    1.6940  -95.0660 O.2   171  VAL171     -0.2867
    126  CB        18.6530   -0.5330  -95.9880 C.3   171  VAL171      0.0252
    127  CG1       17.4360   -0.1020  -95.1800 C.3   171  VAL171      0.0019
    128  CG2       18.3200   -1.7280  -96.9000 C.3   171  VAL171      0.0019
@<TRIPOS>BOND
     1    81    82    1
     2    88    86   ar
     3    68    66    1
     4    76    75    2
     5    86    87   ar
     6    86    85    1
     7    75    74    1
     8    82    85    1
     9    82    83    1
    10    44    43    1
    11    64    63    2
    12    66    65    1
    13    43    42    1
    14    74    73    1
    15    74    77    1
    16    83    84    2
    17    73    71   am
    18    63    62    1
    19    63    69   am
    20    72    71    2
    21    71    70    1
    22    39    38    2
    23    65    62    1
    24    65    67    1
    25    42    41    1
    26    62    61    1
    27    77    78    1
    28    70    69    1
    29    41    40    1
    30    38    37    1
    31    78    79    1
    32    40    37    1
    33    37    36    1
    34    79    80    1
    35    34    33    2
    36   120   119    1
    37   111   110    2
    38   115   116    1
    39    89    90    1
    40   116   119    1
    41   116   117    1
    42    33    32    1
    43   110   109    1
    44   119   121    1
    45    56    55    2
    46    93    90    1
    47    93    94    1
    48    91    92    2
    49    91    90    1
    50    32    35    1
    51    32    31    1
    52   113   112    1
    53    26    25    2
    54    55    54    1
    55    59    58   ar
    56   117   118    2
    57    96    94    1
    58   112   109    1
    59   112   114    1
    60   109   108    1
    61    94    95    1
    62    31    25   am
    63    25    24    1
    64    58    60   ar
    65    58    57    1
    66    54    53    1
    67    54    57    1
    68    24    27    1
    69    24    23    1
    70    27    28    1
    71    20    19    2
    72    12    11    2
    73   122   123    1
    74    19    18    1
    75    28    30   ar
    76    28    29   ar
    77   128   126    1
    78    18    17    1
    79    18    21    1
    80   123   126    1
    81   123   124    1
    82    11    17   am
    83    11    10    1
    84    48    47    2
    85   107   106   ar
    86   107   105   ar
    87   106   104   ar
    88    22    21    1
    89   126   127    1
    90    13    10    1
    91    13    14    1
    92   105   103   ar
    93   124   125    2
    94    10     9    1
    95   104   102   ar
    96    47    46    1
    97    14    16   am
    98    14    15    2
    99   103   102   ar
   100   102   101    1
   101   101    98    1
   102    46    45    1
   103    46    49    1
   104    51    49    1
   105     4     3    2
   106    49    50    1
   107    98    97    1
   108    98    99    1
   109     8     6    1
   110    99   100    2
   111     3     2    1
   112     2     5    1
   113     2     1    1
   114    50    52    1
   115     5     6    1
   116     6     7    1
