@<TRIPOS>MOLECULE
tmp/5ghgB00.pdb
 125 118 0 0 0
SMALL
GASTEIGER

@<TRIPOS>ATOM
      1  N         -9.2690   17.2320  -16.0750 N.3    53  LEU53      -0.1231
      2  CA       -10.2830   18.2140  -16.4750 C.3    53  LEU53       0.1693
      3  C        -11.6510   17.5570  -16.5010 C.2    53  LEU53       0.2591
      4  O        -12.3260   17.5370  -17.5350 O.2    53  LEU53      -0.2718
      5  CB        -9.9520   18.8400  -17.8420 C.3    53  LEU53       0.0284
      6  CG        -8.7180   19.7430  -17.9220 C.3    53  LEU53       0.0019
      7  CD1       -8.4830   20.2940  -19.3240 C.3    53  LEU53       0.0001
      8  CD2       -8.8350   20.8810  -16.9210 C.3    53  LEU53       0.0001
      9  N        -12.0610   17.0180  -15.3500 N.am   54  LEU54      -0.1980
     10  CA       -13.3250   16.3020  -15.1990 C.3    54  LEU54       0.1596
     11  C        -13.4310   15.1360  -16.1730 C.2    54  LEU54       0.2287
     12  O        -14.5220   14.7930  -16.6390 O.2    54  LEU54      -0.2864
     13  CB       -14.5090   17.2660  -15.3440 C.3    54  LEU54       0.0297
     14  CG       -14.5360   18.4730  -14.3970 C.3    54  LEU54       0.0022
     15  CD1      -13.6430   19.6130  -14.9080 C.3    54  LEU54       0.0001
     16  CD2      -15.9580   18.9830  -14.1350 C.3    54  LEU54       0.0001
     17  N        -12.0720   16.5790  -30.3530 N.3   109  SER109     -0.1202
     18  CA       -12.3740   17.3390  -29.1510 C.3   109  SER109      0.2020
     19  C        -13.8690   17.5820  -29.0380 C.2   109  SER109      0.2619
     20  O        -14.6010   17.5210  -30.0230 O.2   109  SER109     -0.2717
     21  CB       -11.6420   18.6960  -29.1740 C.3   109  SER109      0.2103
     22  OG       -12.1280   19.4740  -30.2490 O.3   109  SER109     -0.2182
     23  N        -14.3020   17.9120  -27.8150 N.am  110  GLY110     -0.1942
     24  CA       -15.6720   18.3590  -27.6150 C.3   110  GLY110      0.2014
     25  C        -15.9850   19.6310  -28.3860 C.2   110  GLY110      0.2639
     26  O        -17.0890   19.7880  -28.9130 O.2   110  GLY110     -0.2714
     27  N        -15.0220   20.5550  -28.4600 N.am  111  SER111     -0.1949
     28  CA       -15.1710   21.7620  -29.2350 C.3   111  SER111      0.1924
     29  C        -15.4550   21.4540  -30.7100 C.2   111  SER111      0.2314
     30  O        -16.3560   22.0430  -31.3130 O.2   111  SER111     -0.2863
     31  CB       -13.9030   22.6480  -29.1220 C.3   111  SER111      0.2116
     32  OG       -13.6800   23.0840  -27.7800 O.3   111  SER111     -0.2180
     33  N        -19.1070   19.9800  -31.0360 N.3   114  ASN114     -0.1240
     34  CA       -20.1610   20.9900  -31.0040 C.3   114  ASN114      0.1653
     35  C        -20.1250   21.8780  -32.2380 C.2   114  ASN114      0.2266
     36  O        -21.1740   22.3040  -32.7440 O.2   114  ASN114     -0.2867
     37  CB       -20.0520   21.8160  -29.7280 C.3   114  ASN114      0.1155
     38  CG       -20.6710   21.1120  -28.5360 C.2   114  ASN114      0.2627
     39  OD1      -21.6170   20.3260  -28.7030 O.2   114  ASN114     -0.2716
     40  ND2      -20.1410   21.3590  -27.3430 N.am  114  ASN114     -0.0877
     41  N        -20.8460   25.9990  -21.0480 N.3   143  TYR143     -0.1227
     42  CA       -19.5120   25.8330  -21.6260 C.3   143  TYR143      0.1736
     43  C        -19.5530   24.7270  -22.6650 C.2   143  TYR143      0.2595
     44  O        -19.9340   23.5940  -22.3620 O.2   143  TYR143     -0.2718
     45  CB       -18.4640   25.5070  -20.5620 C.3   143  TYR143      0.0548
     46  CG       -17.0660   25.4930  -21.1250 C.ar  143  TYR143     -0.0200
     47  CD1      -16.5320   24.3430  -21.7020 C.ar  143  TYR143     -0.0009
     48  CD2      -16.2840   26.6430  -21.1100 C.ar  143  TYR143     -0.0009
     49  CE1      -15.2450   24.3320  -22.2410 C.ar  143  TYR143      0.0417
     50  CE2      -14.9970   26.6380  -21.6390 C.ar  143  TYR143      0.0417
     51  CZ       -14.4930   25.4880  -22.2100 C.ar  143  TYR143      0.1957
     52  OH       -13.2140   25.4930  -22.7180 O.3   143  TYR143     -0.2866
     53  N        -19.1440   25.0520  -23.8740 N.am  144  HIS144     -0.1961
     54  CA       -19.3010   24.1450  -24.9920 C.3   144  HIS144      0.1787
     55  C        -18.0610   24.0590  -25.8690 C.2   144  HIS144      0.2621
     56  O        -18.1120   23.4240  -26.9300 O.2   144  HIS144     -0.2715
     57  CB       -20.5310   24.5600  -25.8080 C.3   144  HIS144      0.0785
     58  CG       -21.7780   24.6000  -24.9900 C.ar  144  HIS144      0.0821
     59  ND1      -22.3870   23.4650  -24.5120 N.ar  144  HIS144     -0.2267
     60  CD2      -22.5050   25.6430  -24.5280 C.ar  144  HIS144      0.1154
     61  CE1      -23.4480   23.8080  -23.7920 C.ar  144  HIS144      0.1986
     62  NE2      -23.5400   25.1170  -23.7890 N.ar  144  HIS144     -0.2212
     63  N        -16.9550   24.6560  -25.4490 N.am  145  GLY145     -0.1940
     64  CA       -15.6940   24.5450  -26.1650 C.3   145  GLY145      0.2014
     65  C        -15.2140   25.8880  -26.6700 C.2   145  GLY145      0.2638
     66  O        -15.7350   26.9510  -26.2940 O.2   145  GLY145     -0.2714
     67  N        -14.2040   25.8400  -27.5300 N.am  146  VAL146     -0.1977
     68  CA       -13.3960   27.0210  -27.8150 C.3   146  VAL146      0.1596
     69  C        -13.0970   27.2270  -29.3020 C.2   146  VAL146      0.2287
     70  O        -12.2500   28.0510  -29.6370 O.2   146  VAL146     -0.2864
     71  CB       -12.0800   26.9700  -27.0320 C.3   146  VAL146      0.0276
     72  CG1      -12.3360   26.8770  -25.5360 C.3   146  VAL146      0.0022
     73  CG2      -11.2230   25.7920  -27.5050 C.3   146  VAL146      0.0022
     74  N        -25.7920   21.5720  -21.2260 N.3   217  GLU217     -0.1245
     75  CA       -25.2990   20.5250  -20.3480 C.3   217  GLU217      0.1567
     76  C        -26.3880   20.1700  -19.3340 C.2   217  GLU217      0.2260
     77  O        -27.0490   21.0670  -18.8060 O.2   217  GLU217     -0.2867
     78  CB       -24.0580   21.0010  -19.5920 C.3   217  GLU217      0.0388
     79  CG       -22.9830   21.6220  -20.4630 C.3   217  GLU217      0.1160
     80  CD       -22.1500   22.6560  -19.6970 C.2   217  GLU217      0.3649
     81  OE1      -22.4830   23.8640  -19.7620 O.co2 217  GLU217     -0.2457
     82  OE2      -21.1820   22.2350  -19.0130 O.co2 217  GLU217     -0.2457
     83  N        -17.9430   23.6440  -16.2780 N.3   222  ALA222     -0.1245
     84  CA       -17.0010   24.7570  -16.2160 C.3   222  ALA222      0.1562
     85  C        -17.6410   26.0280  -15.6850 C.2   222  ALA222      0.2260
     86  O        -16.9440   26.8930  -15.1360 O.2   222  ALA222     -0.2867
     87  CB       -16.3920   25.0240  -17.6020 C.3   222  ALA222      0.0290
     88  N        -25.2970   18.3550  -24.2380 N.3   250  ASP250     -0.1239
     89  CA       -23.8400   18.3580  -24.1800 C.3   250  ASP250      0.1674
     90  C        -23.4230   17.5410  -22.9570 C.2   250  ASP250      0.2266
     91  O        -23.4070   18.0540  -21.8360 O.2   250  ASP250     -0.2867
     92  CB       -23.3010   19.7820  -24.1030 C.3   250  ASP250      0.1410
     93  CG       -21.7790   19.8350  -24.2070 C.2   250  ASP250      0.3668
     94  OD1      -21.1380   18.8120  -23.9010 O.co2 250  ASP250     -0.2456
     95  OD2      -21.2390   20.8850  -24.6090 O.co2 250  ASP250     -0.2456
     96  N        -20.4400   16.1350  -22.4470 N.3   252  VAL252     -0.1231
     97  CA       -18.9920   15.9940  -22.4410 C.3   252  VAL252      0.1692
     98  C        -18.4850   15.7230  -21.0170 C.2   252  VAL252      0.2591
     99  O        -17.6180   14.8800  -20.8090 O.2   252  VAL252     -0.2718
    100  CB       -18.3510   17.2380  -23.0860 C.3   252  VAL252      0.0266
    101  CG1      -16.8740   17.3820  -22.7210 C.3   252  VAL252      0.0020
    102  CG2      -18.5120   17.1610  -24.6060 C.3   252  VAL252      0.0020
    103  N        -19.0530   16.3980  -20.0230 N.am  253  ILE253     -0.1980
    104  CA       -18.7050   16.1040  -18.6450 C.3   253  ILE253      0.1595
    105  C        -19.6400   15.0600  -18.0200 C.2   253  ILE253      0.2287
    106  O        -19.1940   14.1680  -17.2910 O.2   253  ILE253     -0.2864
    107  CB       -18.6660   17.3800  -17.7930 C.3   253  ILE253      0.0276
    108  CG1      -17.4290   18.2190  -18.1430 C.3   253  ILE253      0.0022
    109  CG2      -18.6950   17.0160  -16.3120 C.3   253  ILE253      0.0022
    110  CD1      -17.4450   19.6010  -17.5170 C.3   253  ILE253      0.0001
    111  N        -17.3670   13.3460  -24.7780 N.3   278  SER278     -0.1202
    112  CA       -15.9190   13.3440  -24.8420 C.3   278  SER278      0.2020
    113  C        -15.3670   12.9110  -23.4850 C.2   278  SER278      0.2618
    114  O        -16.0840   12.2770  -22.7000 O.2   278  SER278     -0.2717
    115  CB       -15.3890   14.7210  -25.2500 C.3   278  SER278      0.2103
    116  OG       -13.9700   14.6940  -25.4070 O.3   278  SER278     -0.2182
    117  N        -14.1100   13.2360  -23.2080 N.am  279  LYS279     -0.1979
    118  CA       -13.5670   13.1300  -21.8480 C.3   279  LYS279      0.1596
    119  C        -13.6320   11.7220  -21.2970 C.2   279  LYS279      0.2287
    120  O        -12.7520   10.9050  -21.6020 O.2   279  LYS279     -0.2864
    121  CB       -14.2790   14.1010  -20.9160 C.3   279  LYS279      0.0298
    122  CG       -13.8240   15.5500  -21.0940 C.3   279  LYS279      0.0038
    123  CD       -14.5100   16.4370  -20.0580 C.3   279  LYS279      0.0206
    124  CE       -14.5020   17.8930  -20.4890 C.3   279  LYS279      0.1093
    125  NZ       -13.3580   18.6550  -20.0160 N.3   279  LYS279     -0.1314
@<TRIPOS>BOND
     1    36    35    2
     2    35    34    1
     3    30    29    2
     4    33    34    1
     5    34    37    1
     6    29    28    1
     7    17    18    1
     8    22    21    1
     9    20    19    2
    10    37    38    1
    11    70    69    2
    12    69    68    1
    13    28    31    1
    14    28    27    1
    15    21    18    1
    16    18    19    1
    17    31    32    1
    18    19    23   am
    19    26    25    2
    20    39    38    2
    21    38    40   am
    22    27    25   am
    23    25    24    1
    24    68    67    1
    25    68    71    1
    26    23    24    1
    27    67    65   am
    28    73    71    1
    29    71    72    1
    30    56    55    2
    31    65    66    2
    32    65    64    1
    33    64    63    1
    34    55    63   am
    35    55    54    1
    36    57    54    1
    37    57    58    1
    38   116   115    1
    39   115   112    1
    40    54    53    1
    41    58    60   ar
    42    58    59   ar
    43   112   111    1
    44   112   113    1
    45    95    93   ar
    46   102   100    1
    47    60    62   ar
    48    59    61   ar
    49    88    89    1
    50    93    92    1
    51    93    94   ar
    52    89    92    1
    53    89    90    1
    54    53    43   am
    55    61    62   ar
    56   113   117   am
    57   113   114    2
    58   117   118    1
    59   100   101    1
    60   100    97    1
    61    90    91    2
    62    52    51    1
    63    43    44    2
    64    43    42    1
    65    96    97    1
    66    97    98    1
    67    49    51   ar
    68    49    47   ar
    69    51    50   ar
    70   118   119    1
    71   118   121    1
    72    47    46   ar
    73    50    48   ar
    74    42    41    1
    75    42    45    1
    76   120   119    2
    77    74    75    1
    78    46    48   ar
    79    46    45    1
    80   122   121    1
    81   122   123    1
    82    98    99    2
    83    98   103   am
    84   124   123    1
    85   124   125    1
    86    79    80    1
    87    79    78    1
    88    75    78    1
    89    75    76    1
    90   103   104    1
    91    81    80   ar
    92    80    82   ar
    93    76    77    2
    94     7     6    1
    95   104   105    1
    96   104   107    1
    97   108   107    1
    98   108   110    1
    99   105   106    2
   100     6     5    1
   101     6     8    1
   102     5     2    1
   103   107   109    1
   104    87    84    1
   105     4     3    2
   106    12    11    2
   107     3     2    1
   108     3     9   am
   109     2     1    1
   110    83    84    1
   111    84    85    1
   112    11    10    1
   113    85    86    2
   114     9    10    1
   115    13    10    1
   116    13    14    1
   117    15    14    1
   118    14    16    1
