@<TRIPOS>MOLECULE
tmp/5ghqA00.pdb
 189 181 0 0 0
SMALL
GASTEIGER

@<TRIPOS>ATOM
      1  N          2.8100   -2.5900  -13.1760 N.3     7  TYR7       -0.1227
      2  CA         1.9890   -3.7580  -12.9060 C.3     7  TYR7        0.1736
      3  C          2.8900   -4.9800  -12.8500 C.2     7  TYR7        0.2596
      4  O          4.0120   -4.9700  -13.3680 O.2     7  TYR7       -0.2718
      5  CB         0.9680   -3.9930  -14.0180 C.3     7  TYR7        0.0548
      6  CG        -0.0380   -2.8830  -14.2440 C.ar    7  TYR7       -0.0200
      7  CD1        0.3200   -1.7050  -14.9180 C.ar    7  TYR7       -0.0009
      8  CD2       -1.3640   -3.0310  -13.8400 C.ar    7  TYR7       -0.0009
      9  CE1       -0.6120   -0.6860  -15.1420 C.ar    7  TYR7        0.0417
     10  CE2       -2.2970   -2.0310  -14.0680 C.ar    7  TYR7        0.0417
     11  CZ        -1.9200   -0.8660  -14.7250 C.ar    7  TYR7        0.1957
     12  OH        -2.8650    0.1000  -14.9520 O.3     7  TYR7       -0.2866
     13  N          2.3730   -6.0440  -12.2370 N.am    8  THR8       -0.1939
     14  CA         3.0620   -7.3240  -12.1900 C.3     8  THR8        0.2028
     15  C          2.2220   -8.3900  -12.8780 C.2     8  THR8        0.2642
     16  O          1.0040   -8.2650  -13.0200 O.2     8  THR8       -0.2714
     17  CB         3.2950   -7.7720  -10.7540 C.3     8  THR8        0.1808
     18  OG1        2.0350   -7.9190  -10.0830 O.3     8  THR8       -0.2208
     19  CG2        4.1320   -6.7520  -10.0410 C.3     8  THR8        0.0379
     20  N          2.8910   -9.4670  -13.2770 N.am    9  LEU9       -0.1977
     21  CA         2.2130  -10.6300  -13.8290 C.3     9  LEU9        0.1596
     22  C          3.0380  -11.8470  -13.4610 C.2     9  LEU9        0.2287
     23  O          4.2420  -11.8660  -13.7260 O.2     9  LEU9       -0.2864
     24  CB         2.1250  -10.5090  -15.3530 C.3     9  LEU9        0.0297
     25  CG         1.3030  -11.5710  -16.0770 C.3     9  LEU9        0.0022
     26  CD1       -0.1360  -11.5070  -15.6140 C.3     9  LEU9        0.0001
     27  CD2        1.3960  -11.3550  -17.5920 C.3     9  LEU9        0.0001
     28  N        -10.4650  -14.0930  -15.4000 N.3    23  LYS23      -0.1245
     29  CA       -11.1100  -12.9210  -14.8100 C.3    23  LYS23       0.1561
     30  C        -12.6240  -13.0820  -14.8780 C.2    23  LYS23       0.2260
     31  O        -13.1810  -13.3060  -15.9530 O.2    23  LYS23      -0.2867
     32  CB       -10.7030  -11.6280  -15.5160 C.3    23  LYS23       0.0271
     33  CG       -11.3530  -10.4010  -14.8460 C.3    23  LYS23       0.0035
     34  CD       -11.1150   -9.0910  -15.5840 C.3    23  LYS23       0.0206
     35  CE        -9.6720   -8.6360  -15.4720 C.3    23  LYS23       0.1093
     36  NZ        -8.8450   -9.1930  -16.5740 N.3    23  LYS23      -0.1314
     37  N         -5.2680  -15.3850  -17.7060 N.3    33  ASN33      -0.1225
     38  CA        -3.9760  -14.7240  -17.6280 C.3    33  ASN33       0.1785
     39  C         -3.2340  -15.2110  -16.3970 C.2    33  ASN33       0.2597
     40  O         -3.7820  -15.9260  -15.5650 O.2    33  ASN33      -0.2718
     41  CB        -4.1430  -13.2150  -17.5570 C.3    33  ASN33       0.1169
     42  CG        -2.9020  -12.4780  -18.0070 C.2    33  ASN33       0.2627
     43  OD1       -1.8820  -13.0920  -18.3150 O.2    33  ASN33      -0.2716
     44  ND2       -2.9780  -11.1600  -18.0490 N.am   33  ASN33      -0.0877
     45  N         -1.9790  -14.7940  -16.2760 N.am   34  GLY34      -0.1957
     46  CA        -1.2820  -14.9110  -15.0120 C.3    34  GLY34       0.1869
     47  C         -1.9110  -13.9930  -13.9760 C.2    34  GLY34       0.2309
     48  O         -2.8620  -13.2600  -14.2340 O.2    34  GLY34      -0.2863
     49  N         -1.7320  -10.9400  -11.1030 N.3    36  GLY36      -0.1210
     50  CA        -0.9760   -9.7170  -10.9230 C.3    36  GLY36       0.1956
     51  C         -1.8820   -8.5220  -10.7730 C.2    36  GLY36       0.2612
     52  O         -3.1100   -8.6330  -10.7750 O.2    36  GLY36      -0.2717
     53  N         -1.2370   -7.3650  -10.6730 N.am   37  GLY37      -0.1942
     54  CA        -1.9530   -6.1250  -10.5030 C.3    37  GLY37       0.2014
     55  C         -0.9780   -4.9900  -10.3200 C.2    37  GLY37       0.2638
     56  O          0.2030   -5.1160  -10.6270 O.2    37  GLY37      -0.2714
     57  N         -1.4780   -3.8690   -9.8160 N.am   38  LYS38      -0.1977
     58  CA        -0.6510   -2.6760   -9.6820 C.3    38  LYS38       0.1596
     59  C          0.3480   -2.8020   -8.5380 C.2    38  LYS38       0.2287
     60  O          0.0030   -3.2370   -7.4350 O.2    38  LYS38      -0.2864
     61  CB        -1.5560   -1.4760   -9.4170 C.3    38  LYS38       0.0298
     62  CG        -2.3810   -1.1300  -10.6450 C.3    38  LYS38       0.0038
     63  CD        -3.4710   -0.1640  -10.3310 C.3    38  LYS38       0.0206
     64  CE        -4.3990   -0.0570  -11.5140 C.3    38  LYS38       0.1093
     65  NZ        -5.5320    0.8500  -11.2080 N.3    38  LYS38      -0.1314
     66  N          0.3720   -9.8670   -5.1130 N.3    52  GLU52      -0.1245
     67  CA        -0.7590  -10.0430   -6.0120 C.3    52  GLU52       0.1567
     68  C         -1.0450  -11.5210   -6.2490 C.2    52  GLU52       0.2260
     69  O         -2.2090  -11.9340   -6.3390 O.2    52  GLU52      -0.2867
     70  CB        -0.4760   -9.3150   -7.3270 C.3    52  GLU52       0.0388
     71  CG        -0.4280   -7.8090   -7.1970 C.3    52  GLU52       0.1160
     72  CD        -1.7990   -7.1980   -7.1400 C.2    52  GLU52       0.3649
     73  OE1       -2.7530   -7.8940   -7.5290 O.co2  52  GLU52      -0.2457
     74  OE2       -1.9260   -6.0260   -6.7110 O.co2  52  GLU52      -0.2457
     75  N         -4.6720  -12.8960   -5.3980 N.3    56  GLU56      -0.1245
     76  CA        -5.4880  -13.3380   -6.5140 C.3    56  GLU56       0.1567
     77  C         -5.6730  -14.8400   -6.5720 C.2    56  GLU56       0.2260
     78  O         -6.7270  -15.2940   -7.0110 O.2    56  GLU56      -0.2867
     79  CB        -4.9000  -12.8600   -7.8380 C.3    56  GLU56       0.0388
     80  CG        -4.9520  -11.3820   -8.0230 C.3    56  GLU56       0.1160
     81  CD        -5.1640  -11.0260   -9.4680 C.2    56  GLU56       0.3649
     82  OE1       -4.5340  -11.6560  -10.3560 O.co2  56  GLU56      -0.2457
     83  OE2       -5.9880  -10.1280   -9.7070 O.co2  56  GLU56      -0.2457
     84  N          6.8390   -6.2130  -20.3400 N.3    70  ILE70      -0.1245
     85  CA         5.9960   -5.9050  -21.4840 C.3    70  ILE70       0.1561
     86  C          5.3130   -4.5750  -21.2300 C.2    70  ILE70       0.2260
     87  O          4.7070   -4.3880  -20.1670 O.2    70  ILE70      -0.2867
     88  CB         4.9190   -6.9670  -21.7410 C.3    70  ILE70       0.0252
     89  CG1        5.4920   -8.3720  -21.7630 C.3    70  ILE70       0.0019
     90  CG2        4.2520   -6.6550  -23.0730 C.3    70  ILE70       0.0019
     91  CD1        4.4180   -9.4070  -21.5400 C.3    70  ILE70       0.0001
     92  N          2.3730   -2.0520  -22.4780 N.3    72  PHE72      -0.1241
     93  CA         1.1290   -2.0090  -23.2290 C.3    72  PHE72       0.1605
     94  C          0.6650   -0.5760  -23.3890 C.2    72  PHE72       0.2264
     95  O          0.6730    0.2070  -22.4260 O.2    72  PHE72      -0.2867
     96  CB         0.0240   -2.8090  -22.5460 C.3    72  PHE72       0.0534
     97  CG         0.3340   -4.2730  -22.4690 C.ar   72  PHE72      -0.0203
     98  CD1        0.2630   -5.0550  -23.6010 C.ar   72  PHE72      -0.0042
     99  CD2        0.7970   -4.8460  -21.3060 C.ar   72  PHE72      -0.0042
    100  CE1        0.5830   -6.3950  -23.5600 C.ar   72  PHE72      -0.0003
    101  CE2        1.1070   -6.1860  -21.2450 C.ar   72  PHE72      -0.0003
    102  CZ         1.0020   -6.9610  -22.3700 C.ar   72  PHE72      -0.0000
    103  N         -2.7120    1.4910  -25.0940 N.3    74  PHE74      -0.1241
    104  CA        -4.0650    1.3670  -25.6000 C.3    74  PHE74       0.1605
    105  C         -4.4600    2.6680  -26.2680 C.2    74  PHE74       0.2264
    106  O         -4.2870    3.7390  -25.6810 O.2    74  PHE74      -0.2867
    107  CB        -5.0270    0.9960  -24.4660 C.3    74  PHE74       0.0534
    108  CG        -4.7680   -0.3760  -23.9250 C.ar   74  PHE74      -0.0203
    109  CD1       -5.3790   -1.4850  -24.4960 C.ar   74  PHE74      -0.0042
    110  CD2       -3.8880   -0.5680  -22.8730 C.ar   74  PHE74      -0.0042
    111  CE1       -5.1150   -2.7600  -24.0270 C.ar   74  PHE74      -0.0003
    112  CE2       -3.6290   -1.8500  -22.3960 C.ar   74  PHE74      -0.0003
    113  CZ        -4.2450   -2.9350  -22.9750 C.ar   74  PHE74      -0.0000
    114  N          1.0040    0.8060  -19.6240 N.3    81  MET81      -0.1245
    115  CA         1.0890   -0.2250  -18.5960 C.3    81  MET81       0.1570
    116  C          2.4390   -0.9010  -18.6910 C.2    81  MET81       0.2261
    117  O          2.7340   -1.5390  -19.6990 O.2    81  MET81      -0.2867
    118  CB         0.0060   -1.2780  -18.7580 C.3    81  MET81       0.0387
    119  CG        -1.3830   -0.7610  -18.7190 C.3    81  MET81       0.0595
    120  SD        -2.5470   -2.1220  -18.9320 S.3    81  MET81      -0.1393
    121  CE        -2.2210   -3.1220  -17.4790 C.3    81  MET81       0.0692
    122  N          4.4170   -3.7790  -17.4470 N.3    83  VAL83      -0.1245
    123  CA         4.1350   -5.0490  -16.7930 C.3    83  VAL83       0.1561
    124  C          5.4230   -5.8380  -16.6110 C.2    83  VAL83       0.2260
    125  O          6.0880   -6.2160  -17.5840 O.2    83  VAL83      -0.2867
    126  CB         3.1000   -5.8710  -17.5780 C.3    83  VAL83       0.0252
    127  CG1        2.7760   -7.1520  -16.8210 C.3    83  VAL83       0.0019
    128  CG2        1.8370   -5.0530  -17.8180 C.3    83  VAL83       0.0019
    129  N        -13.7620  -12.8330   -8.0650 N.3   100  GLU100     -0.1245
    130  CA       -13.2790  -12.1640   -9.2610 C.3   100  GLU100      0.1567
    131  C        -12.3580  -13.0120  -10.1260 C.2   100  GLU100      0.2260
    132  O        -12.0850  -12.6160  -11.2640 O.2   100  GLU100     -0.2867
    133  CB       -12.5900  -10.8340   -8.9140 C.3   100  GLU100      0.0388
    134  CG       -11.0760  -10.9080   -8.8130 C.3   100  GLU100      0.1160
    135  CD       -10.4460   -9.5530   -8.5420 C.2   100  GLU100      0.3649
    136  OE1      -11.1930   -8.5960   -8.2490 O.co2 100  GLU100     -0.2457
    137  OE2       -9.2040   -9.4480   -8.6250 O.co2 100  GLU100     -0.2457
    138  N         -5.0210  -12.9320  -23.6570 N.3   117  TRP117     -0.1241
    139  CA        -4.6450  -11.7020  -24.3360 C.3   117  TRP117      0.1605
    140  C         -3.9280  -12.0430  -25.6390 C.2   117  TRP117      0.2264
    141  O         -3.0700  -12.9310  -25.6530 O.2   117  TRP117     -0.2867
    142  CB        -3.7080  -10.9040  -23.4270 C.3   117  TRP117      0.0550
    143  CG        -4.4650  -10.0470  -22.4860 C.ar  117  TRP117      0.0003
    144  CD1       -4.8030  -10.3260  -21.1920 C.ar  117  TRP117      0.0946
    145  CD2       -5.0150   -8.7650  -22.7870 C.ar  117  TRP117      0.0152
    146  NE1       -5.5180   -9.2720  -20.6620 N.ar  117  TRP117     -0.2442
    147  CE2       -5.6710   -8.3080  -21.6260 C.ar  117  TRP117      0.0810
    148  CE3       -5.0150   -7.9540  -23.9350 C.ar  117  TRP117      0.0012
    149  CZ2       -6.3220   -7.0770  -21.5770 C.ar  117  TRP117      0.0191
    150  CZ3       -5.6610   -6.7320  -23.8810 C.ar  117  TRP117      0.0001
    151  CH2       -6.3060   -6.3080  -22.7100 C.ar  117  TRP117      0.0015
    152  N         -1.4630  -10.6940  -27.1030 N.3   119  ASP119     -0.1225
    153  CA        -0.0140  -10.5830  -27.0200 C.3   119  ASP119      0.1805
    154  C          0.6250  -11.8550  -26.4750 C.2   119  ASP119      0.2597
    155  O          1.7910  -12.1430  -26.7750 O.2   119  ASP119     -0.2718
    156  CB         0.3660   -9.4000  -26.1470 C.3   119  ASP119      0.1424
    157  CG        -0.4030   -9.3860  -24.8570 C.2   119  ASP119      0.3668
    158  OD1       -1.5860   -9.0080  -24.9150 O.co2 119  ASP119     -0.2456
    159  OD2        0.1630   -9.7610  -23.7990 O.co2 119  ASP119     -0.2456
    160  N         -0.1050  -12.6170  -25.6460 N.am  120  ALA120     -0.1979
    161  CA         0.4810  -13.8110  -25.0360 C.3   120  ALA120      0.1597
    162  C          0.9100  -14.8280  -26.0850 C.2   120  ALA120      0.2287
    163  O          1.8420  -15.6040  -25.8590 O.2   120  ALA120     -0.2864
    164  CB        -0.5140  -14.4680  -24.0740 C.3   120  ALA120      0.0319
    165  N          4.7110  -13.6850  -26.6280 N.3   123  TRP123     -0.1241
    166  CA         5.7480  -13.7950  -25.6100 C.3   123  TRP123      0.1605
    167  C          5.6750  -15.0690  -24.7830 C.2   123  TRP123      0.2264
    168  O          6.7130  -15.5120  -24.2710 O.2   123  TRP123     -0.2867
    169  CB         5.7780  -12.5570  -24.6980 C.3   123  TRP123      0.0550
    170  CG         4.4860  -12.2610  -23.9860 C.ar  123  TRP123      0.0003
    171  CD1        3.5100  -11.3720  -24.3790 C.ar  123  TRP123      0.0946
    172  CD2        4.0280  -12.8460  -22.7650 C.ar  123  TRP123      0.0152
    173  NE1        2.4740  -11.3790  -23.4750 N.ar  123  TRP123     -0.2442
    174  CE2        2.7720  -12.2660  -22.4700 C.ar  123  TRP123      0.0810
    175  CE3        4.5720  -13.7810  -21.8760 C.ar  123  TRP123      0.0012
    176  CZ2        2.0510  -12.6060  -21.3260 C.ar  123  TRP123      0.0191
    177  CZ3        3.8480  -14.1190  -20.7550 C.ar  123  TRP123      0.0001
    178  CH2        2.6050  -13.5340  -20.4890 C.ar  123  TRP123      0.0015
    179  N         -2.5700   -1.6310  -28.6100 N.3   139  PHE139     -0.1241
    180  CA        -3.8800   -2.2050  -28.8500 C.3   139  PHE139      0.1605
    181  C         -4.9070   -1.1430  -29.2120 C.2   139  PHE139      0.2264
    182  O         -4.9530   -0.0620  -28.6050 O.2   139  PHE139     -0.2867
    183  CB        -4.3900   -2.8930  -27.5820 C.3   139  PHE139      0.0534
    184  CG        -3.8970   -4.3120  -27.3970 C.ar  139  PHE139     -0.0203
    185  CD1       -2.7160   -4.5930  -26.7210 C.ar  139  PHE139     -0.0042
    186  CD2       -4.6520   -5.3770  -27.8670 C.ar  139  PHE139     -0.0042
    187  CE1       -2.2790   -5.9140  -26.5480 C.ar  139  PHE139     -0.0003
    188  CE2       -4.2240   -6.6900  -27.6920 C.ar  139  PHE139     -0.0003
    189  CZ        -3.0360   -6.9540  -27.0240 C.ar  139  PHE139     -0.0000
@<TRIPOS>BOND
     1   181   180    1
     2   181   182    2
     3   180   179    1
     4   180   183    1
     5   186   188   ar
     6   186   184   ar
     7   188   189   ar
     8   183   184    1
     9   184   185   ar
    10   152   153    1
    11   189   187   ar
    12   153   154    1
    13   153   156    1
    14   155   154    2
    15   185   187   ar
    16   165   166    1
    17   154   160   am
    18   105   106    2
    19   105   104    1
    20   156   157    1
    21   162   163    2
    22   162   161    1
    23   141   140    2
    24   160   161    1
    25   140   139    1
    26   166   167    1
    27   166   169    1
    28   104   103    1
    29   104   107    1
    30   161   164    1
    31   158   157   ar
    32   157   159   ar
    33   167   168    2
    34   169   170    1
    35   109   111   ar
    36   109   108   ar
    37   107   108    1
    38   171   170   ar
    39   171   173   ar
    40   139   138    1
    41   139   142    1
    42   111   113   ar
    43   170   172   ar
    44   148   150   ar
    45   148   145   ar
    46   108   110   ar
    47   150   151   ar
    48    98   100   ar
    49    98    97   ar
    50   100   102   ar
    51   173   174   ar
    52   142   143    1
    53    94    93    1
    54    94    95    2
    55    93    96    1
    56    93    92    1
    57    90    88    1
    58   113   112   ar
    59   110   112   ar
    60   145   143   ar
    61   145   147   ar
    62   172   174   ar
    63   172   175   ar
    64   151   149   ar
    65    96    97    1
    66   143   144   ar
    67   174   176   ar
    68    97    99   ar
    69   102   101   ar
    70   175   177   ar
    71    89    88    1
    72    89    91    1
    73    88    85    1
    74   147   149   ar
    75   147   146   ar
    76    85    86    1
    77    85    84    1
    78   176   178   ar
    79    99   101   ar
    80    86    87    2
    81   144   146   ar
    82   177   178   ar
    83   117   116    2
    84   114   115    1
    85   120   119    1
    86   120   121    1
    87   118   119    1
    88   118   115    1
    89   116   115    1
    90    43    42    2
    91    44    42   am
    92    42    41    1
    93   128   126    1
    94    37    38    1
    95    38    41    1
    96    38    39    1
    97    27    25    1
    98   125   124    2
    99   126   127    1
   100   126   123    1
   101   122   123    1
   102   123   124    1
   103    36    35    1
   104    39    45   am
   105    39    40    2
   106    45    46    1
   107    25    26    1
   108    25    24    1
   109    31    30    2
   110    34    35    1
   111    34    33    1
   112    32    33    1
   113    32    29    1
   114    28    29    1
   115    24    21    1
   116     9     7   ar
   117     9    11   ar
   118    46    47    1
   119    12    11    1
   120     7     6   ar
   121    30    29    1
   122    11    10   ar
   123     6     5    1
   124     6     8   ar
   125    48    47    2
   126    10     8   ar
   127     5     2    1
   128    21    22    1
   129    21    20    1
   130    23    22    2
   131     4     3    2
   132    20    15   am
   133     1     2    1
   134    16    15    2
   135     2     3    1
   136    15    14    1
   137     3    13   am
   138    13    14    1
   139    14    17    1
   140    64    65    1
   141    64    63    1
   142   132   131    2
   143    49    50    1
   144    50    51    1
   145    52    51    2
   146    51    53   am
   147    17    18    1
   148    17    19    1
   149    53    54    1
   150    62    63    1
   151    62    61    1
   152    56    55    2
   153    54    55    1
   154    82    81   ar
   155    55    57   am
   156   131   130    1
   157    57    58    1
   158    83    81   ar
   159    58    61    1
   160    58    59    1
   161    81    80    1
   162   130   133    1
   163   130   129    1
   164   133   134    1
   165   134   135    1
   166   137   135   ar
   167   135   136   ar
   168    59    60    2
   169    80    79    1
   170    79    76    1
   171    73    72   ar
   172    70    71    1
   173    70    67    1
   174    71    72    1
   175    72    74   ar
   176    78    77    2
   177    77    76    1
   178    76    75    1
   179    69    68    2
   180    68    67    1
   181    67    66    1
