@<TRIPOS>MOLECULE
tmp/5ghvB00.pdb
 186 176 0 0 0
SMALL
GASTEIGER

@<TRIPOS>ATOM
      1  N        -16.5980  -38.1300  -51.1480 N.3    13  LYS13      -0.1231
      2  CA       -15.5760  -37.7510  -50.1620 C.3    13  LYS13       0.1693
      3  C        -16.2230  -37.2880  -48.8510 C.2    13  LYS13       0.2592
      4  O        -17.3610  -36.8090  -48.8440 O.2    13  LYS13      -0.2718
      5  CB       -14.6270  -36.6760  -50.7210 C.3    13  LYS13       0.0285
      6  CG       -15.1900  -35.2560  -50.8320 C.3    13  LYS13       0.0035
      7  CD       -14.0900  -34.2040  -50.9310 C.3    13  LYS13       0.0206
      8  CE       -13.3050  -34.0630  -49.6290 C.3    13  LYS13       0.1093
      9  NZ       -12.5550  -32.7800  -49.5420 N.3    13  LYS13      -0.1314
     10  N        -15.4780  -37.4250  -47.7560 N.am   14  GLU14      -0.1966
     11  CA       -15.9420  -37.0350  -46.4230 C.3    14  GLU14       0.1733
     12  C        -15.4720  -35.6270  -46.0650 C.2    14  GLU14       0.2616
     13  O        -14.3780  -35.2130  -46.4580 O.2    14  GLU14      -0.2715
     14  CB       -15.4000  -38.0050  -45.3720 C.3    14  GLU14       0.0429
     15  CG       -15.8200  -39.4560  -45.5640 C.3    14  GLU14       0.1163
     16  CD       -15.1350  -40.4090  -44.5960 C.2    14  GLU14       0.3649
     17  OE1      -14.3700  -39.9490  -43.7190 O.co2  14  GLU14      -0.2457
     18  OE2      -15.3590  -41.6320  -44.7160 O.co2  14  GLU14      -0.2457
     19  N        -16.3090  -34.9000  -45.3270 N.am   15  LEU15      -0.1963
     20  CA       -15.8870  -33.6790  -44.6370 C.3    15  LEU15       0.1728
     21  C        -15.4540  -33.9840  -43.1990 C.2    15  LEU15       0.2616
     22  O        -14.5470  -33.3340  -42.6740 O.2    15  LEU15      -0.2715
     23  CB       -17.0020  -32.6260  -44.6500 C.3    15  LEU15       0.0311
     24  CG       -17.5450  -32.1870  -46.0180 C.3    15  LEU15       0.0022
     25  CD1      -18.4120  -30.9480  -45.8560 C.3    15  LEU15       0.0001
     26  CD2      -16.4320  -31.9240  -47.0270 C.3    15  LEU15       0.0001
     27  N        -16.1050  -34.9630  -42.5680 N.am   16  GLY16      -0.1955
     28  CA       -15.7220  -35.4290  -41.2320 C.3    16  GLY16       0.1869
     29  C        -16.2820  -36.8050  -40.9140 C.2    16  GLY16       0.2309
     30  O        -17.1310  -37.3210  -41.6490 O.2    16  GLY16      -0.2863
     31  N        -21.4180  -41.8170  -35.3850 N.3    20  PHE20      -0.1241
     32  CA       -22.6360  -41.6980  -36.2060 C.3    20  PHE20       0.1605
     33  C        -22.4420  -42.2190  -37.6350 C.2    20  PHE20       0.2264
     34  O        -23.2910  -42.9470  -38.1490 O.2    20  PHE20      -0.2867
     35  CB       -23.2010  -40.2570  -36.2120 C.3    20  PHE20       0.0534
     36  CG       -22.2030  -39.1830  -36.5920 C.ar   20  PHE20      -0.0203
     37  CD1      -21.9610  -38.8700  -37.9280 C.ar   20  PHE20      -0.0042
     38  CD2      -21.5420  -38.4480  -35.6070 C.ar   20  PHE20      -0.0042
     39  CE1      -21.0540  -37.8760  -38.2730 C.ar   20  PHE20      -0.0003
     40  CE2      -20.6350  -37.4530  -35.9460 C.ar   20  PHE20      -0.0003
     41  CZ       -20.3920  -37.1640  -37.2800 C.ar   20  PHE20      -0.0000
     42  N        -20.0050  -37.2600  -42.6110 N.3    23  VAL23      -0.1245
     43  CA       -20.6360  -36.0860  -43.1620 C.3    23  VAL23       0.1561
     44  C        -20.0340  -35.8240  -44.5360 C.2    23  VAL23       0.2260
     45  O        -18.8090  -35.8240  -44.6870 O.2    23  VAL23      -0.2867
     46  CB       -20.4170  -34.8520  -42.2880 C.3    23  VAL23       0.0252
     47  CG1      -21.1800  -33.7000  -42.9000 C.3    23  VAL23       0.0019
     48  CG2      -20.8580  -35.1040  -40.8490 C.3    23  VAL23       0.0019
     49  N        -24.6550  -29.9100  -46.6690 N.3    38  ALA38      -0.1245
     50  CA       -23.8820  -30.8570  -45.8840 C.3    38  ALA38       0.1562
     51  C        -24.8440  -31.8720  -45.2890 C.2    38  ALA38       0.2260
     52  O        -25.8810  -31.4860  -44.7400 O.2    38  ALA38      -0.2867
     53  CB       -23.1530  -30.1380  -44.7810 C.3    38  ALA38       0.0290
     54  N        -25.2020  -35.2020  -42.7470 N.3    40  LYS40      -0.1245
     55  CA       -24.7680  -36.1560  -41.7230 C.3    40  LYS40       0.1561
     56  C        -25.4550  -37.5000  -41.9690 C.2    40  LYS40       0.2260
     57  O        -26.6800  -37.5550  -42.0060 O.2    40  LYS40      -0.2867
     58  CB       -25.1320  -35.6270  -40.3320 C.3    40  LYS40       0.0271
     59  CG       -24.5960  -36.4400  -39.1650 C.3    40  LYS40       0.0035
     60  CD       -24.9970  -35.8130  -37.8400 C.3    40  LYS40       0.0206
     61  CE       -24.2910  -36.4820  -36.6740 C.3    40  LYS40       0.1093
     62  NZ       -24.5250  -35.7650  -35.3920 N.3    40  LYS40      -0.1314
     63  N        -31.5080  -34.6120  -32.5640 N.3    54  GLU54      -0.1245
     64  CA       -30.7330  -33.4930  -33.1230 C.3    54  GLU54       0.1567
     65  C        -31.5060  -32.7670  -34.2240 C.2    54  GLU54       0.2260
     66  O        -31.5390  -31.5370  -34.2570 O.2    54  GLU54      -0.2867
     67  CB       -29.3830  -33.9910  -33.6650 C.3    54  GLU54       0.0388
     68  CG       -28.5320  -32.9370  -34.3720 C.3    54  GLU54       0.1160
     69  CD       -27.1490  -33.4380  -34.7550 C.2    54  GLU54       0.3649
     70  OE1      -26.9090  -34.6640  -34.7030 O.co2  54  GLU54      -0.2457
     71  OE2      -26.2980  -32.6010  -35.1220 O.co2  54  GLU54      -0.2457
     72  N        -26.8180  -22.9510  -38.0540 N.3    67  VAL67      -0.1245
     73  CA       -26.9140  -23.8200  -39.2330 C.3    67  VAL67       0.1561
     74  C        -28.3570  -24.3030  -39.4040 C.2    67  VAL67       0.2260
     75  O        -28.9200  -24.9160  -38.4970 O.2    67  VAL67      -0.2867
     76  CB       -25.9560  -25.0340  -39.1290 C.3    67  VAL67       0.0252
     77  CG1      -26.2210  -26.0570  -40.2340 C.3    67  VAL67       0.0019
     78  CG2      -24.5040  -24.5740  -39.1820 C.3    67  VAL67       0.0019
     79  N        -28.4480  -30.3750  -44.1080 N.3    82  MET82      -0.1230
     80  CA       -28.2880  -28.9930  -43.6400 C.3    82  MET82       0.1702
     81  C        -27.6740  -28.1260  -44.7380 C.2    82  MET82       0.2592
     82  O        -27.0510  -28.6490  -45.6620 O.2    82  MET82      -0.2718
     83  CB       -27.3550  -28.9590  -42.4290 C.3    82  MET82       0.0401
     84  CG       -27.8370  -29.7380  -41.2140 C.3    82  MET82       0.0596
     85  SD       -26.4770  -30.2470  -40.1430 S.3    82  MET82      -0.1393
     86  CE       -25.7360  -31.5490  -41.1230 C.3    82  MET82       0.0692
     87  N        -27.8360  -26.8070  -44.6250 N.am   83  GLU83      -0.1966
     88  CA       -27.1760  -25.8710  -45.5460 C.3    83  GLU83       0.1733
     89  C        -25.6630  -25.8580  -45.3000 C.2    83  GLU83       0.2616
     90  O        -25.2090  -26.0830  -44.1740 O.2    83  GLU83      -0.2715
     91  CB       -27.7750  -24.4560  -45.4580 C.3    83  GLU83       0.0429
     92  CG       -27.4790  -23.6710  -44.1820 C.3    83  GLU83       0.1163
     93  CD       -28.1180  -22.2880  -44.1660 C.2    83  GLU83       0.3649
     94  OE1      -28.7010  -21.8620  -45.1900 O.co2  83  GLU83      -0.2457
     95  OE2      -28.0350  -21.6150  -43.1160 O.co2  83  GLU83      -0.2457
     96  N        -24.9040  -25.5850  -46.3600 N.am   84  MET84      -0.1963
     97  CA       -23.4410  -25.7260  -46.3620 C.3    84  MET84       0.1736
     98  C        -22.7380  -24.4310  -45.9490 C.2    84  MET84       0.2616
     99  O        -22.9400  -23.3920  -46.5710 O.2    84  MET84      -0.2715
    100  CB       -22.9730  -26.1570  -47.7630 C.3    84  MET84       0.0427
    101  CG       -21.4630  -26.2440  -47.9810 C.3    84  MET84       0.0599
    102  SD       -20.5720  -27.3480  -46.8660 S.3    84  MET84      -0.1393
    103  CE       -21.1300  -28.9450  -47.4420 C.3    84  MET84       0.0692
    104  N        -21.9230  -24.5090  -44.8960 N.am   85  ALA85      -0.1963
    105  CA       -20.9880  -23.4410  -44.5210 C.3    85  ALA85       0.1728
    106  C        -19.6180  -23.7530  -45.1250 C.2    85  ALA85       0.2616
    107  O        -18.8190  -24.4660  -44.5230 O.2    85  ALA85      -0.2715
    108  CB       -20.8940  -23.3200  -43.0060 C.3    85  ALA85       0.0334
    109  N        -19.3530  -23.1890  -46.3030 N.am   86  GLU86      -0.1963
    110  CA       -18.2470  -23.6300  -47.1780 C.3    86  GLU86       0.1733
    111  C        -16.8110  -23.5500  -46.6270 C.2    86  GLU86       0.2616
    112  O        -15.9450  -24.2790  -47.1120 O.2    86  GLU86      -0.2715
    113  CB       -18.3060  -22.8810  -48.5220 C.3    86  GLU86       0.0429
    114  CG       -19.4800  -23.2750  -49.4150 C.3    86  GLU86       0.1163
    115  CD       -19.2840  -24.5920  -50.1620 C.2    86  GLU86       0.3649
    116  OE1      -20.1410  -24.9110  -51.0120 O.co2  86  GLU86      -0.2457
    117  OE2      -18.2910  -25.3120  -49.9180 O.co2  86  GLU86      -0.2457
    118  N        -16.5530  -22.6760  -45.6510 N.am   87  LEU87      -0.1963
    119  CA       -15.1900  -22.4880  -45.1040 C.3    87  LEU87       0.1728
    120  C        -14.8400  -23.4260  -43.9380 C.2    87  LEU87       0.2617
    121  O        -13.6580  -23.6300  -43.6540 O.2    87  LEU87      -0.2715
    122  CB       -14.9470  -21.0230  -44.6970 C.3    87  LEU87       0.0311
    123  CG       -14.4800  -20.0530  -45.7920 C.3    87  LEU87       0.0022
    124  CD1      -15.2660  -20.2110  -47.0860 C.3    87  LEU87       0.0001
    125  CD2      -14.5750  -18.6210  -45.2880 C.3    87  LEU87       0.0001
    126  N        -15.8480  -23.9750  -43.2590 N.am   88  GLY88      -0.1941
    127  CA       -15.6300  -24.9970  -42.2310 C.3    88  GLY88       0.1998
    128  C        -15.3470  -24.4640  -40.8400 C.2    88  GLY88       0.2480
    129  O        -15.5400  -23.2730  -40.5910 O.2    88  GLY88      -0.2729
    130  N        -14.8950  -25.3490  -39.9190 N.am   89  PRO89      -0.2726
    131  CA       -14.6290  -25.0200  -38.5130 C.3    89  PRO89       0.1402
    132  C        -13.8140  -23.7440  -38.2980 C.2    89  PRO89       0.2269
    133  O        -12.8600  -23.4870  -39.0340 O.2    89  PRO89      -0.2865
    134  CB       -13.8440  -26.2360  -38.0160 C.3    89  PRO89       0.0296
    135  CG       -14.3740  -27.3620  -38.8210 C.3    89  PRO89       0.0237
    136  CD       -14.7050  -26.7920  -40.1720 C.3    89  PRO89       0.0939
    137  N         -9.9050  -24.3700  -37.1380 N.3    92  LYS92      -0.1245
    138  CA        -8.9920  -24.8100  -38.2000 C.3    92  LYS92       0.1561
    139  C         -8.8250  -23.7620  -39.3010 C.2    92  LYS92       0.2260
    140  O         -7.8020  -23.7510  -39.9870 O.2    92  LYS92      -0.2867
    141  CB        -9.4350  -26.1530  -38.7890 C.3    92  LYS92       0.0271
    142  CG        -9.2100  -27.3240  -37.8420 C.3    92  LYS92       0.0035
    143  CD        -9.4510  -28.6670  -38.5150 C.3    92  LYS92       0.0206
    144  CE       -10.9290  -28.8990  -38.7980 C.3    92  LYS92       0.1093
    145  NZ       -11.2070  -30.2870  -39.2600 N.3    92  LYS92      -0.1314
    146  N        -14.4820  -25.5340  -32.6810 N.3   132  ARG132     -0.1231
    147  CA       -14.7330  -26.6360  -33.6300 C.3   132  ARG132      0.1694
    148  C        -16.1850  -26.7140  -34.1370 C.2   132  ARG132      0.2592
    149  O        -16.4230  -27.1520  -35.2660 O.2   132  ARG132     -0.2718
    150  CB       -14.3250  -27.9900  -33.0230 C.3   132  ARG132      0.0321
    151  CG       -15.0980  -28.4030  -31.7740 C.3   132  ARG132      0.0489
    152  CD       -14.8280  -29.8470  -31.3880 C.3   132  ARG132      0.2205
    153  NE       -15.6420  -30.2440  -30.2380 N.pl3 132  ARG132     -0.0865
    154  CZ       -15.4010  -29.9140  -28.9660 C.cat 132  ARG132      0.5346
    155  NH1      -14.3500  -29.1670  -28.6250 N.pl3 132  ARG132      0.1354
    156  NH2      -16.2280  -30.3390  -28.0130 N.pl3 132  ARG132      0.1354
    157  N        -17.1370  -26.3020  -33.2950 N.am  133  ASN133     -0.1974
    158  CA       -18.5650  -26.3150  -33.6300 C.3   133  ASN133      0.1688
    159  C        -19.1320  -24.9760  -34.1390 C.2   133  ASN133      0.2292
    160  O        -20.3530  -24.8110  -34.2080 O.2   133  ASN133     -0.2864
    161  CB       -19.3670  -26.8110  -32.4180 C.3   133  ASN133      0.1181
    162  CG       -18.9890  -28.2260  -32.0050 C.2   133  ASN133      0.2629
    163  OD1      -18.6240  -29.0560  -32.8380 O.2   133  ASN133     -0.2716
    164  ND2      -19.0850  -28.5090  -30.7120 N.am  133  ASN133     -0.0877
    165  N        -18.9710  -22.7710  -37.6230 N.3   135  LEU135     -0.1245
    166  CA       -18.6170  -22.9320  -39.0300 C.3   135  LEU135      0.1561
    167  C        -18.7640  -21.6090  -39.7640 C.2   135  LEU135      0.2260
    168  O        -19.6720  -20.8300  -39.4720 O.2   135  LEU135     -0.2867
    169  CB       -19.5170  -23.9790  -39.6770 C.3   135  LEU135      0.0270
    170  CG       -19.6320  -25.3010  -38.9200 C.3   135  LEU135      0.0019
    171  CD1      -20.6680  -26.1570  -39.6080 C.3   135  LEU135      0.0001
    172  CD2      -18.2910  -26.0160  -38.8370 C.3   135  LEU135      0.0001
    173  N        -23.0020  -24.8580  -35.0840 N.3   145  SER145     -0.1202
    174  CA       -23.3410  -26.2040  -35.5570 C.3   145  SER145      0.2020
    175  C        -23.3710  -27.2090  -34.4010 C.2   145  SER145      0.2618
    176  O        -23.0810  -26.8550  -33.2550 O.2   145  SER145     -0.2717
    177  CB       -22.3340  -26.6490  -36.6230 C.3   145  SER145      0.2103
    178  OG       -21.0210  -26.7540  -36.0940 O.3   145  SER145     -0.2182
    179  N        -23.7420  -28.4510  -34.7250 N.am  146  ASP146     -0.1973
    180  CA       -23.7510  -29.5930  -33.7920 C.3   146  ASP146      0.1709
    181  C        -24.7110  -29.4480  -32.6170 C.2   146  ASP146      0.2293
    182  O        -24.3300  -28.9480  -31.5570 O.2   146  ASP146     -0.2864
    183  CB       -22.3450  -29.9070  -33.2690 C.3   146  ASP146      0.1436
    184  CG       -21.4110  -30.3450  -34.3600 C.2   146  ASP146      0.3671
    185  OD1      -21.2570  -29.5960  -35.3490 O.co2 146  ASP146     -0.2456
    186  OD2      -20.8160  -31.4360  -34.2280 O.co2 146  ASP146     -0.2456
@<TRIPOS>BOND
     1     1     2    1
     2   116   115   ar
     3     7     6    1
     4     7     8    1
     5     6     5    1
     6     5     2    1
     7     2     3    1
     8   115   117   ar
     9   115   114    1
    10     8     9    1
    11   114   113    1
    12     3     4    2
    13     3    10   am
    14   113   110    1
    15   101   100    1
    16   101   102    1
    17   100    97    1
    18    10    11    1
    19   103   102    1
    20   110   111    1
    21   110   109    1
    22   112   111    2
    23   124   123    1
    24    26    24    1
    25    49    50    1
    26   111   118   am
    27    99    98    2
    28    13    12    2
    29    11    12    1
    30    11    14    1
    31    97    96    1
    32    97    98    1
    33    96    89   am
    34   109   106   am
    35    12    19   am
    36    24    25    1
    37    24    23    1
    38    98   104   am
    39    50    51    1
    40    50    53    1
    41   123   125    1
    42   123   122    1
    43    82    81    2
    44   118   119    1
    45    15    14    1
    46    15    16    1
    47    88    91    1
    48    88    89    1
    49    88    87    1
    50    91    92    1
    51    19    20    1
    52    89    90    2
    53    51    52    2
    54    94    93   ar
    55   106   107    2
    56   106   105    1
    57   119   122    1
    58   119   120    1
    59   104   105    1
    60    81    87   am
    61    81    80    1
    62    18    16   ar
    63    45    44    2
    64    23    20    1
    65    20    21    1
    66    16    17   ar
    67    44    43    1
    68   105   108    1
    69    92    93    1
    70    93    95   ar
    71    79    80    1
    72   120   121    2
    73   120   126   am
    74    80    83    1
    75   126   127    1
    76    21    22    2
    77    21    27   am
    78    43    42    1
    79    43    46    1
    80    47    46    1
    81    54    55    1
    82    27    28    1
    83    83    84    1
    84    46    48    1
    85   127   128    1
    86    57    56    2
    87    56    55    1
    88    55    58    1
    89    30    29    2
    90    28    29    1
    91    84    85    1
    92    86    85    1
    93   128   129    2
    94   128   130   am
    95    58    59    1
    96    77    76    1
    97   136   130    1
    98   136   135    1
    99   140   139    2
   100   130   131    1
   101   167   168    2
   102   167   166    1
   103   169   166    1
   104   169   170    1
   105   171   170    1
   106    74    73    1
   107    74    75    2
   108   139   138    1
   109   145   144    1
   110    73    76    1
   111    73    72    1
   112    78    76    1
   113    59    60    1
   114   133   132    2
   115   166   165    1
   116   170   172    1
   117   135   134    1
   118   144   143    1
   119   141   138    1
   120   141   142    1
   121   143   142    1
   122   131   132    1
   123   131   134    1
   124    39    37   ar
   125    39    41   ar
   126   138   137    1
   127    34    33    2
   128    37    36   ar
   129    60    61    1
   130    33    32    1
   131    41    40   ar
   132    61    62    1
   133   177   178    1
   134   177   174    1
   135    36    35    1
   136    36    38   ar
   137    35    32    1
   138    32    31    1
   139    40    38   ar
   140   174   173    1
   141   174   175    1
   142   185   184   ar
   143   149   148    2
   144    71    69   ar
   145    69    70   ar
   146    69    68    1
   147   179   175   am
   148   179   180    1
   149   175   176    2
   150    68    67    1
   151   184   186   ar
   152   184   183    1
   153    66    65    2
   154    65    64    1
   155   160   159    2
   156   159   158    1
   157   148   147    1
   158   148   157   am
   159   180   183    1
   160   180   181    1
   161    67    64    1
   162   147   150    1
   163   147   146    1
   164   158   157    1
   165   158   161    1
   166    64    63    1
   167   150   151    1
   168   163   162    2
   169   181   182    2
   170   161   162    1
   171   162   164   am
   172   151   152    1
   173   152   153    1
   174   153   154    2
   175   154   155    1
   176   154   156    1
