@<TRIPOS>MOLECULE
tmp/5gi6A00.pdb
 131 124 0 0 0
SMALL
GASTEIGER

@<TRIPOS>ATOM
      1  N         12.2370  -17.2000   -8.0170 N.3    25  PHE25      -0.1241
      2  CA        11.2740  -18.1810   -7.4810 C.3    25  PHE25       0.1605
      3  C         11.8570  -19.3970   -6.7480 C.2    25  PHE25       0.2264
      4  O         11.3760  -19.7540   -5.6640 O.2    25  PHE25      -0.2867
      5  CB        10.3470  -18.6720   -8.6060 C.3    25  PHE25       0.0534
      6  CG         9.1300  -19.4320   -8.1200 C.ar   25  PHE25      -0.0203
      7  CD1        7.9450  -18.7640   -7.8360 C.ar   25  PHE25      -0.0042
      8  CD2        9.1640  -20.8100   -7.9720 C.ar   25  PHE25      -0.0042
      9  CE1        6.8130  -19.4580   -7.4060 C.ar   25  PHE25      -0.0003
     10  CE2        8.0360  -21.5190   -7.5280 C.ar   25  PHE25      -0.0003
     11  CZ         6.8640  -20.8420   -7.2420 C.ar   25  PHE25      -0.0000
     12  N         10.3610  -18.0410   -3.3140 N.3    29  GLU29      -0.1245
     13  CA         9.0050  -18.4570   -2.9640 C.3    29  GLU29       0.1567
     14  C          9.1000  -19.0400   -1.5430 C.2    29  GLU29       0.2260
     15  O         10.0630  -19.7370   -1.2230 O.2    29  GLU29      -0.2867
     16  CB         8.4750  -19.4760   -3.9750 C.3    29  GLU29       0.0388
     17  CG         7.0690  -20.0010   -3.6890 C.3    29  GLU29       0.1160
     18  CD         7.0650  -21.0290   -2.5910 C.2    29  GLU29       0.3649
     19  OE1        8.0580  -21.7800   -2.4990 O.co2  29  GLU29      -0.2457
     20  OE2        6.0840  -21.0830   -1.8150 O.co2  29  GLU29      -0.2457
     21  N          7.8330  -21.4450    0.4630 N.3    31  LEU31      -0.1231
     22  CA         8.0690  -22.8570    0.7930 C.3    31  LEU31       0.1693
     23  C          9.4640  -23.2990    0.3280 C.2    31  LEU31       0.2592
     24  O         10.1680  -24.0300    1.0330 O.2    31  LEU31      -0.2718
     25  CB         6.9950  -23.7490    0.1760 C.3    31  LEU31       0.0284
     26  CG         5.5650  -23.4170    0.5900 C.3    31  LEU31       0.0019
     27  CD1        4.5960  -24.4000   -0.0400 C.3    31  LEU31       0.0001
     28  CD2        5.4360  -23.4300    2.0970 C.3    31  LEU31       0.0001
     29  N          9.8610  -22.8350   -0.8530 N.am   32  ASN32      -0.1974
     30  CA        11.1920  -23.1180   -1.3880 C.3    32  ASN32       0.1688
     31  C         12.2770  -22.5510   -0.4770 C.2    32  ASN32       0.2292
     32  O         13.3210  -23.1760   -0.2590 O.2    32  ASN32      -0.2864
     33  CB        11.3380  -22.5050   -2.7870 C.3    32  ASN32       0.1181
     34  CG        10.5430  -23.2530   -3.8510 C.2    32  ASN32       0.2629
     35  OD1       10.1080  -24.3870   -3.6430 O.2    32  ASN32      -0.2716
     36  ND2       10.3810  -22.6230   -5.0150 N.am   32  ASN32      -0.0877
     37  N         10.9660  -29.2620  -10.4530 N.3    43  LEU43      -0.1245
     38  CA        10.2680  -27.9720  -10.4930 C.3    43  LEU43       0.1561
     39  C         10.4980  -27.2940  -11.8390 C.2    43  LEU43       0.2260
     40  O          9.6500  -26.5350  -12.3030 O.2    43  LEU43      -0.2867
     41  CB        10.6820  -27.0520   -9.3370 C.3    43  LEU43       0.0270
     42  CG        10.0330  -25.6570   -9.2660 C.3    43  LEU43       0.0019
     43  CD1        8.5110  -25.7180   -9.2350 C.3    43  LEU43       0.0001
     44  CD2       10.5400  -24.8980   -8.0610 C.3    43  LEU43       0.0001
     45  N          7.9870  -29.1160  -13.9960 N.3    46  TYR46      -0.1241
     46  CA         6.6930  -28.6170  -13.5250 C.3    46  TYR46       0.1605
     47  C          6.3700  -27.2280  -14.0730 C.2    46  TYR46       0.2264
     48  O          5.2130  -26.9150  -14.3680 O.2    46  TYR46      -0.2867
     49  CB         6.6830  -28.5600  -11.9930 C.3    46  TYR46       0.0534
     50  CG         5.3970  -28.0310  -11.3830 C.ar   46  TYR46      -0.0201
     51  CD1        4.3800  -28.8960  -11.0060 C.ar   46  TYR46      -0.0009
     52  CD2        5.2110  -26.6700  -11.1610 C.ar   46  TYR46      -0.0009
     53  CE1        3.2040  -28.4180  -10.4430 C.ar   46  TYR46       0.0417
     54  CE2        4.0440  -26.1860  -10.5980 C.ar   46  TYR46       0.0417
     55  CZ         3.0470  -27.0680  -10.2360 C.ar   46  TYR46       0.1957
     56  OH         1.8830  -26.5900   -9.6770 O.3    46  TYR46      -0.2866
     57  N         10.8760  -31.0990   -2.9830 N.3    86  PHE86      -0.1241
     58  CA         9.7480  -30.7680   -3.8450 C.3    86  PHE86       0.1605
     59  C          8.5990  -31.7460   -3.6270 C.2    86  PHE86       0.2264
     60  O          7.4300  -31.3870   -3.7870 O.2    86  PHE86      -0.2867
     61  CB        10.1520  -30.7570   -5.3130 C.3    86  PHE86       0.0534
     62  CG         9.0960  -30.1970   -6.2170 C.ar   86  PHE86      -0.0203
     63  CD1        8.5370  -28.9580   -5.9580 C.ar   86  PHE86      -0.0042
     64  CD2        8.6610  -30.9080   -7.3230 C.ar   86  PHE86      -0.0042
     65  CE1        7.5650  -28.4370   -6.7850 C.ar   86  PHE86      -0.0003
     66  CE2        7.6930  -30.3870   -8.1640 C.ar   86  PHE86      -0.0003
     67  CZ         7.1390  -29.1510   -7.8880 C.ar   86  PHE86      -0.0000
     68  N          6.3400  -30.3520   -1.1240 N.3    89  ILE89      -0.1245
     69  CA         5.5080  -29.2940   -1.6660 C.3    89  ILE89       0.1561
     70  C          4.3760  -29.9080   -2.4870 C.2    89  ILE89       0.2260
     71  O          3.2200  -29.5020   -2.3650 O.2    89  ILE89      -0.2867
     72  CB         6.3500  -28.3060   -2.5050 C.3    89  ILE89       0.0252
     73  CG1        7.2860  -27.5310   -1.5800 C.3    89  ILE89       0.0019
     74  CG2        5.4680  -27.3550   -3.2840 C.3    89  ILE89       0.0019
     75  CD1        8.3430  -26.7170   -2.3030 C.3    89  ILE89       0.0001
     76  N          0.2190  -29.6610   -1.9940 N.3    93  MET93      -0.1245
     77  CA        -0.7170  -29.2780   -3.0400 C.3    93  MET93       0.1570
     78  C         -1.7820  -30.3420   -3.2600 C.2    93  MET93       0.2261
     79  O         -2.9360  -30.0180   -3.5500 O.2    93  MET93      -0.2867
     80  CB         0.0380  -28.9990   -4.3340 C.3    93  MET93       0.0387
     81  CG         1.0940  -27.9180   -4.1840 C.3    93  MET93       0.0595
     82  SD         0.3630  -26.3070   -3.8160 S.3    93  MET93      -0.1393
     83  CE         0.5540  -26.2080   -2.0350 C.3    93  MET93       0.0692
     84  N         -3.4010  -20.3400  -12.0450 N.3   115  GLY115     -0.1210
     85  CA        -2.1560  -19.5900  -11.9950 C.3   115  GLY115      0.1956
     86  C         -1.1170  -20.3480  -11.1980 C.2   115  GLY115      0.2612
     87  O         -1.2280  -20.4490   -9.9700 O.2   115  GLY115     -0.2717
     88  N         -0.1060  -20.8840  -11.8830 N.am  116  LYS116     -0.1965
     89  CA         0.7730  -21.8890  -11.2680 C.3   116  LYS116      0.1728
     90  C          2.0990  -21.3870  -10.6910 C.2   116  LYS116      0.2616
     91  O          2.4970  -21.8090   -9.6050 O.2   116  LYS116     -0.2715
     92  CB         1.0390  -23.0140  -12.2660 C.3   116  LYS116      0.0311
     93  CG        -0.2450  -23.7380  -12.6750 C.3   116  LYS116      0.0038
     94  CD         0.0270  -24.7760  -13.7460 C.3   116  LYS116      0.0206
     95  CE        -1.2620  -25.4060  -14.2760 C.3   116  LYS116      0.1093
     96  NZ        -1.9640  -26.2650  -13.2810 N.3   116  LYS116     -0.1314
     97  N          2.7920  -20.5320  -11.4300 N.am  117  ILE117     -0.1977
     98  CA         4.1100  -20.0460  -11.0100 C.3   117  ILE117      0.1596
     99  C          4.1990  -18.5570  -11.2830 C.2   117  ILE117      0.2287
    100  O          4.1840  -18.1310  -12.4430 O.2   117  ILE117     -0.2864
    101  CB         5.2560  -20.7250  -11.7970 C.3   117  ILE117      0.0276
    102  CG1        5.2570  -22.2440  -11.5930 C.3   117  ILE117      0.0022
    103  CG2        6.6080  -20.1260  -11.3920 C.3   117  ILE117      0.0022
    104  CD1        5.6730  -22.6980  -10.1830 C.3   117  ILE117      0.0001
    105  N         -5.9540  -19.1090   -8.2960 N.3   151  VAL151     -0.1231
    106  CA        -4.5460  -18.9550   -7.9690 C.3   151  VAL151      0.1692
    107  C         -4.2900  -19.3830   -6.5330 C.2   151  VAL151      0.2592
    108  O         -4.7010  -18.7020   -5.5920 O.2   151  VAL151     -0.2718
    109  CB        -4.0230  -17.5030   -8.1790 C.3   151  VAL151      0.0266
    110  CG1       -2.5150  -17.4640   -7.9220 C.3   151  VAL151      0.0020
    111  CG2       -4.3280  -16.9770   -9.5610 C.3   151  VAL151      0.0020
    112  N         -3.6280  -20.5220   -6.3690 N.am  152  LEU152     -0.1966
    113  CA        -3.2400  -20.9960   -5.0430 C.3   152  LEU152      0.1728
    114  C         -1.9580  -20.2750   -4.6510 C.2   152  LEU152      0.2616
    115  O         -0.9040  -20.4970   -5.2610 O.2   152  LEU152     -0.2715
    116  CB        -3.0160  -22.5070   -5.0680 C.3   152  LEU152      0.0311
    117  CG        -2.7320  -23.1950   -3.7290 C.3   152  LEU152      0.0022
    118  CD1       -3.1890  -24.6410   -3.7870 C.3   152  LEU152      0.0001
    119  CD2       -1.2620  -23.1380   -3.3790 C.3   152  LEU152      0.0001
    120  N         -2.0400  -19.4200   -3.6310 N.am  153  CYS153     -0.1954
    121  CA        -0.8900  -18.6200   -3.2250 C.3   153  CYS153      0.1843
    122  C         -0.2190  -19.2060   -1.9910 C.2   153  CYS153      0.2626
    123  O         -0.8850  -19.5590   -1.0170 O.2   153  CYS153     -0.2714
    124  CB        -1.3150  -17.1800   -2.9360 C.3   153  CYS153      0.0997
    125  SG        -1.9190  -16.2850   -4.3540 S.3   153  CYS153     -0.0797
    126  N          1.1060  -19.3140   -2.0350 N.am  154  SER154     -0.1950
    127  CA         1.8700  -19.7550   -0.8830 C.3   154  SER154      0.1924
    128  C          2.5990  -18.5720   -0.2700 C.2   154  SER154      0.2314
    129  O          3.3620  -18.7240    0.6830 O.2   154  SER154     -0.2863
    130  CB         2.8560  -20.8630   -1.2590 C.3   154  SER154      0.2116
    131  OG         3.7020  -20.4440   -2.3150 O.3   154  SER154     -0.2180
@<TRIPOS>BOND
     1    48    47    2
     2    95    94    1
     3    95    96    1
     4    47    46    1
     5    45    46    1
     6    94    93    1
     7    46    49    1
     8    93    92    1
     9   100    99    2
    10    40    39    2
    11    92    89    1
    12    84    85    1
    13    85    86    1
    14    49    50    1
    15    88    89    1
    16    88    86   am
    17    39    38    1
    18   101   102    1
    19   101   103    1
    20   101    98    1
    21   102   104    1
    22    97    98    1
    23    97    90   am
    24    50    52   ar
    25    50    51   ar
    26    99    98    1
    27    89    90    1
    28    86    87    2
    29    52    54   ar
    30    51    53   ar
    31    90    91    2
    32    54    55   ar
    33    38    37    1
    34    38    41    1
    35    53    55   ar
    36    55    56    1
    37   111   109    1
    38    41    42    1
    39    42    43    1
    40    42    44    1
    41     5     6    1
    42     5     2    1
    43   105   106    1
    44   109   106    1
    45   109   110    1
    46    66    67   ar
    47    66    64   ar
    48     6     8   ar
    49     6     7   ar
    50     1     2    1
    51     8    10   ar
    52   106   107    1
    53    67    65   ar
    54     7     9   ar
    55    10    11   ar
    56     2     3    1
    57     9    11   ar
    58    64    62   ar
    59    65    63   ar
    60     3     4    2
    61   107   112   am
    62   107   108    2
    63   112   113    1
    64    62    63   ar
    65    62    61    1
    66    61    58    1
    67   115   114    2
    68   116   113    1
    69   116   117    1
    70   113   114    1
    71    36    34   am
    72   114   120   am
    73   125   124    1
    74    80    81    1
    75    80    77    1
    76    81    82    1
    77    16    17    1
    78    16    13    1
    79    34    35    2
    80    34    33    1
    81    58    59    1
    82    58    57    1
    83    82    83    1
    84   118   117    1
    85    60    59    2
    86   117   119    1
    87    17    18    1
    88   120   121    1
    89    79    78    2
    90    12    13    1
    91    74    72    1
    92    78    77    1
    93   121   124    1
    94   121   122    1
    95    77    76    1
    96    13    14    1
    97    33    30    1
    98    18    19   ar
    99    18    20   ar
   100    72    69    1
   101    72    73    1
   102    70    71    2
   103    70    69    1
   104   131   130    1
   105    75    73    1
   106   126   122   am
   107   126   127    1
   108   122   123    2
   109    69    68    1
   110    14    15    2
   111    30    29    1
   112    30    31    1
   113   130   127    1
   114   127   128    1
   115    29    23   am
   116    31    32    2
   117   128   129    2
   118    27    26    1
   119    25    26    1
   120    25    22    1
   121    23    22    1
   122    23    24    2
   123    21    22    1
   124    26    28    1
