@<TRIPOS>MOLECULE
tmp/5gi7A02.pdb
 85 83 0 0 0
SMALL
GASTEIGER

@<TRIPOS>ATOM
      1  N         45.5780   73.9360   25.7930 N.3   164  HIS164     -0.1241
      2  CA        44.3930   73.1270   25.9830 C.3   164  HIS164      0.1621
      3  C         43.2060   73.7000   25.2100 C.2   164  HIS164      0.2264
      4  O         42.3210   72.9530   24.7950 O.2   164  HIS164     -0.2867
      5  CB        44.0540   72.9960   27.4650 C.3   164  HIS164      0.0745
      6  CG        42.9400   72.0350   27.7360 C.ar  164  HIS164      0.0817
      7  ND1       42.9760   70.7220   27.3200 N.ar  164  HIS164     -0.2268
      8  CD2       41.7480   72.1990   28.3580 C.ar  164  HIS164      0.1154
      9  CE1       41.8630   70.1140   27.6860 C.ar  164  HIS164      0.1986
     10  NE2       41.0980   70.9900   28.3160 N.ar  164  HIS164     -0.2212
     11  N         44.1710   63.0450   22.5780 N.3   177  GLU177     -0.1245
     12  CA        45.5110   63.2700   23.0890 C.3   177  GLU177      0.1567
     13  C         46.3600   62.0140   22.9450 C.2   177  GLU177      0.2260
     14  O         45.9030   60.8980   23.2330 O.2   177  GLU177     -0.2867
     15  CB        45.4410   63.6480   24.5640 C.3   177  GLU177      0.0388
     16  CG        46.7880   63.8520   25.2150 C.3   177  GLU177      0.1160
     17  CD        46.6640   64.0920   26.7000 C.2   177  GLU177      0.3649
     18  OE1       46.0430   65.1080   27.0840 O.co2 177  GLU177     -0.2457
     19  OE2       47.1690   63.2560   27.4820 O.co2 177  GLU177     -0.2457
     20  N         51.1440   64.7940   26.4600 N.3   180  ARG180     -0.1231
     21  CA        50.9260   66.1180   27.0300 C.3   180  ARG180      0.1694
     22  C         52.0990   66.5290   27.9090 C.2   180  ARG180      0.2592
     23  O         52.8290   65.6830   28.4310 O.2   180  ARG180     -0.2718
     24  CB        49.6280   66.1520   27.8400 C.3   180  ARG180      0.0321
     25  CG        49.6920   65.3320   29.1170 C.3   180  ARG180      0.0489
     26  CD        48.3580   65.2640   29.8570 C.3   180  ARG180      0.2205
     27  NE        48.5230   64.5070   31.0930 N.pl3 180  ARG180     -0.0865
     28  CZ        48.4650   63.1800   31.1830 C.cat 180  ARG180      0.5346
     29  NH1       48.1890   62.4420   30.1170 N.pl3 180  ARG180      0.1354
     30  NH2       48.6790   62.5890   32.3500 N.pl3 180  ARG180      0.1354
     31  N         52.2690   67.8380   28.0660 N.am  181  MET181     -0.1965
     32  CA        53.2650   68.3670   28.9890 C.3   181  MET181      0.1736
     33  C         52.7970   69.7110   29.5080 C.2   181  MET181      0.2616
     34  O         52.5480   70.6300   28.7220 O.2   181  MET181     -0.2715
     35  CB        54.6160   68.5260   28.3020 C.3   181  MET181      0.0427
     36  CG        55.6890   69.0650   29.2250 C.3   181  MET181      0.0599
     37  SD        57.2480   69.3640   28.3860 S.3   181  MET181     -0.1393
     38  CE        56.7310   70.6530   27.2600 C.3   181  MET181      0.0692
     39  N         52.6640   69.8290   30.8270 N.am  182  GLN182     -0.1977
     40  CA        52.3060   71.1090   31.4320 C.3   182  GLN182      0.1601
     41  C         53.4350   72.1180   31.2670 C.2   182  GLN182      0.2287
     42  O         54.6040   71.7720   31.4080 O.2   182  GLN182     -0.2864
     43  CB        52.0340   70.9370   32.9270 C.3   182  GLN182      0.0394
     44  CG        50.8410   70.0630   33.2630 C.3   182  GLN182      0.0908
     45  CD        50.6910   69.8490   34.7560 C.2   182  GLN182      0.2608
     46  OE1       50.9610   70.7450   35.5550 O.2   182  GLN182     -0.2717
     47  NE2       50.2800   68.6460   35.1430 N.am  182  GLN182     -0.0878
     48  N         45.6020   77.6520   29.7580 N.3   200  HIS200     -0.1226
     49  CA        46.3140   76.9990   28.6610 C.3   200  HIS200      0.1752
     50  C         46.8850   75.6440   29.0640 C.2   200  HIS200      0.2596
     51  O         46.8840   74.7110   28.2550 O.2   200  HIS200     -0.2718
     52  CB        47.4090   77.8970   28.1030 C.3   200  HIS200      0.0759
     53  CG        46.8860   79.1530   27.4980 C.ar  200  HIS200      0.0818
     54  ND1       46.1670   79.1580   26.3250 N.ar  200  HIS200     -0.2268
     55  CD2       46.9480   80.4400   27.9160 C.ar  200  HIS200      0.1154
     56  CE1       45.8130   80.3970   26.0410 C.ar  200  HIS200      0.1986
     57  NE2       46.2750   81.1950   26.9900 N.ar  200  HIS200     -0.2212
     58  N         47.3750   75.5730   30.3040 N.am  201  VAL201     -0.1966
     59  CA        47.9430   74.3730   30.9330 C.3   201  VAL201      0.1727
     60  C         49.2650   73.9040   30.3380 C.2   201  VAL201      0.2617
     61  O         50.2580   73.7910   31.0530 O.2   201  VAL201     -0.2715
     62  CB        46.9530   73.1860   30.9980 C.3   201  VAL201      0.0290
     63  CG1       47.5760   72.0340   31.7710 C.3   201  VAL201      0.0023
     64  CG2       45.6470   73.6100   31.6520 C.3   201  VAL201      0.0023
     65  N         49.2860   73.6210   29.0400 N.am  202  GLY202     -0.1940
     66  CA        50.4730   73.0680   28.4270 C.3   202  GLY202      0.2014
     67  C         50.2140   72.6440   27.0040 C.2   202  GLY202      0.2639
     68  O         49.1890   72.9880   26.4140 O.2   202  GLY202     -0.2714
     69  N         51.1530   71.8900   26.4500 N.am  203  ILE203     -0.1963
     70  CA        50.9760   71.3740   25.1100 C.3   203  ILE203      0.1727
     71  C         50.2850   70.0130   25.1640 C.2   203  ILE203      0.2616
     72  O         50.4540   69.2520   26.1230 O.2   203  ILE203     -0.2715
     73  CB        52.3070   71.3250   24.3180 C.3   203  ILE203      0.0290
     74  CG1       53.2640   70.2820   24.8950 C.3   203  ILE203      0.0022
     75  CG2       52.9480   72.7240   24.2300 C.3   203  ILE203      0.0023
     76  CD1       53.1570   68.8970   24.2700 C.3   203  ILE203      0.0001
     77  N         49.4920   69.7300   24.1380 N.am  204  GLN204     -0.1977
     78  CA        48.9430   68.4000   23.9240 C.3   204  GLN204      0.1601
     79  C         49.1520   68.0440   22.4700 C.2   204  GLN204      0.2287
     80  O         48.7520   68.7950   21.5740 O.2   204  GLN204     -0.2864
     81  CB        47.4520   68.3530   24.2410 C.3   204  GLN204      0.0394
     82  CG        47.1460   68.5160   25.7090 C.3   204  GLN204      0.0908
     83  CD        45.6660   68.6500   25.9720 C.2   204  GLN204      0.2608
     84  OE1       45.1470   69.7580   26.0450 O.2   204  GLN204     -0.2717
     85  NE2       44.9720   67.5260   26.0980 N.am  204  GLN204     -0.0878
@<TRIPOS>BOND
     1    80    79    2
     2    79    78    1
     3    11    12    1
     4    13    12    1
     5    13    14    2
     6    12    15    1
     7    78    77    1
     8    78    81    1
     9    77    71   am
    10    75    73    1
    11    81    82    1
    12    76    74    1
    13    73    74    1
    14    73    70    1
    15    15    16    1
    16     4     3    2
    17    70    71    1
    18    70    69    1
    19    71    72    2
    20     3     2    1
    21    16    17    1
    22    82    83    1
    23     1     2    1
    24    83    84    2
    25    83    85   am
    26     2     5    1
    27    56    54   ar
    28    56    57   ar
    29    54    53   ar
    30    68    67    2
    31    69    67   am
    32    20    21    1
    33    17    18   ar
    34    17    19   ar
    35    57    55   ar
    36    67    66    1
    37    21    24    1
    38    21    22    1
    39    38    37    1
    40     7     9   ar
    41     7     6   ar
    42     5     6    1
    43    53    55   ar
    44    53    52    1
    45     9    10   ar
    46     6     8   ar
    47    24    25    1
    48    22    31   am
    49    22    23    2
    50    31    32    1
    51    52    49    1
    52    51    50    2
    53    35    32    1
    54    35    36    1
    55    10     8   ar
    56    37    36    1
    57    66    65    1
    58    49    50    1
    59    49    48    1
    60    34    33    2
    61    32    33    1
    62    65    60   am
    63    50    58   am
    64    25    26    1
    65    33    39   am
    66    26    27    1
    67    29    28    1
    68    58    59    1
    69    60    59    1
    70    60    61    2
    71    39    40    1
    72    59    62    1
    73    62    64    1
    74    62    63    1
    75    27    28    2
    76    28    30    1
    77    41    42    2
    78    41    40    1
    79    40    43    1
    80    43    44    1
    81    44    45    1
    82    45    47   am
    83    45    46    2
