@<TRIPOS>MOLECULE
tmp/5gi9A02.pdb
 85 83 0 0 0
SMALL
GASTEIGER

@<TRIPOS>ATOM
      1  N         -1.5300   17.5270  -26.0560 N.3   164  HIS164     -0.1241
      2  CA        -0.3640   16.6970  -26.2560 C.3   164  HIS164      0.1621
      3  C          0.8380   17.2310  -25.4750 C.2   164  HIS164      0.2264
      4  O          1.7040   16.4530  -25.0720 O.2   164  HIS164     -0.2867
      5  CB        -0.0320   16.5640  -27.7410 C.3   164  HIS164      0.0745
      6  CG         1.0650   15.5860  -28.0170 C.ar  164  HIS164      0.0817
      7  ND1        1.0050   14.2700  -27.6140 N.ar  164  HIS164     -0.2268
      8  CD2        2.2570   15.7380  -28.6380 C.ar  164  HIS164      0.1154
      9  CE1        2.1120   13.6490  -27.9840 C.ar  164  HIS164      0.1986
     10  NE2        2.8860   14.5170  -28.6070 N.ar  164  HIS164     -0.2212
     11  N         -0.1160    6.5630  -22.7410 N.3   177  GLU177     -0.1245
     12  CA        -1.4550    6.7960  -23.2520 C.3   177  GLU177      0.1567
     13  C         -2.3160    5.5410  -23.1340 C.2   177  GLU177      0.2260
     14  O         -1.8630    4.4270  -23.4340 O.2   177  GLU177     -0.2867
     15  CB        -1.3770    7.2000  -24.7190 C.3   177  GLU177      0.0388
     16  CG        -2.7210    7.3740  -25.3770 C.3   177  GLU177      0.1160
     17  CD        -2.5930    7.5990  -26.8660 C.2   177  GLU177      0.3649
     18  OE1       -1.9400    8.5900  -27.2760 O.co2 177  GLU177     -0.2457
     19  OE2       -3.1300    6.7730  -27.6350 O.co2 177  GLU177     -0.2457
     20  N         -7.0820    8.3080  -26.6580 N.3   180  ARG180     -0.1231
     21  CA        -6.8620    9.6360  -27.2240 C.3   180  ARG180      0.1694
     22  C         -8.0360   10.0330  -28.0950 C.2   180  ARG180      0.2592
     23  O         -8.7420    9.1890  -28.6430 O.2   180  ARG180     -0.2718
     24  CB        -5.5530    9.6910  -28.0230 C.3   180  ARG180      0.0321
     25  CG        -5.5970    8.8930  -29.3080 C.3   180  ARG180      0.0489
     26  CD        -4.2710    8.8660  -30.0550 C.3   180  ARG180      0.2205
     27  NE        -4.4310    8.1040  -31.2870 N.pl3 180  ARG180     -0.0865
     28  CZ        -4.3600    6.7770  -31.3660 C.cat 180  ARG180      0.5346
     29  NH1       -4.1060    6.0470  -30.2830 N.pl3 180  ARG180      0.1354
     30  NH2       -4.5610    6.1920  -32.5330 N.pl3 180  ARG180      0.1354
     31  N         -8.2480   11.3360  -28.2190 N.am  181  MET181     -0.1965
     32  CA        -9.2620   11.8600  -29.1220 C.3   181  MET181      0.1736
     33  C         -8.8420   13.2270  -29.6380 C.2   181  MET181      0.2616
     34  O         -8.6190   14.1600  -28.8510 O.2   181  MET181     -0.2715
     35  CB       -10.6230   11.9510  -28.4280 C.3   181  MET181      0.0427
     36  CG       -11.7240   12.4620  -29.3410 C.3   181  MET181      0.0599
     37  SD       -13.2810   12.7290  -28.4870 S.3   181  MET181     -0.1393
     38  CE       -12.7600   13.9810  -27.3430 C.3   181  MET181      0.0692
     39  N         -8.7210   13.3490  -30.9560 N.am  182  GLN182     -0.1977
     40  CA        -8.3890   14.6340  -31.5630 C.3   182  GLN182      0.1601
     41  C         -9.5290   15.6320  -31.3770 C.2   182  GLN182      0.2287
     42  O        -10.7010   15.2710  -31.4760 O.2   182  GLN182     -0.2864
     43  CB        -8.1300   14.4710  -33.0640 C.3   182  GLN182      0.0394
     44  CG        -6.9480   13.5890  -33.4260 C.3   182  GLN182      0.0908
     45  CD        -6.8430   13.3660  -34.9210 C.2   182  GLN182      0.2608
     46  OE1       -7.0340   14.2880  -35.7120 O.2   182  GLN182     -0.2717
     47  NE2       -6.5610   12.1350  -35.3180 N.am  182  GLN182     -0.0878
     48  N         -1.6560   21.2280  -29.9780 N.3   200  HIS200     -0.1226
     49  CA        -2.3650   20.5850  -28.8710 C.3   200  HIS200      0.1752
     50  C         -2.9460   19.2300  -29.2570 C.2   200  HIS200      0.2596
     51  O         -2.9250   18.2890  -28.4550 O.2   200  HIS200     -0.2718
     52  CB        -3.4480   21.5040  -28.3070 C.3   200  HIS200      0.0759
     53  CG        -2.9000   22.7520  -27.6990 C.ar  200  HIS200      0.0818
     54  ND1       -2.1570   22.7410  -26.5390 N.ar  200  HIS200     -0.2268
     55  CD2       -2.9450   24.0420  -28.1080 C.ar  200  HIS200      0.1154
     56  CE1       -1.7860   23.9770  -26.2480 C.ar  200  HIS200      0.1986
     57  NE2       -2.2570   24.7850  -27.1810 N.ar  200  HIS200     -0.2212
     58  N         -3.4700   19.1650  -30.4800 N.am  201  VAL201     -0.1966
     59  CA        -4.0360   17.9580  -31.1040 C.3   201  VAL201      0.1727
     60  C         -5.3570   17.4800  -30.4980 C.2   201  VAL201      0.2617
     61  O         -6.3630   17.3670  -31.2020 O.2   201  VAL201     -0.2715
     62  CB        -3.0450   16.7660  -31.1780 C.3   201  VAL201      0.0290
     63  CG1       -3.6790   15.6170  -31.9550 C.3   201  VAL201      0.0023
     64  CG2       -1.7360   17.1890  -31.8310 C.3   201  VAL201      0.0023
     65  N         -5.3560   17.1760  -29.2060 N.am  202  GLY202     -0.1940
     66  CA        -6.5480   16.6440  -28.5710 C.3   202  GLY202      0.2014
     67  C         -6.2650   16.1790  -27.1590 C.2   202  GLY202      0.2639
     68  O         -5.2270   16.5060  -26.5730 O.2   202  GLY202     -0.2714
     69  N         -7.1930   15.4110  -26.6020 N.am  203  ILE203     -0.1963
     70  CA        -7.0100   14.8750  -25.2680 C.3   203  ILE203      0.1727
     71  C         -6.2990   13.5260  -25.3260 C.2   203  ILE203      0.2616
     72  O         -6.4620   12.7590  -26.2840 O.2   203  ILE203     -0.2715
     73  CB        -8.3590   14.7820  -24.4920 C.3   203  ILE203      0.0290
     74  CG1       -9.2910   13.7310  -25.1030 C.3   203  ILE203      0.0022
     75  CG2       -9.0370   16.1570  -24.4160 C.3   203  ILE203      0.0023
     76  CD1       -9.2150   12.3520  -24.4440 C.3   203  ILE203      0.0001
     77  N         -5.4980   13.2560  -24.3050 N.am  204  GLN204     -0.1977
     78  CA        -4.9330   11.9270  -24.1060 C.3   204  GLN204      0.1601
     79  C         -5.1270   11.5670  -22.6600 C.2   204  GLN204      0.2287
     80  O         -4.7130   12.3080  -21.7730 O.2   204  GLN204     -0.2864
     81  CB        -3.4420   11.8970  -24.4300 C.3   204  GLN204      0.0394
     82  CG        -3.1320   12.0200  -25.9140 C.3   204  GLN204      0.0908
     83  CD        -1.6470   12.1900  -26.1880 C.2   204  GLN204      0.2608
     84  OE1       -1.1500   13.3140  -26.2670 O.2   204  GLN204     -0.2717
     85  NE2       -0.9300   11.0770  -26.3360 N.am  204  GLN204     -0.0878
@<TRIPOS>BOND
     1    46    45    2
     2    47    45   am
     3    45    44    1
     4    44    43    1
     5    43    40    1
     6    30    28    1
     7    63    62    1
     8    64    62    1
     9    40    41    1
    10    40    39    1
    11    42    41    2
    12    28    27    2
    13    28    29    1
    14    27    26    1
    15    61    60    2
    16    62    59    1
    17    59    60    1
    18    59    58    1
    19    39    33   am
    20    60    65   am
    21    58    50   am
    22    26    25    1
    23    48    49    1
    24    33    32    1
    25    33    34    2
    26    36    37    1
    27    36    35    1
    28    25    24    1
    29    50    49    1
    30    50    51    2
    31    65    66    1
    32    32    35    1
    33    32    31    1
    34    49    52    1
    35    23    22    2
    36     8    10   ar
    37     8     6   ar
    38    10     9   ar
    39    66    67    1
    40    37    38    1
    41    52    53    1
    42    31    22   am
    43    55    53   ar
    44    55    57   ar
    45    22    21    1
    46    24    21    1
    47     6     5    1
    48     6     7   ar
    49     9     7   ar
    50     5     2    1
    51    53    54   ar
    52    19    17   ar
    53    18    17   ar
    54    21    20    1
    55    57    56   ar
    56    67    69   am
    57    67    68    2
    58    17    16    1
    59    69    70    1
    60    54    56   ar
    61    85    83   am
    62    72    71    2
    63    84    83    2
    64     2     1    1
    65     2     3    1
    66    83    82    1
    67    82    81    1
    68     3     4    2
    69    16    15    1
    70    71    70    1
    71    71    77   am
    72    70    73    1
    73    74    73    1
    74    74    76    1
    75    15    12    1
    76    73    75    1
    77    81    78    1
    78    77    78    1
    79    78    79    1
    80    14    13    2
    81    12    13    1
    82    12    11    1
    83    79    80    2
