@<TRIPOS>MOLECULE
tmp/5gi9A01.pdb
 150 143 0 0 0
SMALL
GASTEIGER

@<TRIPOS>ATOM
      1  N         -4.1890   28.1840  -13.8560 N.3    23  PHE23      -0.1241
      2  CA        -5.0200   27.1820  -14.5350 C.3    23  PHE23       0.1605
      3  C         -6.2900   27.7200  -15.2200 C.2    23  PHE23       0.2264
      4  O         -6.5700   27.3720  -16.3740 O.2    23  PHE23      -0.2867
      5  CB        -5.3980   26.0960  -13.5260 C.3    23  PHE23       0.0534
      6  CG        -6.0660   24.8990  -14.1300 C.ar   23  PHE23      -0.0203
      7  CD1       -5.3090   23.8450  -14.6390 C.ar   23  PHE23      -0.0042
      8  CD2       -7.4470   24.8070  -14.1680 C.ar   23  PHE23      -0.0042
      9  CE1       -5.9220   22.7180  -15.1810 C.ar   23  PHE23      -0.0003
     10  CE2       -8.0740   23.6880  -14.7120 C.ar   23  PHE23      -0.0003
     11  CZ        -7.3130   22.6420  -15.2280 C.ar   23  PHE23      -0.0000
     12  N         -4.7220   26.8960  -18.8450 N.3    27  GLU27      -0.1245
     13  CA        -4.9370   25.5480  -19.3510 C.3    27  GLU27       0.1567
     14  C         -5.5280   25.7250  -20.7590 C.2    27  GLU27       0.2260
     15  O         -6.3490   26.6100  -20.9820 O.2    27  GLU27      -0.2867
     16  CB        -5.8500   24.7670  -18.3960 C.3    27  GLU27       0.0388
     17  CG        -6.1340   23.3370  -18.8280 C.3    27  GLU27       0.1160
     18  CD        -7.1520   23.2950  -19.9490 C.2    27  GLU27       0.3649
     19  OE1       -8.1330   24.0680  -19.8750 O.co2  27  GLU27      -0.2457
     20  OE2       -6.9730   22.5270  -20.9240 O.co2  27  GLU27      -0.2457
     21  N         -7.7950   24.4680  -22.9120 N.3    29  LEU29      -0.1231
     22  CA        -9.2210   24.5850  -23.1950 C.3    29  LEU29       0.1693
     23  C         -9.8310   25.8140  -22.5190 C.2    29  LEU29       0.2592
     24  O        -10.6200   26.5370  -23.1340 O.2    29  LEU29      -0.2718
     25  CB        -9.9640   23.3140  -22.7930 C.3    29  LEU29       0.0284
     26  CG        -9.4890   22.0690  -23.5390 C.3    29  LEU29       0.0019
     27  CD1      -10.3080   20.8620  -23.1300 C.3    29  LEU29       0.0001
     28  CD2       -9.5630   22.2930  -25.0540 C.3    29  LEU29       0.0001
     29  N         -9.4590   26.0560  -21.2660 N.am   30  ASN30      -0.1974
     30  CA        -9.8960   27.2560  -20.5600 C.3    30  ASN30       0.1688
     31  C         -9.5310   28.5260  -21.3150 C.2    30  ASN30       0.2292
     32  O        -10.3440   29.4450  -21.4360 O.2    30  ASN30      -0.2864
     33  CB        -9.2860   27.3070  -19.1610 C.3    30  ASN30       0.1181
     34  CG        -9.8930   26.2870  -18.2300 C.2    30  ASN30       0.2629
     35  OD1      -10.9480   25.7190  -18.5200 O.2    30  ASN30      -0.2716
     36  ND2       -9.2370   26.0480  -17.1050 N.am   30  ASN30      -0.0877
     37  N        -16.1770   25.8790  -11.4040 N.3    41  LEU41      -0.1245
     38  CA       -14.8540   25.2650  -11.4330 C.3    41  LEU41       0.1561
     39  C        -14.1720   25.3690  -10.0710 C.2    41  LEU41       0.2260
     40  O        -13.4340   24.4690   -9.6700 O.2    41  LEU41      -0.2867
     41  CB       -13.9770   25.8640  -12.5390 C.3    41  LEU41       0.0270
     42  CG       -12.5470   25.3260  -12.6000 C.3    41  LEU41       0.0019
     43  CD1      -12.5660   23.8050  -12.6210 C.3    41  LEU41       0.0001
     44  CD2      -11.7910   25.8700  -13.8040 C.3    41  LEU41       0.0001
     45  N        -15.6860   22.4880   -8.3220 N.3    44  TYR44      -0.1241
     46  CA       -15.0770   21.2820   -8.8770 C.3    44  TYR44       0.1605
     47  C        -13.6880   21.0430   -8.2920 C.2    44  TYR44       0.2264
     48  O        -13.3280   19.9090   -7.9610 O.2    44  TYR44      -0.2867
     49  CB       -14.9880   21.4200  -10.4060 C.3    44  TYR44       0.0534
     50  CG       -14.3680   20.2400  -11.1400 C.ar   44  TYR44      -0.0201
     51  CD1      -15.1660   19.2340  -11.6720 C.ar   44  TYR44      -0.0009
     52  CD2      -12.9890   20.1490  -11.3250 C.ar   44  TYR44      -0.0009
     53  CE1      -14.6130   18.1630  -12.3510 C.ar   44  TYR44       0.0417
     54  CE2      -12.4240   19.0760  -12.0010 C.ar   44  TYR44       0.0417
     55  CZ       -13.2440   18.0880  -12.5120 C.ar   44  TYR44       0.1957
     56  OH       -12.6950   17.0190  -13.1860 O.3    44  TYR44      -0.2866
     57  N         -1.3440   19.6290   -7.5260 N.3    68  PHE68      -0.1241
     58  CA        -1.9210   18.5080   -8.2550 C.3    68  PHE68       0.1605
     59  C         -3.0470   17.9930   -7.3730 C.2    68  PHE68       0.2264
     60  O         -2.8090   17.4180   -6.2970 O.2    68  PHE68      -0.2867
     61  CB        -0.8820   17.4190   -8.5500 C.3    68  PHE68       0.0534
     62  CG        -1.2130   16.5530   -9.7490 C.ar   68  PHE68      -0.0203
     63  CD1       -2.5030   16.4760  -10.2610 C.ar   68  PHE68      -0.0042
     64  CD2       -0.2050   15.8240  -10.3640 C.ar   68  PHE68      -0.0042
     65  CE1       -2.7740   15.6770  -11.3790 C.ar   68  PHE68      -0.0003
     66  CE2       -0.4660   15.0360  -11.4620 C.ar   68  PHE68      -0.0003
     67  CZ        -1.7530   14.9660  -11.9760 C.ar   68  PHE68      -0.0000
     68  N        -17.7840   26.2060  -18.9650 N.3    94  PHE94      -0.1241
     69  CA       -17.3810   25.0510  -18.1770 C.3    94  PHE94       0.1605
     70  C        -18.2080   23.8300  -18.5730 C.2    94  PHE94       0.2264
     71  O        -17.6940   22.7130  -18.5880 O.2    94  PHE94      -0.2867
     72  CB       -17.5020   25.3490  -16.6790 C.3    94  PHE94       0.0534
     73  CG       -16.9410   24.2670  -15.7950 C.ar   94  PHE94      -0.0203
     74  CD1      -15.7670   23.6100  -16.1360 C.ar   94  PHE94      -0.0042
     75  CD2      -17.5800   23.9180  -14.6100 C.ar   94  PHE94      -0.0042
     76  CE1      -15.2470   22.6190  -15.3170 C.ar   94  PHE94      -0.0003
     77  CE2      -17.0620   22.9300  -13.7860 C.ar   94  PHE94      -0.0003
     78  CZ       -15.8980   22.2760  -14.1420 C.ar   94  PHE94      -0.0000
     79  N        -16.5810   21.9090  -21.2920 N.3    97  ILE97      -0.1245
     80  CA       -15.4820   21.0800  -20.8250 C.3    97  ILE97       0.1561
     81  C        -16.0290   19.8260  -20.1520 C.2    97  ILE97       0.2260
     82  O        -15.5660   18.7150  -20.4260 O.2    97  ILE97      -0.2867
     83  CB       -14.5440   21.8770  -19.9050 C.3    97  ILE97       0.0252
     84  CG1      -13.8010   22.9220  -20.7400 C.3    97  ILE97       0.0019
     85  CG2      -13.5480   20.9630  -19.2130 C.3    97  ILE97       0.0019
     86  CD1      -13.0530   23.9400  -19.9410 C.3    97  ILE97       0.0001
     87  N        -15.5900   15.8150  -21.1040 N.3   101  MET101     -0.1245
     88  CA       -15.2330   14.7790  -20.1420 C.3   101  MET101      0.1570
     89  C        -16.2520   13.6470  -20.1290 C.2   101  MET101      0.2261
     90  O        -15.8730   12.4740  -20.0880 O.2   101  MET101     -0.2867
     91  CB       -15.1040   15.3760  -18.7430 C.3   101  MET101      0.0387
     92  CG       -13.9610   16.3540  -18.6020 C.3   101  MET101      0.0595
     93  SD       -13.9450   17.0690  -16.9560 S.3   101  MET101     -0.1393
     94  CE       -12.3430   17.8680  -16.9620 C.3   101  MET101      0.0692
     95  N         -5.9230   11.9780  -11.2550 N.3   123  GLY123     -0.1210
     96  CA        -5.3100   13.3000  -11.2300 C.3   123  GLY123      0.1956
     97  C         -6.1940   14.2960  -11.9510 C.2   123  GLY123      0.2612
     98  O         -6.2940   14.2630  -13.1800 O.2   123  GLY123     -0.2717
     99  N         -6.8310   15.1870  -11.1940 N.am  124  LYS124     -0.1965
    100  CA        -7.8980   16.0160  -11.7500 C.3   124  LYS124      0.1728
    101  C         -7.4620   17.4060  -12.2200 C.2   124  LYS124      0.2616
    102  O         -7.9320   17.8830  -13.2540 O.2   124  LYS124     -0.2715
    103  CB        -9.0430   16.1470  -10.7450 C.3   124  LYS124      0.0311
    104  CG        -9.6230   14.8070  -10.3300 C.3   124  LYS124      0.0038
    105  CD       -10.6760   14.9480   -9.2480 C.3   124  LYS124      0.0206
    106  CE       -11.1520   13.5840   -8.7560 C.3   124  LYS124      0.1093
    107  NZ       -11.9430   12.8550   -9.7820 N.3   124  LYS124     -0.1314
    108  N         -6.5910   18.0650  -11.4570 N.am  125  ILE125     -0.1963
    109  CA        -6.1800   19.4300  -11.7770 C.3   125  ILE125      0.1727
    110  C         -4.6960   19.5700  -11.4780 C.2   125  ILE125      0.2616
    111  O         -4.2720   19.4280  -10.3230 O.2   125  ILE125     -0.2715
    112  CB        -6.9380   20.4880  -10.9340 C.3   125  ILE125      0.0290
    113  CG1       -8.4520   20.4140  -11.1530 C.3   125  ILE125      0.0022
    114  CG2       -6.3980   21.8910  -11.2130 C.3   125  ILE125      0.0023
    115  CD1       -8.9080   20.9060  -12.4880 C.3   125  ILE125      0.0001
    116  N         -3.9100   19.8520  -12.5180 N.am  126  LEU126     -0.1977
    117  CA        -2.4670   20.0430  -12.3920 C.3   126  LEU126      0.1596
    118  C         -2.0900   21.4290  -12.9100 C.2   126  LEU126      0.2287
    119  O         -2.4010   21.7820  -14.0500 O.2   126  LEU126     -0.2864
    120  CB        -1.7240   18.9610  -13.1830 C.3   126  LEU126      0.0297
    121  CG        -0.2150   19.1330  -13.3690 C.3   126  LEU126      0.0022
    122  CD1        0.5150   19.1220  -12.0220 C.3   126  LEU126      0.0001
    123  CD2        0.3350   18.0610  -14.2960 C.3   126  LEU126      0.0001
    124  N         -4.7400   10.0210  -15.4200 N.3   159  VAL159     -0.1231
    125  CA        -4.6890   11.4740  -15.5970 C.3   159  VAL159      0.1692
    126  C         -5.1560   11.8340  -16.9980 C.2   159  VAL159      0.2592
    127  O         -4.4880   11.5190  -17.9820 O.2   159  VAL159     -0.2718
    128  CB        -3.2560   12.0290  -15.3780 C.3   159  VAL159      0.0266
    129  CG1       -3.2320   13.5440  -15.5880 C.3   159  VAL159      0.0020
    130  CG2       -2.7170   11.6730  -13.9820 C.3   159  VAL159      0.0020
    131  N         -6.3030   12.4970  -17.0930 N.am  160  LEU160     -0.1966
    132  CA        -6.7590   13.0560  -18.3620 C.3   160  LEU160      0.1728
    133  C         -5.9520   14.3120  -18.6960 C.2   160  LEU160      0.2616
    134  O         -5.9700   15.2790  -17.9320 O.2   160  LEU160     -0.2715
    135  CB        -8.2390   13.4170  -18.2770 C.3   160  LEU160      0.0311
    136  CG        -8.7780   14.2420  -19.4520 C.3   160  LEU160      0.0022
    137  CD1       -8.9680   13.3620  -20.6540 C.3   160  LEU160      0.0001
    138  CD2      -10.0790   14.9620  -19.0860 C.3   160  LEU160      0.0001
    139  N         -5.2380   14.2920  -19.8170 N.am  161  CYS161     -0.1954
    140  CA        -4.4940   15.4680  -20.2690 C.3   161  CYS161      0.1843
    141  C         -5.2170   16.1750  -21.3980 C.2   161  CYS161      0.2626
    142  O         -5.7130   15.5430  -22.3230 O.2   161  CYS161     -0.2714
    143  CB        -3.0900   15.0800  -20.7220 C.3   161  CYS161      0.0997
    144  SG        -2.0730   14.4360  -19.4050 S.3   161  CYS161     -0.0797
    145  N         -5.2500   17.5020  -21.3350 N.am  162  SER162     -0.1950
    146  CA        -6.0350   18.2840  -22.2810 C.3   162  SER162      0.1924
    147  C         -5.2320   18.7760  -23.4770 C.2   162  SER162      0.2314
    148  O         -5.7430   19.5390  -24.2970 O.2   162  SER162     -0.2863
    149  CB        -6.6770   19.4720  -21.5700 C.3   162  SER162      0.2116
    150  OG        -5.6940   20.2680  -20.9280 O.3   162  SER162     -0.2180
@<TRIPOS>BOND
     1    28    26    1
     2   148   147    2
     3    26    27    1
     4    26    25    1
     5   147   146    1
     6    22    21    1
     7    22    25    1
     8    22    23    1
     9    24    23    2
    10    23    29   am
    11   142   141    2
    12   146   149    1
    13   146   145    1
    14   149   150    1
    15    32    31    2
    16   141   145   am
    17   141   140    1
    18    31    30    1
    19    79    80    1
    20    29    30    1
    21    87    88    1
    22    15    14    2
    23    20    18   ar
    24    80    81    1
    25    80    83    1
    26    14    13    1
    27    84    86    1
    28    84    83    1
    29   143   140    1
    30   143   144    1
    31   137   136    1
    32    30    33    1
    33    82    81    2
    34   140   139    1
    35    88    89    1
    36    88    91    1
    37    89    90    2
    38    18    19   ar
    39    18    17    1
    40    83    85    1
    41   139   133   am
    42   136   138    1
    43   136   135    1
    44    13    12    1
    45    13    16    1
    46    33    34    1
    47    68    69    1
    48    17    16    1
    49    91    92    1
    50   133   132    1
    51   133   134    2
    52    92    93    1
    53    71    70    2
    54    70    69    1
    55    35    34    2
    56   132   135    1
    57   132   131    1
    58    34    36   am
    59    69    72    1
    60   127   126    2
    61   131   126   am
    62   126   125    1
    63    94    93    1
    64    72    73    1
    65     4     3    2
    66    74    73   ar
    67    74    76   ar
    68    73    75   ar
    69   125   124    1
    70   125   128    1
    71   129   128    1
    72   128   130    1
    73    76    78   ar
    74    11     9   ar
    75    11    10   ar
    76     3     2    1
    77     9     7   ar
    78    10     8   ar
    79     7     6   ar
    80    75    77   ar
    81     2     1    1
    82     2     5    1
    83   123   121    1
    84     8     6   ar
    85    78    77   ar
    86     6     5    1
    87   119   118    2
    88    44    42    1
    89   121   120    1
    90   121   122    1
    91   102   101    2
    92    56    55    1
    93   120   117    1
    94    98    97    2
    95   118   117    1
    96    43    42    1
    97    42    41    1
    98    41    38    1
    99   116   117    1
   100   116   110   am
   101    55    53   ar
   102    55    54   ar
   103   115   113    1
   104    53    51   ar
   105   101   100    1
   106   101   108   am
   107    54    52   ar
   108    67    66   ar
   109    67    65   ar
   110    97    96    1
   111    97    99   am
   112   109   110    1
   113   109   108    1
   114   109   112    1
   115   100    99    1
   116   100   103    1
   117    51    50   ar
   118   110   111    2
   119    66    64   ar
   120    38    37    1
   121    38    39    1
   122    65    63   ar
   123    52    50   ar
   124    95    96    1
   125   114   112    1
   126   113   112    1
   127    50    49    1
   128   103   104    1
   129    49    46    1
   130    64    62   ar
   131   104   105    1
   132    63    62   ar
   133    39    40    2
   134   107   106    1
   135    62    61    1
   136   105   106    1
   137    46    45    1
   138    46    47    1
   139    61    58    1
   140    47    48    2
   141    58    57    1
   142    58    59    1
   143    59    60    2
