@<TRIPOS>MOLECULE
tmp/5gibA00.pdb
 83 82 0 0 0
SMALL
GASTEIGER

@<TRIPOS>ATOM
      1  N         12.8710  -23.7720   12.3930 N.3    23  HIS23      -0.1226
      2  CA        11.6810  -23.1030   11.8750 C.3    23  HIS23       0.1752
      3  C         12.0080  -22.2310   10.6660 C.2    23  HIS23       0.2596
      4  O         12.9720  -21.4650   10.6890 O.2    23  HIS23      -0.2718
      5  CB        11.0330  -22.2560   12.9730 C.3    23  HIS23       0.0759
      6  CG        10.0020  -21.2950   12.4680 C.ar   23  HIS23       0.0818
      7  ND1        8.6710  -21.6280   12.3450 N.ar   23  HIS23      -0.2268
      8  CD2       10.1070  -20.0090   12.0570 C.ar   23  HIS23       0.1154
      9  CE1        8.0000  -20.5900   11.8800 C.ar   23  HIS23       0.1986
     10  NE2        8.8490  -19.5940   11.6950 N.ar   23  HIS23      -0.2212
     11  N         11.2060  -22.3510    9.6120 N.am   24  PHE24      -0.1962
     12  CA        11.4180  -21.5600    8.4030 C.3    24  PHE24       0.1771
     13  C         10.1190  -20.9490    7.8790 C.2    24  PHE24       0.2619
     14  O         10.1360  -19.9020    7.2340 O.2    24  PHE24      -0.2715
     15  CB        12.0780  -22.4120    7.3120 C.3    24  PHE24       0.0574
     16  CG        11.2390  -23.5700    6.8440 C.ar   24  PHE24      -0.0200
     17  CD1       11.3140  -24.7990    7.4790 C.ar   24  PHE24      -0.0042
     18  CD2       10.3850  -23.4330    5.7610 C.ar   24  PHE24      -0.0042
     19  CE1       10.5470  -25.8660    7.0480 C.ar   24  PHE24      -0.0003
     20  CE2        9.6150  -24.4950    5.3270 C.ar   24  PHE24      -0.0003
     21  CZ         9.6970  -25.7130    5.9710 C.ar   24  PHE24      -0.0000
     22  N          8.9960  -21.6020    8.1580 N.am   25  CYS25      -0.1968
     23  CA         7.6990  -21.1110    7.7030 C.3    25  CYS25       0.1712
     24  C          6.5810  -21.4410    8.6860 C.2    25  CYS25       0.2296
     25  O          6.7650  -22.2260    9.6150 O.2    25  CYS25      -0.2864
     26  CB         7.3580  -21.6890    6.3270 C.3    25  CYS25       0.0983
     27  SG         8.1180  -20.8290    4.9310 S.3    25  CYS25      -0.0798
     28  N          5.9740  -20.8410   -1.8530 N.3    40  HIS40      -0.1226
     29  CA         7.3690  -20.4180   -1.8810 C.3    40  HIS40       0.1752
     30  C          8.1260  -20.9030   -0.6450 C.2    40  HIS40       0.2596
     31  O          9.3080  -20.6060   -0.4740 O.2    40  HIS40      -0.2718
     32  CB         7.4710  -18.8940   -2.0090 C.3    40  HIS40       0.0759
     33  CG         7.2760  -18.1580   -0.7200 C.ar   40  HIS40       0.0818
     34  ND1        6.0480  -17.6800   -0.3140 N.ar   40  HIS40      -0.2268
     35  CD2        8.1560  -17.8040    0.2460 C.ar   40  HIS40       0.1154
     36  CE1        6.1800  -17.0700    0.8510 C.ar   40  HIS40       0.1986
     37  NE2        7.4490  -17.1310    1.2120 N.ar   40  HIS40      -0.2212
     38  N          7.4390  -21.6530    0.2110 N.am   41  CYS41      -0.1970
     39  CA         8.0630  -22.2480    1.3880 C.3    41  CYS41       0.1712
     40  C          8.4220  -23.7080    1.1360 C.2    41  CYS41       0.2296
     41  O          8.8790  -24.4080    2.0400 O.2    41  CYS41      -0.2864
     42  CB         7.1380  -22.1470    2.6040 C.3    41  CYS41       0.0983
     43  SG         6.9610  -20.4890    3.2960 S.3    41  CYS41      -0.0798
     44  N          9.9240  -27.3050    0.2240 N.3    43  LYS43      -0.1245
     45  CA        11.1840  -28.0370    0.2570 C.3    43  LYS43       0.1561
     46  C         10.8940  -29.5270    0.4160 C.2    43  LYS43       0.2260
     47  O          9.7930  -29.9080    0.8180 O.2    43  LYS43      -0.2867
     48  CB        12.0890  -27.5270    1.3810 C.3    43  LYS43       0.0271
     49  CG        11.4150  -27.4130    2.7330 C.3    43  LYS43       0.0035
     50  CD        12.3090  -26.6900    3.7250 C.3    43  LYS43       0.0206
     51  CE        12.6090  -25.2730    3.2610 C.3    43  LYS43       0.1093
     52  NZ        13.4110  -24.5160    4.2610 N.3    43  LYS43      -0.1314
     53  N         14.4040  -14.3940   14.5110 N.3   126  TYR126     -0.1241
     54  CA        13.1280  -14.9710   14.9220 C.3   126  TYR126      0.1605
     55  C         12.9940  -14.9990   16.4390 C.2   126  TYR126      0.2264
     56  O         13.9380  -15.3580   17.1430 O.2   126  TYR126     -0.2867
     57  CB        12.9700  -16.3910   14.3700 C.3   126  TYR126      0.0534
     58  CG        12.9630  -16.4880   12.8620 C.ar  126  TYR126     -0.0201
     59  CD1       12.6780  -15.3810   12.0730 C.ar  126  TYR126     -0.0009
     60  CD2       13.2360  -17.6930   12.2260 C.ar  126  TYR126     -0.0009
     61  CE1       12.6710  -15.4720   10.6940 C.ar  126  TYR126      0.0417
     62  CE2       13.2310  -17.7930   10.8490 C.ar  126  TYR126      0.0417
     63  CZ        12.9470  -16.6790   10.0880 C.ar  126  TYR126      0.1957
     64  OH        12.9400  -16.7730    8.7160 O.3   126  TYR126     -0.2866
     65  N          9.7660  -11.9430    6.9720 N.3   169  GLN169     -0.1231
     66  CA        10.4550  -13.1920    6.6780 C.3   169  GLN169      0.1698
     67  C         10.3430  -14.1450    7.8620 C.2   169  GLN169      0.2592
     68  O         10.6750  -13.7850    8.9910 O.2   169  GLN169     -0.2718
     69  CB        11.9270  -12.9350    6.3420 C.3   169  GLN169      0.0381
     70  CG        12.1560  -11.9860    5.1710 C.3   169  GLN169      0.0905
     71  CD        12.1210  -10.5240    5.5800 C.2   169  GLN169      0.2608
     72  OE1       12.1510  -10.1980    6.7670 O.2   169  GLN169     -0.2717
     73  NE2       12.0580   -9.6350    4.5950 N.am  169  GLN169     -0.0878
     74  N          9.8690  -15.3580    7.6000 N.am  170  GLY170     -0.1957
     75  CA         9.6660  -16.3390    8.6500 C.3   170  GLY170      0.1869
     76  C          8.1960  -16.5250    8.9680 C.2   170  GLY170      0.2309
     77  O          7.7820  -17.5810    9.4480 O.2   170  GLY170     -0.2863
     78  N          6.0770  -16.4340    6.6450 N.3   172  SER172     -0.1217
     79  CA         5.5730  -16.9430    5.3740 C.3   172  SER172      0.1889
     80  C          4.8160  -18.2580    5.5300 C.2   172  SER172      0.2288
     81  O          5.2960  -19.1910    6.1730 O.2   172  SER172     -0.2866
     82  CB         6.7260  -17.1240    4.3880 C.3   172  SER172      0.2089
     83  OG         7.4420  -15.9140    4.2120 O.3   172  SER172     -0.2183
@<TRIPOS>BOND
     1    32    29    1
     2    32    33    1
     3    29    28    1
     4    29    30    1
     5    33    34   ar
     6    33    35   ar
     7    30    31    2
     8    30    38   am
     9    34    36   ar
    10    38    39    1
    11    44    45    1
    12    35    37   ar
    13    45    46    1
    14    45    48    1
    15    46    47    2
    16    36    37   ar
    17    40    39    1
    18    40    41    2
    19    48    49    1
    20    39    42    1
    21    42    43    1
    22    49    50    1
    23    51    50    1
    24    51    52    1
    25    43    27    1
    26    83    82    1
    27    82    79    1
    28    73    71   am
    29    27    26    1
    30    70    71    1
    31    70    69    1
    32    20    18   ar
    33    20    21   ar
    34    79    80    1
    35    79    78    1
    36    80    81    2
    37    71    72    2
    38    18    16   ar
    39    21    19   ar
    40    26    23    1
    41    69    66    1
    42    66    65    1
    43    66    67    1
    44    16    15    1
    45    16    17   ar
    46    19    17   ar
    47    14    13    2
    48    15    12    1
    49    74    67   am
    50    74    75    1
    51    23    22    1
    52    23    24    1
    53    67    68    2
    54    13    22   am
    55    13    12    1
    56    12    11    1
    57    75    76    1
    58    24    25    2
    59    64    63    1
    60    76    77    2
    61    11     3   am
    62    63    61   ar
    63    63    62   ar
    64     3     4    2
    65     3     2    1
    66    61    59   ar
    67    62    60   ar
    68    10     9   ar
    69    10     8   ar
    70     2     1    1
    71     2     5    1
    72     9     7   ar
    73     8     6   ar
    74    59    58   ar
    75    60    58   ar
    76     7     6   ar
    77     6     5    1
    78    58    57    1
    79    57    54    1
    80    53    54    1
    81    54    55    1
    82    55    56    2
