@<TRIPOS>MOLECULE
tmp/5gifA00.pdb
 113 105 0 0 0
SMALL
GASTEIGER

@<TRIPOS>ATOM
      1  N         92.3600   84.9950   13.7300 N.3    23  PHE23      -0.1241
      2  CA        93.1860   83.9670   14.3730 C.3    23  PHE23       0.1605
      3  C         94.4690   84.4690   15.0570 C.2    23  PHE23       0.2264
      4  O         94.7700   84.0670   16.1900 O.2    23  PHE23      -0.2867
      5  CB        93.5380   82.8810   13.3500 C.3    23  PHE23       0.0534
      6  CG        94.1360   81.6470   13.9540 C.ar   23  PHE23      -0.0203
      7  CD1       93.3210   80.6500   14.4750 C.ar   23  PHE23      -0.0042
      8  CD2       95.5100   81.4710   13.9940 C.ar   23  PHE23      -0.0042
      9  CE1       93.8640   79.5050   15.0290 C.ar   23  PHE23      -0.0003
     10  CE2       96.0600   80.3260   14.5530 C.ar   23  PHE23      -0.0003
     11  CZ        95.2360   79.3450   15.0740 C.ar   23  PHE23      -0.0000
     12  N         93.0600   83.4510   18.6550 N.3    27  ASP27      -0.1239
     13  CA        93.3250   82.1310   19.1960 C.3    27  ASP27       0.1674
     14  C         93.7990   82.3530   20.6340 C.2    27  ASP27       0.2266
     15  O         94.5560   83.2840   20.8900 O.2    27  ASP27      -0.2867
     16  CB        94.4040   81.4130   18.4010 C.3    27  ASP27       0.1410
     17  CG        94.9170   80.1870   19.1240 C.2    27  ASP27       0.3668
     18  OD1       94.3130   79.1010   18.9530 O.co2  27  ASP27      -0.2456
     19  OD2       95.8980   80.3240   19.8990 O.co2  27  ASP27      -0.2456
     20  N         96.0210   81.1310   22.6620 N.3    29  LEU29      -0.1231
     21  CA        97.4540   81.2450   22.9250 C.3    29  LEU29       0.1693
     22  C         98.0500   82.4700   22.2410 C.2    29  LEU29       0.2592
     23  O         98.8860   83.1670   22.8120 O.2    29  LEU29      -0.2718
     24  CB        98.1910   79.9750   22.5020 C.3    29  LEU29       0.0284
     25  CG        97.7140   78.7180   23.2300 C.3    29  LEU29       0.0019
     26  CD1       98.5480   77.5160   22.8180 C.3    29  LEU29       0.0001
     27  CD2       97.7400   78.9050   24.7480 C.3    29  LEU29       0.0001
     28  N         97.6160   82.7350   21.0130 N.am   30  ASN30      -0.1974
     29  CA        98.0910   83.9140   20.3010 C.3    30  ASN30       0.1688
     30  C         97.7480   85.1880   21.0590 C.2    30  ASN30       0.2292
     31  O         98.5870   86.0760   21.2010 O.2    30  ASN30      -0.2864
     32  CB        97.5090   83.9710   18.8880 C.3    30  ASN30       0.1181
     33  CG        98.0740   82.8970   17.9770 C.2    30  ASN30       0.2629
     34  OD1       99.1100   82.2980   18.2640 O.2    30  ASN30      -0.2716
     35  ND2       97.4000   82.6670   16.8540 N.am   30  ASN30      -0.0877
     36  N        104.2030   82.2900   11.6960 N.3    41  LEU41      -0.1245
     37  CA       102.8610   81.7220   11.6680 C.3    41  LEU41       0.1561
     38  C        102.2540   81.8110   10.2650 C.2    41  LEU41       0.2260
     39  O        101.4860   80.9390    9.8600 O.2    41  LEU41      -0.2867
     40  CB       101.9530   82.3810   12.7110 C.3    41  LEU41       0.0270
     41  CG       100.4990   81.8990   12.7590 C.3    41  LEU41       0.0019
     42  CD1      100.3770   80.3880   12.9420 C.3    41  LEU41       0.0001
     43  CD2       99.7530   82.6240   13.8620 C.3    41  LEU41       0.0001
     44  N        103.7310   78.8420    8.5690 N.3    44  TYR44      -0.1241
     45  CA       103.0850   77.6540    9.1200 C.3    44  TYR44       0.1605
     46  C        101.7080   77.4450    8.5010 C.2    44  TYR44       0.2264
     47  O        101.3070   76.3200    8.2060 O.2    44  TYR44      -0.2867
     48  CB       102.9700   77.8290   10.6380 C.3    44  TYR44       0.0534
     49  CG       102.3380   76.6980   11.4260 C.ar   44  TYR44      -0.0201
     50  CD1      103.1260   75.7760   12.0930 C.ar   44  TYR44      -0.0009
     51  CD2      100.9590   76.5870   11.5520 C.ar   44  TYR44      -0.0009
     52  CE1      102.5660   74.7570   12.8370 C.ar   44  TYR44       0.0417
     53  CE2      100.3850   75.5660   12.3000 C.ar   44  TYR44       0.0417
     54  CZ       101.1990   74.6540   12.9400 C.ar   44  TYR44       0.1957
     55  OH       100.6600   73.6320   13.6910 O.3    44  TYR44      -0.2866
     56  N        106.2400   82.9820   19.1080 N.3    94  PHE94      -0.1241
     57  CA       105.8460   81.7990   18.3570 C.3    94  PHE94       0.1605
     58  C        106.6870   80.5870   18.7600 C.2    94  PHE94       0.2264
     59  O        106.1980   79.4580   18.7310 O.2    94  PHE94      -0.2867
     60  CB       105.8940   82.0330   16.8470 C.3    94  PHE94       0.0534
     61  CG       105.1020   81.0210   16.0570 C.ar   94  PHE94      -0.0203
     62  CD1      103.7470   80.8370   16.3050 C.ar   94  PHE94      -0.0042
     63  CD2      105.7090   80.2550   15.0710 C.ar   94  PHE94      -0.0042
     64  CE1      103.0120   79.9050   15.5870 C.ar   94  PHE94      -0.0003
     65  CE2      104.9790   79.3260   14.3410 C.ar   94  PHE94      -0.0003
     66  CZ       103.6300   79.1500   14.6010 C.ar   94  PHE94      -0.0000
     67  N        104.9700   78.7320   21.4240 N.3    97  ILE97      -0.1245
     68  CA       103.8920   77.9070   20.8900 C.3    97  ILE97       0.1561
     69  C        104.4370   76.6380   20.2400 C.2    97  ILE97       0.2260
     70  O        103.9460   75.5400   20.5040 O.2    97  ILE97      -0.2867
     71  CB       103.0230   78.7020   19.9070 C.3    97  ILE97       0.0252
     72  CG1      102.2270   79.7620   20.6750 C.3    97  ILE97       0.0019
     73  CG2      102.0870   77.7820   19.1300 C.3    97  ILE97       0.0019
     74  CD1      101.5800   80.8010   19.8020 C.3    97  ILE97       0.0001
     75  N        103.9670   72.6140   21.2000 N.3   101  MET101     -0.1245
     76  CA       103.6050   71.5790   20.2380 C.3   101  MET101      0.1570
     77  C        104.6110   70.4360   20.2250 C.2   101  MET101      0.2261
     78  O        104.2230   69.2680   20.1990 O.2   101  MET101     -0.2867
     79  CB       103.4510   72.1830   18.8440 C.3   101  MET101      0.0387
     80  CG       102.2720   73.1280   18.7280 C.3   101  MET101      0.0595
     81  SD       102.0130   73.6600   17.0330 S.3   101  MET101     -0.1393
     82  CE       100.4470   74.5010   17.1930 C.3   101  MET101      0.0692
     83  N         95.0030   71.8580   11.0900 N.3   124  LYS124     -0.1231
     84  CA        96.0840   72.7090   11.5810 C.3   124  LYS124      0.1693
     85  C         95.6650   74.1030   12.0500 C.2   124  LYS124      0.2591
     86  O         96.1740   74.5940   13.0540 O.2   124  LYS124     -0.2718
     87  CB        97.1740   72.8250   10.5120 C.3   124  LYS124      0.0285
     88  CG        97.7510   71.4740   10.1260 C.3   124  LYS124      0.0035
     89  CD        98.7880   71.5750    9.0220 C.3   124  LYS124      0.0206
     90  CE        99.2600   70.2000    8.5660 C.3   124  LYS124      0.1093
     91  NZ       100.0680   69.4970    9.5920 N.3   124  LYS124     -0.1314
     92  N         94.7610   74.7480   11.3150 N.am  125  ILE125     -0.1980
     93  CA        94.3340   76.1140   11.6190 C.3   125  ILE125      0.1595
     94  C         92.8430   76.2390   11.3240 C.2   125  ILE125      0.2287
     95  O         92.4200   76.0660   10.1830 O.2   125  ILE125     -0.2864
     96  CB        95.0740   77.1700   10.7460 C.3   125  ILE125      0.0276
     97  CG1       96.5970   77.0930   10.9220 C.3   125  ILE125      0.0022
     98  CG2       94.5500   78.5750   11.0340 C.3   125  ILE125      0.0022
     99  CD1       97.0990   77.6130   12.2590 C.3   125  ILE125      0.0001
    100  N         94.6410   69.1380   17.0570 N.3   160  LEU160     -0.1245
    101  CA        95.1240   69.6710   18.3250 C.3   160  LEU160      0.1561
    102  C         94.4050   70.9790   18.6370 C.2   160  LEU160      0.2260
    103  O         94.5150   71.9490   17.8940 O.2   160  LEU160     -0.2867
    104  CB        96.6400   69.8880   18.2740 C.3   160  LEU160      0.0270
    105  CG        97.2370   70.7450   19.3990 C.3   160  LEU160      0.0019
    106  CD1       97.2620   69.9780   20.6940 C.3   160  LEU160      0.0001
    107  CD2       98.6310   71.2490   19.0240 C.3   160  LEU160      0.0001
    108  N         93.7580   74.2410   21.0750 N.3   162  SER162     -0.1217
    109  CA        94.5200   75.0860   21.9900 C.3   162  SER162      0.1889
    110  C         93.7500   75.5400   23.2300 C.2   162  SER162      0.2288
    111  O         94.3000   76.2440   24.0740 O.2   162  SER162     -0.2866
    112  CB        95.0650   76.3000   21.2460 C.3   162  SER162      0.2089
    113  OG        94.0090   77.0170   20.6390 O.3   162  SER162     -0.2183
@<TRIPOS>BOND
     1    47    46    2
     2    46    45    1
     3    90    89    1
     4    90    91    1
     5    44    45    1
     6    89    88    1
     7    45    48    1
     8    39    38    2
     9    88    87    1
    10    95    94    2
    11    38    37    1
    12    87    84    1
    13    48    49    1
    14    96    97    1
    15    96    98    1
    16    96    93    1
    17    97    99    1
    18    83    84    1
    19    92    93    1
    20    92    85   am
    21    94    93    1
    22    49    51   ar
    23    49    50   ar
    24    51    53   ar
    25    84    85    1
    26    37    36    1
    27    37    40    1
    28    85    86    2
    29    50    52   ar
    30    53    54   ar
    31    40    41    1
    32    41    42    1
    33    41    43    1
    34    52    54   ar
    35    54    55    1
    36     5     6    1
    37     5     2    1
    38     1     2    1
    39     6     8   ar
    40     6     7   ar
    41     8    10   ar
    42    65    66   ar
    43    65    63   ar
    44     2     3    1
    45     7     9   ar
    46    10    11   ar
    47    66    64   ar
    48     9    11   ar
    49     3     4    2
    50    63    61   ar
    51    64    62   ar
    52    61    62   ar
    53    61    60    1
    54    60    57    1
    55    35    33   am
    56    81    82    1
    57    81    80    1
    58   100   101    1
    59   103   102    2
    60    33    34    2
    61    33    32    1
    62   104   101    1
    63   104   105    1
    64   101   102    1
    65    57    58    1
    66    57    56    1
    67    16    17    1
    68    16    13    1
    69    12    13    1
    70    80    79    1
    71    59    58    2
    72    79    76    1
    73    32    29    1
    74    18    17   ar
    75   107   105    1
    76    17    19   ar
    77    73    71    1
    78    13    14    1
    79   105   106    1
    80    74    72    1
    81    71    72    1
    82    71    68    1
    83    78    77    2
    84    77    76    1
    85    76    75    1
    86    69    70    2
    87    69    68    1
    88    29    28    1
    89    29    30    1
    90    14    15    2
    91   113   112    1
    92    68    67    1
    93    28    22   am
    94    30    31    2
    95   108   109    1
    96   112   109    1
    97   109   110    1
    98    22    23    2
    99    22    21    1
   100    24    21    1
   101    24    25    1
   102    20    21    1
   103    26    25    1
   104    25    27    1
   105   110   111    2
