@<TRIPOS>MOLECULE
tmp/5gigA01.pdb
 149 142 0 0 0
SMALL
GASTEIGER

@<TRIPOS>ATOM
      1  N         92.5450   84.4260   13.7060 N.3    23  PHE23      -0.1241
      2  CA        93.4140   83.4500   14.3690 C.3    23  PHE23       0.1605
      3  C         94.6880   83.9990   15.0230 C.2    23  PHE23       0.2264
      4  O         95.0030   83.6460   16.1690 O.2    23  PHE23      -0.2867
      5  CB        93.7810   82.3360   13.3820 C.3    23  PHE23       0.0534
      6  CG        94.5030   81.1790   14.0110 C.ar   23  PHE23      -0.0203
      7  CD1       93.7920   80.1200   14.5430 C.ar   23  PHE23      -0.0042
      8  CD2       95.8860   81.1370   14.0510 C.ar   23  PHE23      -0.0042
      9  CE1       94.4440   79.0480   15.1220 C.ar   23  PHE23      -0.0003
     10  CE2       96.5450   80.0710   14.6350 C.ar   23  PHE23      -0.0003
     11  CZ        95.8210   79.0240   15.1680 C.ar   23  PHE23      -0.0000
     12  N         93.2570   83.0020   18.5690 N.3    27  ASP27      -0.1239
     13  CA        93.5080   81.6950   19.1480 C.3    27  ASP27       0.1674
     14  C         93.9940   81.9460   20.5770 C.2    27  ASP27       0.2266
     15  O         94.8040   82.8420   20.7980 O.2    27  ASP27      -0.2867
     16  CB        94.5720   80.9130   18.3980 C.3    27  ASP27       0.1410
     17  CG        94.8890   79.6110   19.0940 C.2    27  ASP27       0.3668
     18  OD1       94.1700   78.6200   18.8380 O.co2  27  ASP27      -0.2456
     19  OD2       95.8130   79.6000   19.9510 O.co2  27  ASP27      -0.2456
     20  N         96.1730   80.7520   22.6120 N.3    29  LEU29      -0.1231
     21  CA        97.6150   80.8330   22.8500 C.3    29  LEU29       0.1693
     22  C         98.2020   82.0940   22.2340 C.2    29  LEU29       0.2592
     23  O         99.0370   82.7540   22.8400 O.2    29  LEU29      -0.2718
     24  CB        98.3330   79.6050   22.2860 C.3    29  LEU29       0.0284
     25  CG        97.8100   78.2530   22.7480 C.3    29  LEU29       0.0019
     26  CD1       98.6240   77.1240   22.1340 C.3    29  LEU29       0.0001
     27  CD2       97.8430   78.1810   24.2550 C.3    29  LEU29       0.0001
     28  N         97.7610   82.4190   21.0230 N.am   30  ASN30      -0.1974
     29  CA        98.2440   83.6150   20.3520 C.3    30  ASN30       0.1688
     30  C         97.8620   84.8650   21.1240 C.2    30  ASN30       0.2292
     31  O         98.6620   85.7900   21.2570 O.2    30  ASN30      -0.2864
     32  CB        97.7000   83.7040   18.9290 C.3    30  ASN30       0.1181
     33  CG        98.3350   82.7040   18.0050 C.2    30  ASN30       0.2629
     34  OD1       99.4270   82.1950   18.2730 O.2    30  ASN30      -0.2716
     35  ND2       97.6570   82.4090   16.9010 N.am   30  ASN30      -0.0877
     36  N        104.3630   81.9310   11.5710 N.3    41  LEU41      -0.1245
     37  CA       103.0140   81.3760   11.5460 C.3    41  LEU41       0.1561
     38  C        102.3880   81.4850   10.1500 C.2    41  LEU41       0.2260
     39  O        101.6090   80.6250    9.7510 O.2    41  LEU41      -0.2867
     40  CB       102.1270   82.0120   12.6180 C.3    41  LEU41       0.0270
     41  CG       100.6700   81.5440   12.6700 C.3    41  LEU41       0.0019
     42  CD1      100.5600   80.0450   12.8990 C.3    41  LEU41       0.0001
     43  CD2       99.9220   82.2890   13.7560 C.3    41  LEU41       0.0001
     44  N        103.9130   78.5440    8.4540 N.3    44  TYR44      -0.1241
     45  CA       103.2850   77.3550    9.0170 C.3    44  TYR44       0.1605
     46  C        101.9000   77.1250    8.4100 C.2    44  TYR44       0.2264
     47  O        101.5250   75.9950    8.1050 O.2    44  TYR44      -0.2867
     48  CB       103.1830   77.5320   10.5330 C.3    44  TYR44       0.0534
     49  CG       102.5640   76.3790   11.2900 C.ar   44  TYR44      -0.0201
     50  CD1      103.3620   75.4120   11.8770 C.ar   44  TYR44      -0.0009
     51  CD2      101.1830   76.2680   11.4320 C.ar   44  TYR44      -0.0009
     52  CE1      102.8060   74.3610   12.5810 C.ar   44  TYR44       0.0417
     53  CE2      100.6160   75.2210   12.1370 C.ar   44  TYR44       0.0417
     54  CZ       101.4390   74.2680   12.7040 C.ar   44  TYR44       0.1957
     55  OH       100.8990   73.2180   13.4040 O.3    44  TYR44      -0.2866
     56  N         89.7320   75.9110    7.3350 N.3    68  PHE68      -0.1241
     57  CA        90.3150   74.7960    8.0720 C.3    68  PHE68       0.1605
     58  C         91.4340   74.2870    7.1820 C.2    68  PHE68       0.2264
     59  O         91.1950   73.7340    6.0940 O.2    68  PHE68      -0.2867
     60  CB        89.2850   73.6970    8.3750 C.3    68  PHE68       0.0534
     61  CG        89.6190   72.8450    9.5820 C.ar   68  PHE68      -0.0203
     62  CD1       90.9060   72.7860   10.1040 C.ar   68  PHE68      -0.0042
     63  CD2       88.6190   72.1040   10.1990 C.ar   68  PHE68      -0.0042
     64  CE1       91.1760   72.0030   11.2190 C.ar   68  PHE68      -0.0003
     65  CE2       88.8830   71.3330   11.3140 C.ar   68  PHE68      -0.0003
     66  CZ        90.1670   71.2780   11.8160 C.ar   68  PHE68      -0.0000
     67  N        106.2860   82.6310   18.9720 N.3    94  PHE94      -0.1241
     68  CA       105.8890   81.4420   18.2220 C.3    94  PHE94       0.1605
     69  C        106.7370   80.2190   18.5940 C.2    94  PHE94       0.2264
     70  O        106.2530   79.0870   18.5320 O.2    94  PHE94      -0.2867
     71  CB       105.9120   81.6810   16.7110 C.3    94  PHE94       0.0534
     72  CG       105.1480   80.6420   15.9240 C.ar   94  PHE94      -0.0203
     73  CD1      103.8040   80.3960   16.1900 C.ar   94  PHE94      -0.0042
     74  CD2      105.7720   79.9090   14.9230 C.ar   94  PHE94      -0.0042
     75  CE1      103.0990   79.4450   15.4710 C.ar   94  PHE94      -0.0003
     76  CE2      105.0700   78.9570   14.1980 C.ar   94  PHE94      -0.0003
     77  CZ       103.7340   78.7180   14.4780 C.ar   94  PHE94      -0.0000
     78  N        105.0160   78.3600   21.2620 N.3    97  ILE97      -0.1245
     79  CA       103.9210   77.5440   20.7730 C.3    97  ILE97       0.1561
     80  C        104.4570   76.2720   20.1120 C.2    97  ILE97       0.2260
     81  O        103.9800   75.1720   20.3960 O.2    97  ILE97      -0.2867
     82  CB       103.0310   78.3580   19.8330 C.3    97  ILE97       0.0252
     83  CG1      102.3320   79.4570   20.6390 C.3    97  ILE97       0.0019
     84  CG2      102.0200   77.4690   19.1370 C.3    97  ILE97       0.0019
     85  CD1      101.5590   80.4510   19.8160 C.3    97  ILE97       0.0001
     86  N        103.9940   72.2660   21.0610 N.3   101  MET101     -0.1245
     87  CA       103.6680   71.2200   20.0980 C.3   101  MET101      0.1570
     88  C        104.6810   70.0820   20.1370 C.2   101  MET101      0.2261
     89  O        104.2980   68.9080   20.1380 O.2   101  MET101     -0.2867
     90  CB       103.6060   71.7980   18.6920 C.3   101  MET101      0.0387
     91  CG       102.4800   72.7810   18.4890 C.3   101  MET101      0.0595
     92  SD       102.4650   73.3920   16.8030 S.3   101  MET101     -0.1393
     93  CE       100.9190   74.2850   16.8020 C.3   101  MET101      0.0692
     94  N         94.3290   68.2560   11.0940 N.3   123  GLY123     -0.1210
     95  CA        93.6930   69.5630   11.0470 C.3   123  GLY123      0.1956
     96  C         94.5620   70.5680   11.7610 C.2   123  GLY123      0.2612
     97  O         94.7140   70.4950   12.9760 O.2   123  GLY123     -0.2717
     98  N         95.1370   71.5040   11.0140 N.am  124  LYS124     -0.1965
     99  CA        96.2230   72.3330   11.5330 C.3   124  LYS124      0.1728
    100  C         95.8140   73.7250   12.0080 C.2   124  LYS124      0.2616
    101  O         96.3010   74.2000   13.0380 O.2   124  LYS124     -0.2715
    102  CB        97.3440   72.4540   10.4910 C.3   124  LYS124      0.0311
    103  CG        97.9690   71.1170   10.1250 C.3   124  LYS124      0.0038
    104  CD        98.8970   71.2280    8.9260 C.3   124  LYS124      0.0206
    105  CE        99.3880   69.8600    8.4580 C.3   124  LYS124      0.1093
    106  NZ       100.2600   69.2100    9.4670 N.3   124  LYS124     -0.1314
    107  N         94.9440   74.3900   11.2530 N.am  125  ILE125     -0.1963
    108  CA        94.5410   75.7600   11.5560 C.3   125  ILE125      0.1727
    109  C         93.0620   75.9130   11.2600 C.2   125  ILE125      0.2616
    110  O         92.6450   75.8100   10.1050 O.2   125  ILE125     -0.2715
    111  CB        95.2980   76.8090   10.6970 C.3   125  ILE125      0.0290
    112  CG1       96.8180   76.7460   10.9120 C.3   125  ILE125      0.0022
    113  CG2       94.7750   78.2100   10.9820 C.3   125  ILE125      0.0023
    114  CD1       97.2650   77.2010   12.2880 C.3   125  ILE125      0.0001
    115  N         92.2760   76.1550   12.3040 N.am  126  LEU126     -0.1977
    116  CA        90.8360   76.3390   12.1910 C.3   126  LEU126      0.1596
    117  C         90.4680   77.7270   12.7130 C.2   126  LEU126      0.2287
    118  O         90.7880   78.0710   13.8510 O.2   126  LEU126     -0.2864
    119  CB        90.1090   75.2640   12.9970 C.3   126  LEU126      0.0297
    120  CG        88.5980   75.4190   13.1680 C.3   126  LEU126      0.0022
    121  CD1       87.8640   75.3630   11.8350 C.3   126  LEU126      0.0001
    122  CD2       88.0710   74.3660   14.1180 C.3   126  LEU126      0.0001
    123  N         93.1320   66.3100   15.2530 N.3   159  VAL159     -0.1231
    124  CA        93.0870   67.7680   15.4360 C.3   159  VAL159      0.1692
    125  C         93.5700   68.1360   16.8340 C.2   159  VAL159      0.2592
    126  O         92.9080   67.8320   17.8280 O.2   159  VAL159     -0.2718
    127  CB        91.6530   68.3280   15.2310 C.3   159  VAL159      0.0266
    128  CG1       91.6320   69.8390   15.4040 C.3   159  VAL159      0.0020
    129  CG2       91.1090   67.9420   13.8680 C.3   159  VAL159      0.0020
    130  N         94.7330   68.7690   16.9220 N.am  160  LEU160     -0.1966
    131  CA        95.1860   69.3040   18.1980 C.3   160  LEU160      0.1728
    132  C         94.4490   70.6090   18.4790 C.2   160  LEU160      0.2616
    133  O         94.5200   71.5580   17.6980 O.2   160  LEU160     -0.2715
    134  CB        96.6960   69.5340   18.1840 C.3   160  LEU160      0.0311
    135  CG        97.2920   69.9070   19.5470 C.3   160  LEU160      0.0022
    136  CD1       98.6830   69.3240   19.6940 C.3   160  LEU160      0.0001
    137  CD2       97.3410   71.4020   19.7140 C.3   160  LEU160      0.0001
    138  N         93.7320   70.6470   19.5970 N.am  161  CYS161     -0.1954
    139  CA        92.9890   71.8350   19.9970 C.3   161  CYS161      0.1843
    140  C         93.7080   72.6080   21.0930 C.2   161  CYS161      0.2626
    141  O         94.2040   72.0210   22.0580 O.2   161  CYS161     -0.2714
    142  CB        91.5900   71.4620   20.4740 C.3   161  CYS161      0.0997
    143  SG        90.5650   70.7750   19.1770 S.3   161  CYS161     -0.0797
    144  N         93.7420   73.9290   20.9470 N.am  162  SER162     -0.1950
    145  CA        94.4650   74.7990   21.8730 C.3   162  SER162      0.1924
    146  C         93.6730   75.2240   23.1160 C.2   162  SER162      0.2314
    147  O         94.1880   75.9450   23.9600 O.2   162  SER162     -0.2863
    148  CB        94.9290   76.0410   21.1220 C.3   162  SER162      0.2116
    149  OG        93.8240   76.6160   20.4650 O.3   162  SER162     -0.2180
@<TRIPOS>BOND
     1    59    58    2
     2    58    57    1
     3    56    57    1
     4    57    60    1
     5    47    46    2
     6    60    61    1
     7    46    45    1
     8    44    45    1
     9   105   104    1
    10   105   106    1
    11   104   103    1
    12    45    48    1
    13    61    62   ar
    14    61    63   ar
    15    39    38    2
    16    62    64   ar
    17   110   109    2
    18   103   102    1
    19    38    37    1
    20    63    65   ar
    21   102    99    1
    22    48    49    1
    23   111   112    1
    24   111   113    1
    25   111   108    1
    26   112   114    1
    27    98    99    1
    28    98    96   am
    29    95    94    1
    30    95    96    1
    31    64    66   ar
    32   107   108    1
    33   107   100   am
    34   109   108    1
    35   109   115   am
    36    49    51   ar
    37    49    50   ar
    38    65    66   ar
    39    51    53   ar
    40    99   100    1
    41    37    36    1
    42    37    40    1
    43    96    97    2
    44   121   120    1
    45    50    52   ar
    46   100   101    2
    47    53    54   ar
    48   116   115    1
    49   116   117    1
    50   116   119    1
    51    52    54   ar
    52    40    41    1
    53    41    42    1
    54    41    43    1
    55    54    55    1
    56   117   118    2
    57   119   120    1
    58   120   122    1
    59     5     6    1
    60     5     2    1
    61     1     2    1
    62   129   127    1
    63     6     8   ar
    64     6     7   ar
    65     8    10   ar
    66    76    77   ar
    67    76    74   ar
    68     2     3    1
    69    77    75   ar
    70     7     9   ar
    71    10    11   ar
    72    74    72   ar
    73     3     4    2
    74     9    11   ar
    75   127   128    1
    76   127   124    1
    77   123   124    1
    78   124   125    1
    79    75    73   ar
    80    72    73   ar
    81    72    71    1
    82    71    68    1
    83    93    92    1
    84    92    91    1
    85   125   130   am
    86   125   126    2
    87    35    33   am
    88   130   131    1
    89   133   132    2
    90    33    34    2
    91    33    32    1
    92   134   131    1
    93   134   135    1
    94   131   132    1
    95    68    69    1
    96    68    67    1
    97    16    17    1
    98    16    13    1
    99   132   138   am
   100    91    90    1
   101    70    69    2
   102    12    13    1
   103    90    87    1
   104    18    17   ar
   105    32    29    1
   106    17    19   ar
   107    84    82    1
   108    13    14    1
   109   143   142    1
   110   135   136    1
   111   135   137    1
   112   138   139    1
   113    85    83    1
   114    82    83    1
   115    82    79    1
   116   139   142    1
   117   139   140    1
   118    87    88    1
   119    87    86    1
   120    80    81    2
   121    80    79    1
   122    88    89    2
   123    29    28    1
   124    29    30    1
   125   149   148    1
   126    14    15    2
   127    79    78    1
   128   144   140   am
   129   144   145    1
   130    28    22   am
   131   140   141    2
   132   148   145    1
   133    30    31    2
   134   145   146    1
   135    26    25    1
   136    22    23    2
   137    22    21    1
   138    24    25    1
   139    24    21    1
   140    20    21    1
   141    25    27    1
   142   146   147    2
