@<TRIPOS>MOLECULE
tmp/5gigA00.pdb
 173 167 0 0 0
SMALL
GASTEIGER

@<TRIPOS>ATOM
      1  N         92.5450   84.4260   13.7060 N.3    23  PHE23      -0.1241
      2  CA        93.4140   83.4500   14.3690 C.3    23  PHE23       0.1605
      3  C         94.6880   83.9990   15.0230 C.2    23  PHE23       0.2264
      4  O         95.0030   83.6460   16.1690 O.2    23  PHE23      -0.2867
      5  CB        93.7810   82.3360   13.3820 C.3    23  PHE23       0.0534
      6  CG        94.5030   81.1790   14.0110 C.ar   23  PHE23      -0.0203
      7  CD1       93.7920   80.1200   14.5430 C.ar   23  PHE23      -0.0042
      8  CD2       95.8860   81.1370   14.0510 C.ar   23  PHE23      -0.0042
      9  CE1       94.4440   79.0480   15.1220 C.ar   23  PHE23      -0.0003
     10  CE2       96.5450   80.0710   14.6350 C.ar   23  PHE23      -0.0003
     11  CZ        95.8210   79.0240   15.1680 C.ar   23  PHE23      -0.0000
     12  N         93.3070   85.7690   17.9660 N.3    26  ASP26      -0.1225
     13  CA        92.2720   85.2290   18.8390 C.3    26  ASP26       0.1805
     14  C         92.2880   83.7270   19.1080 C.2    26  ASP26       0.2598
     15  O         91.4400   83.2250   19.8390 O.2    26  ASP26      -0.2718
     16  CB        90.8700   85.7380   18.4380 C.3    26  ASP26       0.1424
     17  CG        90.3790   85.1770   17.1190 C.2    26  ASP26       0.3668
     18  OD1       90.9200   84.1590   16.6350 O.co2  26  ASP26      -0.2456
     19  OD2       89.4130   85.7540   16.5770 O.co2  26  ASP26      -0.2456
     20  N         93.2570   83.0020   18.5690 N.am   27  ASP27      -0.1960
     21  CA        93.5080   81.6950   19.1480 C.3    27  ASP27       0.1825
     22  C         93.9940   81.9460   20.5770 C.2    27  ASP27       0.2464
     23  O         94.8040   82.8420   20.7980 O.2    27  ASP27      -0.2730
     24  CB        94.5720   80.9130   18.3980 C.3    27  ASP27       0.1450
     25  CG        94.8890   79.6110   19.0940 C.2    27  ASP27       0.3671
     26  OD1       94.1700   78.6200   18.8380 O.co2  27  ASP27      -0.2456
     27  OD2       95.8130   79.6000   19.9510 O.co2  27  ASP27      -0.2456
     28  N         93.5060   81.1620   21.5610 N.am   28  PRO28      -0.2727
     29  CA        93.8490   81.4770   22.9580 C.3    28  PRO28       0.1402
     30  C         95.3420   81.5540   23.2710 C.2    28  PRO28       0.2269
     31  O         95.7230   82.3520   24.1310 O.2    28  PRO28      -0.2865
     32  CB        93.1940   80.3400   23.7470 C.3    28  PRO28       0.0296
     33  CG        92.0790   79.9160   22.9090 C.3    28  PRO28       0.0237
     34  CD        92.4620   80.1320   21.4760 C.3    28  PRO28       0.0939
     35  N         92.2760   76.1550   12.3040 N.3   126  LEU126     -0.1231
     36  CA        90.8360   76.3390   12.1910 C.3   126  LEU126      0.1693
     37  C         90.4680   77.7270   12.7130 C.2   126  LEU126      0.2593
     38  O         90.7880   78.0710   13.8510 O.2   126  LEU126     -0.2718
     39  CB        90.1090   75.2640   12.9970 C.3   126  LEU126      0.0284
     40  CG        88.5980   75.4190   13.1680 C.3   126  LEU126      0.0019
     41  CD1       87.8640   75.3630   11.8350 C.3   126  LEU126      0.0001
     42  CD2       88.0710   74.3660   14.1180 C.3   126  LEU126      0.0001
     43  N         89.8100   78.5310   11.8820 N.am  127  SER127     -0.1938
     44  CA        89.5100   79.9180   12.2230 C.3   127  SER127      0.2055
     45  C         88.2370   80.3490   11.5130 C.2   127  SER127      0.2642
     46  O         88.1080   80.1250   10.3090 O.2   127  SER127     -0.2714
     47  CB        90.6750   80.8050   11.7770 C.3   127  SER127      0.2130
     48  OG        90.4340   82.1750   12.0170 O.3   127  SER127     -0.2179
     49  N         87.3130   80.9810   12.2310 N.am  128  VAL128     -0.1977
     50  CA        86.0870   81.5240   11.6490 C.3   128  VAL128      0.1596
     51  C         85.9530   82.9930   12.0520 C.2   128  VAL128      0.2287
     52  O         86.1850   83.3480   13.2050 O.2   128  VAL128     -0.2864
     53  CB        84.8390   80.6900   12.0870 C.3   128  VAL128      0.0276
     54  CG1       83.5330   81.3590   11.6530 C.3   128  VAL128      0.0022
     55  CG2       84.9420   79.2780   11.5400 C.3   128  VAL128      0.0022
     56  N         84.6400   86.2850   13.3940 N.3   130  THR130     -0.1218
     57  CA        83.7930   86.5450   14.5580 C.3   130  THR130      0.1862
     58  C         82.3240   86.7530   14.2310 C.2   130  THR130      0.2287
     59  O         81.4490   86.2510   14.9340 O.2   130  THR130     -0.2866
     60  CB        84.2750   87.7990   15.2700 C.3   130  THR130      0.1770
     61  OG1       84.4480   88.8150   14.2800 O.3   130  THR130     -0.2211
     62  CG2       85.5980   87.5390   15.9410 C.3   130  THR130      0.0375
     63  N         80.5940   85.5420   12.0050 N.3   132  TYR132     -0.1227
     64  CA        79.9790   84.3520   11.4390 C.3   132  TYR132      0.1736
     65  C         80.1100   83.1520   12.3750 C.2   132  TYR132      0.2595
     66  O         79.8680   82.0260   11.9640 O.2   132  TYR132     -0.2718
     67  CB        80.6030   84.0370   10.0800 C.3   132  TYR132      0.0548
     68  CG        80.3920   85.1170    9.0400 C.ar  132  TYR132     -0.0200
     69  CD1       79.3840   85.0080    8.0950 C.ar  132  TYR132     -0.0009
     70  CD2       81.1940   86.2530    9.0170 C.ar  132  TYR132     -0.0009
     71  CE1       79.1930   85.9910    7.1340 C.ar  132  TYR132      0.0417
     72  CE2       81.0120   87.2410    8.0660 C.ar  132  TYR132      0.0417
     73  CZ        80.0130   87.1030    7.1270 C.ar  132  TYR132      0.1957
     74  OH        79.8320   88.0860    6.1790 O.3   132  TYR132     -0.2866
     75  N         80.4860   83.3980   13.6290 N.am  133  ARG133     -0.1966
     76  CA        80.6250   82.3280   14.6120 C.3   133  ARG133      0.1729
     77  C         79.2820   81.8500   15.1440 C.2   133  ARG133      0.2617
     78  O         78.2900   82.5810   15.1250 O.2   133  ARG133     -0.2715
     79  CB        81.5460   82.7480   15.7640 C.3   133  ARG133      0.0348
     80  CG        82.9970   82.7720   15.3510 C.3   133  ARG133      0.0492
     81  CD        83.9650   83.2130   16.4450 C.3   133  ARG133      0.2205
     82  NE        85.2640   83.4610   15.8290 N.pl3 133  ARG133     -0.0865
     83  CZ        86.3410   83.9580   16.4250 C.cat 133  ARG133      0.5346
     84  NH1       86.3380   84.2660   17.7200 N.pl3 133  ARG133      0.1354
     85  NH2       87.4390   84.1470   15.7040 N.pl3 133  ARG133      0.1354
     86  N         79.2570   80.6060   15.6030 N.am  134  GLY134     -0.1940
     87  CA        78.0570   80.0540   16.1890 C.3   134  GLY134      0.2014
     88  C         77.0080   79.6810   15.1620 C.2   134  GLY134      0.2639
     89  O         75.8460   79.4920   15.5110 O.2   134  GLY134     -0.2714
     90  N         77.4190   79.5540   13.8990 N.am  135  LEU135     -0.1963
     91  CA        76.5090   79.2090   12.8090 C.3   135  LEU135      0.1728
     92  C         76.7700   77.8110   12.2540 C.2   135  LEU135      0.2617
     93  O         76.0990   77.3830   11.3250 O.2   135  LEU135     -0.2715
     94  CB        76.6340   80.2260   11.6800 C.3   135  LEU135      0.0311
     95  CG        76.3410   81.6820   12.0460 C.3   135  LEU135      0.0022
     96  CD1       76.5690   82.5590   10.8260 C.3   135  LEU135      0.0001
     97  CD2       74.9100   81.8220   12.5760 C.3   135  LEU135      0.0001
     98  N         77.7450   77.1050   12.8110 N.am  136  GLY136     -0.1940
     99  CA        78.0880   75.7810   12.3210 C.3   136  GLY136      0.2014
    100  C         79.1260   75.7590   11.2150 C.2   136  GLY136      0.2639
    101  O         79.3430   74.7180   10.6100 O.2   136  GLY136     -0.2714
    102  N         79.7860   76.8860   10.9570 N.am  137  ILE137     -0.1963
    103  CA        80.7910   76.9020    9.8970 C.3   137  ILE137      0.1727
    104  C         81.9640   75.9640   10.1900 C.2   137  ILE137      0.2616
    105  O         82.4010   75.2370    9.3000 O.2   137  ILE137     -0.2715
    106  CB        81.2620   78.3280    9.5690 C.3   137  ILE137      0.0290
    107  CG1       80.0860   79.1260    9.0020 C.3   137  ILE137      0.0022
    108  CG2       82.4250   78.3020    8.5910 C.3   137  ILE137      0.0023
    109  CD1       80.3860   80.5890    8.7540 C.3   137  ILE137      0.0001
    110  N         82.4620   75.9530   11.4250 N.am  138  ALA138     -0.1963
    111  CA        83.5420   75.0290   11.7740 C.3   138  ALA138      0.1728
    112  C         83.1730   73.5960   11.3990 C.2   138  ALA138      0.2616
    113  O         83.9790   72.8670   10.8270 O.2   138  ALA138     -0.2715
    114  CB        83.8720   75.1170   13.2520 C.3   138  ALA138      0.0334
    115  N         81.9370   73.2080   11.6940 N.am  139  GLY139     -0.1955
    116  CA        81.4620   71.8760   11.3660 C.3   139  GLY139      0.1869
    117  C         81.3940   71.6230    9.8760 C.2   139  GLY139      0.2309
    118  O         81.7670   70.5460    9.4040 O.2   139  GLY139     -0.2863
    119  N         93.1320   66.3100   15.2530 N.3   159  VAL159     -0.1231
    120  CA        93.0870   67.7680   15.4360 C.3   159  VAL159      0.1692
    121  C         93.5700   68.1360   16.8340 C.2   159  VAL159      0.2592
    122  O         92.9080   67.8320   17.8280 O.2   159  VAL159     -0.2718
    123  CB        91.6530   68.3280   15.2310 C.3   159  VAL159      0.0266
    124  CG1       91.6320   69.8390   15.4040 C.3   159  VAL159      0.0020
    125  CG2       91.1090   67.9420   13.8680 C.3   159  VAL159      0.0020
    126  N         94.7330   68.7690   16.9220 N.am  160  LEU160     -0.1966
    127  CA        95.1860   69.3040   18.1980 C.3   160  LEU160      0.1728
    128  C         94.4490   70.6090   18.4790 C.2   160  LEU160      0.2616
    129  O         94.5200   71.5580   17.6980 O.2   160  LEU160     -0.2715
    130  CB        96.6960   69.5340   18.1840 C.3   160  LEU160      0.0311
    131  CG        97.2920   69.9070   19.5470 C.3   160  LEU160      0.0022
    132  CD1       98.6830   69.3240   19.6940 C.3   160  LEU160      0.0001
    133  CD2       97.3410   71.4020   19.7140 C.3   160  LEU160      0.0001
    134  N         93.7320   70.6470   19.5970 N.am  161  CYS161     -0.1954
    135  CA        92.9890   71.8350   19.9970 C.3   161  CYS161      0.1843
    136  C         93.7080   72.6080   21.0930 C.2   161  CYS161      0.2626
    137  O         94.2040   72.0210   22.0580 O.2   161  CYS161     -0.2714
    138  CB        91.5900   71.4620   20.4740 C.3   161  CYS161      0.0997
    139  SG        90.5650   70.7750   19.1770 S.3   161  CYS161     -0.0797
    140  N         93.7420   73.9290   20.9470 N.am  162  SER162     -0.1936
    141  CA        94.4650   74.7990   21.8730 C.3   162  SER162      0.2055
    142  C         93.6730   75.2240   23.1160 C.2   162  SER162      0.2643
    143  O         94.1880   75.9450   23.9600 O.2   162  SER162     -0.2714
    144  CB        94.9290   76.0410   21.1220 C.3   162  SER162      0.2130
    145  OG        93.8240   76.6160   20.4650 O.3   162  SER162     -0.2179
    146  N         92.4300   74.7810   23.2260 N.am  163  SER163     -0.1949
    147  CA        91.5910   75.1020   24.3720 C.3   163  SER163      0.1924
    148  C         90.4720   74.0880   24.4850 C.2   163  SER163      0.2314
    149  O         90.0410   73.5140   23.4920 O.2   163  SER163     -0.2863
    150  CB        90.9640   76.4840   24.1680 C.3   163  SER163      0.2116
    151  OG        89.9570   76.7420   25.1360 O.3   163  SER163     -0.2180
    152  N         87.4830   74.8900   22.0760 N.3   166  SER166     -0.1217
    153  CA        87.4600   74.3680   20.7170 C.3   166  SER166      0.1889
    154  C         87.4040   72.8410   20.6860 C.2   166  SER166      0.2288
    155  O         86.8160   72.2630   19.7700 O.2   166  SER166     -0.2866
    156  CB        88.6230   74.9070   19.8900 C.3   166  SER166      0.2089
    157  OG        89.8590   74.6730   20.5190 O.3   166  SER166     -0.2183
    158  N         83.8600   71.9270   20.4770 N.3   169  VAL169     -0.1245
    159  CA        83.3250   72.0250   19.1260 C.3   169  VAL169      0.1561
    160  C         83.6000   70.7130   18.3970 C.2   169  VAL169      0.2260
    161  O         82.7150   70.1430   17.7730 O.2   169  VAL169     -0.2867
    162  CB        83.9490   73.1980   18.3590 C.3   169  VAL169      0.0252
    163  CG1       83.4080   73.2540   16.9540 C.3   169  VAL169      0.0019
    164  CG2       83.6710   74.4980   19.0880 C.3   169  VAL169      0.0019
    165  N         81.3470   67.9120   19.5210 N.3   172  LYS172     -0.1245
    166  CA        80.0290   68.0380   18.9090 C.3   172  LYS172      0.1561
    167  C         80.0200   67.4210   17.5100 C.2   172  LYS172      0.2260
    168  O         79.0150   66.8570   17.0710 O.2   172  LYS172     -0.2867
    169  CB        79.5940   69.5100   18.8630 C.3   172  LYS172      0.0271
    170  CG        78.3260   69.7520   18.0670 C.3   172  LYS172      0.0035
    171  CD        77.8880   71.2190   18.0940 C.3   172  LYS172      0.0206
    172  CE        78.8810   72.1700   17.4180 C.3   172  LYS172      0.1093
    173  NZ        78.2850   73.5310   17.3110 N.3   172  LYS172     -0.1314
@<TRIPOS>BOND
     1    74    73    1
     2    73    71   ar
     3    73    72   ar
     4    71    69   ar
     5    72    70   ar
     6    69    68   ar
     7   108   106    1
     8   109   107    1
     9   107   106    1
    10    70    68   ar
    11    68    67    1
    12   105   104    2
    13   118   117    2
    14   106   103    1
    15   117   116    1
    16   103   104    1
    17   103   102    1
    18    67    64    1
    19   104   110   am
    20    46    45    2
    21   101   100    2
    22    96    95    1
    23   113   112    2
    24   102   100   am
    25   100    99    1
    26    93    92    2
    27   116   115    1
    28   112   115   am
    29   112   111    1
    30   110   111    1
    31    64    63    1
    32    64    65    1
    33    45    44    1
    34    45    49   am
    35    55    53    1
    36    50    51    1
    37    50    53    1
    38    50    49    1
    39    54    53    1
    40    94    95    1
    41    94    91    1
    42   111   114    1
    43    47    48    1
    44    47    44    1
    45    41    40    1
    46    43    44    1
    47    43    37   am
    48    66    65    2
    49    95    97    1
    50    51    52    2
    51    36    35    1
    52    36    37    1
    53    36    39    1
    54    92    91    1
    55    92    98   am
    56    99    98    1
    57    65    75   am
    58    37    38    2
    59    91    90    1
    60    39    40    1
    61    40    42    1
    62     5     6    1
    63     5     2    1
    64    56    57    1
    65    75    76    1
    66     1     2    1
    67   125   123    1
    68    90    88   am
    69     6     8   ar
    70     6     7   ar
    71     8    10   ar
    72    58    57    1
    73    58    59    2
    74    61    60    1
    75     2     3    1
    76     7     9   ar
    77    57    60    1
    78    76    77    1
    79    76    79    1
    80    10    11   ar
    81     3     4    2
    82     9    11   ar
    83    78    77    2
    84    77    86   am
    85    88    89    2
    86    88    87    1
    87   123   124    1
    88   123   120    1
    89   119   120    1
    90    60    62    1
    91    80    79    1
    92    80    81    1
    93   120   121    1
    94    86    87    1
    95    85    83    1
    96    82    83    2
    97    82    81    1
    98    83    84    1
    99    19    17   ar
   100    18    17   ar
   101   121   126   am
   102   121   122    2
   103   126   127    1
   104   163   162    1
   105   168   167    2
   106    17    16    1
   107   173   172    1
   108   172   171    1
   109   167   166    1
   110   129   128    2
   111   161   160    2
   112    12    13    1
   113   170   171    1
   114   170   169    1
   115   130   127    1
   116   130   131    1
   117   127   128    1
   118   162   164    1
   119   162   159    1
   120   160   159    1
   121    24    25    1
   122    24    21    1
   123    16    13    1
   124   128   134   am
   125    20    14   am
   126    20    21    1
   127    26    25   ar
   128    13    14    1
   129   169   166    1
   130   166   165    1
   131    25    27   ar
   132    14    15    2
   133   159   158    1
   134    21    22    1
   135   139   138    1
   136   131   132    1
   137   131   133    1
   138   134   135    1
   139   155   154    2
   140   156   157    1
   141   156   153    1
   142   135   138    1
   143   135   136    1
   144   145   144    1
   145    22    23    2
   146    22    28   am
   147   154   153    1
   148   153   152    1
   149   140   136   am
   150   140   141    1
   151   136   137    2
   152   144   141    1
   153    34    28    1
   154    34    33    1
   155    28    29    1
   156   141   142    1
   157    33    32    1
   158    29    30    1
   159    29    32    1
   160   142   146   am
   161   142   143    2
   162   146   147    1
   163    30    31    2
   164   149   148    2
   165   150   147    1
   166   150   151    1
   167   147   148    1
