@<TRIPOS>MOLECULE
tmp/5gihA01.pdb
 149 142 0 0 0
SMALL
GASTEIGER

@<TRIPOS>ATOM
      1  N         91.1830  140.6490   13.8060 N.3    23  PHE23      -0.1241
      2  CA        92.0140  139.6520   14.4830 C.3    23  PHE23       0.1605
      3  C         93.2870  140.1840   15.1690 C.2    23  PHE23       0.2264
      4  O         93.5850  139.8240   16.3110 O.2    23  PHE23      -0.2867
      5  CB        92.3690  138.5530   13.4790 C.3    23  PHE23       0.0534
      6  CG        93.0910  137.3900   14.0760 C.ar   23  PHE23      -0.0203
      7  CD1       92.3930  136.3800   14.7080 C.ar   23  PHE23      -0.0042
      8  CD2       94.4670  137.2960   13.9850 C.ar   23  PHE23      -0.0042
      9  CE1       93.0610  135.2900   15.2550 C.ar   23  PHE23      -0.0003
     10  CE2       95.1450  136.2180   14.5320 C.ar   23  PHE23      -0.0003
     11  CZ        94.4440  135.2150   15.1700 C.ar   23  PHE23      -0.0000
     12  N         91.8990  139.1500   18.7730 N.3    27  ASP27      -0.1239
     13  CA        92.1850  137.8360   19.3240 C.3    27  ASP27       0.1674
     14  C         92.6680  138.0700   20.7520 C.2    27  ASP27       0.2266
     15  O         93.4200  139.0090   21.0060 O.2    27  ASP27      -0.2867
     16  CB        93.2610  137.1210   18.5270 C.3    27  ASP27       0.1410
     17  CG        93.7390  135.8710   19.2240 C.2    27  ASP27       0.3668
     18  OD1       93.1230  134.8040   19.0070 O.co2  27  ASP27      -0.2456
     19  OD2       94.7020  135.9610   20.0260 O.co2  27  ASP27      -0.2456
     20  N         94.8920  136.8000   22.6850 N.3    29  LEU29      -0.1231
     21  CA        96.3340  136.8710   22.9090 C.3    29  LEU29       0.1693
     22  C         96.9200  138.1330   22.2780 C.2    29  LEU29       0.2592
     23  O         97.7450  138.8140   22.8830 O.2    29  LEU29      -0.2718
     24  CB        97.0350  135.6270   22.3600 C.3    29  LEU29       0.0284
     25  CG        96.5850  134.3000   22.9620 C.3    29  LEU29       0.0019
     26  CD1       97.3560  133.1440   22.3480 C.3    29  LEU29       0.0001
     27  CD2       96.7730  134.3320   24.4630 C.3    29  LEU29       0.0001
     28  N         96.4960  138.4440   21.0590 N.am   30  ASN30      -0.1974
     29  CA        96.9800  139.6470   20.3860 C.3    30  ASN30       0.1688
     30  C         96.6440  140.8920   21.1940 C.2    30  ASN30       0.2292
     31  O         97.4870  141.7620   21.3920 O.2    30  ASN30      -0.2864
     32  CB        96.3640  139.7550   18.9980 C.3    30  ASN30       0.1181
     33  CG        96.9150  138.7310   18.0440 C.2    30  ASN30       0.2629
     34  OD1       97.9720  138.1460   18.2870 O.2    30  ASN30      -0.2716
     35  ND2       96.2100  138.5090   16.9470 N.am   30  ASN30      -0.0877
     36  N        103.0800  138.2450   11.6530 N.3    41  LEU41      -0.1245
     37  CA       101.7490  137.6540   11.6840 C.3    41  LEU41       0.1561
     38  C        101.1010  137.7450   10.3140 C.2    41  LEU41       0.2260
     39  O        100.3460  136.8530    9.9270 O.2    41  LEU41      -0.2867
     40  CB       100.8510  138.2910   12.7540 C.3    41  LEU41       0.0270
     41  CG        99.4150  137.7510   12.8440 C.3    41  LEU41       0.0019
     42  CD1       99.3780  136.2330   13.0210 C.3    41  LEU41       0.0001
     43  CD2       98.6370  138.4330   13.9600 C.3    41  LEU41       0.0001
     44  N        102.6440  134.8600    8.5200 N.3    44  TYR44      -0.1241
     45  CA       102.0180  133.6560    9.0550 C.3    44  TYR44       0.1605
     46  C        100.6340  133.4210    8.4550 C.2    44  TYR44       0.2264
     47  O        100.2620  132.2860    8.1430 O.2    44  TYR44      -0.2867
     48  CB       101.9080  133.7940   10.5780 C.3    44  TYR44       0.0534
     49  CG       101.2900  132.6170   11.2980 C.ar   44  TYR44      -0.0201
     50  CD1      102.0850  131.5970   11.7880 C.ar   44  TYR44      -0.0009
     51  CD2       99.9170  132.5450   11.5160 C.ar   44  TYR44      -0.0009
     52  CE1      101.5430  130.5310   12.4550 C.ar   44  TYR44       0.0417
     53  CE2       99.3610  131.4740   12.1830 C.ar   44  TYR44       0.0417
     54  CZ       100.1860  130.4720   12.6500 C.ar   44  TYR44       0.1957
     55  OH        99.6560  129.3980   13.3180 O.3    44  TYR44      -0.2866
     56  N         88.4020  132.0300    7.4880 N.3    68  PHE68      -0.1241
     57  CA        88.9710  130.9140    8.2320 C.3    68  PHE68       0.1605
     58  C         90.1000  130.4020    7.3570 C.2    68  PHE68       0.2264
     59  O         89.8680  129.8440    6.2810 O.2    68  PHE68      -0.2867
     60  CB        87.9290  129.8270    8.5270 C.3    68  PHE68       0.0534
     61  CG        88.2560  128.9620    9.7340 C.ar   68  PHE68      -0.0203
     62  CD1       89.5410  128.9040   10.2660 C.ar   68  PHE68      -0.0042
     63  CD2       87.2520  128.2200   10.3430 C.ar   68  PHE68      -0.0042
     64  CE1       89.8080  128.1170   11.3880 C.ar   68  PHE68      -0.0003
     65  CE2       87.5160  127.4370   11.4460 C.ar   68  PHE68      -0.0003
     66  CZ        88.7930  127.3820   11.9700 C.ar   68  PHE68      -0.0000
     67  N        104.9080  138.7080   18.9890 N.3    94  PHE94      -0.1241
     68  CA       104.4670  137.5390   18.2470 C.3    94  PHE94       0.1605
     69  C        105.3120  136.3190   18.6060 C.2    94  PHE94       0.2264
     70  O        104.8100  135.1980   18.6180 O.2    94  PHE94      -0.2867
     71  CB       104.4810  137.7990   16.7420 C.3    94  PHE94       0.0534
     72  CG       103.7760  136.7420   15.9510 C.ar   94  PHE94      -0.0203
     73  CD1      102.4990  136.3320   16.3100 C.ar   94  PHE94      -0.0042
     74  CD2      104.3870  136.1460   14.8580 C.ar   94  PHE94      -0.0042
     75  CE1      101.8410  135.3520   15.5970 C.ar   94  PHE94      -0.0003
     76  CE2      103.7280  135.1620   14.1330 C.ar   94  PHE94      -0.0003
     77  CZ       102.4540  134.7670   14.5070 C.ar   94  PHE94      -0.0000
     78  N        103.7100  134.3770   21.2790 N.3    97  ILE97      -0.1245
     79  CA       102.6060  133.5590   20.8100 C.3    97  ILE97       0.1561
     80  C        103.1370  132.3010   20.1180 C.2    97  ILE97       0.2260
     81  O        102.6630  131.1980   20.3870 O.2    97  ILE97      -0.2867
     82  CB       101.6680  134.3640   19.8980 C.3    97  ILE97       0.0252
     83  CG1      100.9550  135.4400   20.7170 C.3    97  ILE97       0.0019
     84  CG2      100.6470  133.4590   19.2370 C.3    97  ILE97       0.0019
     85  CD1      100.2070  136.4440   19.8720 C.3    97  ILE97       0.0001
     86  N        102.7020  128.3090   21.0740 N.3   101  MET101     -0.1245
     87  CA       102.3640  127.2810   20.1000 C.3   101  MET101      0.1570
     88  C        103.3790  126.1420   20.0850 C.2   101  MET101      0.2261
     89  O        102.9930  124.9700   20.0500 O.2   101  MET101     -0.2867
     90  CB       102.2670  127.8970   18.7120 C.3   101  MET101      0.0387
     91  CG       101.0600  128.7750   18.5240 C.3   101  MET101      0.0595
     92  SD       101.1100  129.5110   16.8930 S.3   101  MET101     -0.1393
     93  CE        99.4940  130.2670   16.8370 C.3   101  MET101      0.0692
     94  N         93.0200  124.4330   11.2500 N.3   123  GLY123     -0.1210
     95  CA        92.3960  125.7450   11.2290 C.3   123  GLY123      0.1956
     96  C         93.2770  126.7440   11.9450 C.2   123  GLY123      0.2612
     97  O         93.4120  126.6870   13.1730 O.2   123  GLY123     -0.2717
     98  N         93.8700  127.6580   11.1840 N.am  124  LYS124     -0.1965
     99  CA        94.9450  128.5020   11.6920 C.3   124  LYS124      0.1728
    100  C         94.5030  129.8840   12.1660 C.2   124  LYS124      0.2616
    101  O         94.9720  130.3530   13.1980 O.2   124  LYS124     -0.2715
    102  CB        96.0420  128.6360   10.6300 C.3   124  LYS124      0.0311
    103  CG        96.7030  127.3080   10.2860 C.3   124  LYS124      0.0038
    104  CD        97.7740  127.4760    9.2270 C.3   124  LYS124      0.0206
    105  CE        98.2800  126.1280    8.7210 C.3   124  LYS124      0.1093
    106  NZ        98.9000  125.3120    9.7980 N.3   124  LYS124     -0.1314
    107  N         93.6180  130.5370   11.4080 N.am  125  ILE125     -0.1963
    108  CA        93.1990  131.9080   11.7110 C.3   125  ILE125      0.1727
    109  C         91.7090  132.0320   11.4230 C.2   125  ILE125      0.2616
    110  O         91.2850  131.8940   10.2760 O.2   125  ILE125     -0.2715
    111  CB        93.9300  132.9540   10.8280 C.3   125  ILE125      0.0290
    112  CG1       95.4530  132.8900   11.0070 C.3   125  ILE125      0.0022
    113  CG2       93.4380  134.3510   11.1440 C.3   125  ILE125      0.0023
    114  CD1       95.9280  133.3740   12.3620 C.3   125  ILE125      0.0001
    115  N         90.9230  132.2790   12.4670 N.am  126  LEU126     -0.1977
    116  CA        89.4800  132.4660   12.3390 C.3   126  LEU126      0.1596
    117  C         89.1060  133.8550   12.8430 C.2   126  LEU126      0.2287
    118  O         89.4180  134.2130   13.9760 O.2   126  LEU126     -0.2864
    119  CB        88.7300  131.3950   13.1370 C.3   126  LEU126      0.0297
    120  CG        87.2100  131.5470   13.3000 C.3   126  LEU126      0.0022
    121  CD1       86.5060  131.5350   11.9390 C.3   126  LEU126      0.0001
    122  CD2       86.6280  130.4800   14.2330 C.3   126  LEU126      0.0001
    123  N         91.8360  122.4750   15.3930 N.3   159  VAL159     -0.1231
    124  CA        91.8220  123.9250   15.5710 C.3   159  VAL159      0.1692
    125  C         92.3350  124.3120   16.9550 C.2   159  VAL159      0.2592
    126  O         91.6910  124.0170   17.9610 O.2   159  VAL159     -0.2718
    127  CB        90.3880  124.5120   15.3760 C.3   159  VAL159      0.0266
    128  CG1       90.3920  126.0200   15.5500 C.3   159  VAL159      0.0020
    129  CG2       89.8240  124.1530   14.0070 C.3   159  VAL159      0.0020
    130  N         93.4880  124.9720   17.0110 N.am  160  LEU160     -0.1966
    131  CA        93.9790  125.5220   18.2740 C.3   160  LEU160      0.1728
    132  C         93.2370  126.8150   18.5830 C.2   160  LEU160      0.2616
    133  O         93.3060  127.7670   17.8110 O.2   160  LEU160     -0.2715
    134  CB        95.4810  125.8030   18.2130 C.3   160  LEU160      0.0311
    135  CG        96.0100  126.6350   19.3870 C.3   160  LEU160      0.0022
    136  CD1       96.1120  125.7710   20.6060 C.3   160  LEU160      0.0001
    137  CD2       97.3410  127.2920   19.0450 C.3   160  LEU160      0.0001
    138  N         92.5120  126.8360   19.6990 N.am  161  CYS161     -0.1954
    139  CA        91.7620  128.0200   20.1050 C.3   161  CYS161      0.1843
    140  C         92.4850  128.7720   21.2070 C.2   161  CYS161      0.2626
    141  O         92.9750  128.1740   22.1680 O.2   161  CYS161     -0.2714
    142  CB        90.3700  127.6310   20.5990 C.3   161  CYS161      0.0997
    143  SG        89.3320  126.9370   19.3210 S.3   161  CYS161     -0.0797
    144  N         92.5270  130.0920   21.0680 N.am  162  SER162     -0.1950
    145  CA        93.2690  130.9460   21.9900 C.3   162  SER162      0.1924
    146  C         92.4880  131.3470   23.2440 C.2   162  SER162      0.2314
    147  O         93.0140  132.0610   24.0890 O.2   162  SER162     -0.2863
    148  CB        93.7430  132.1990   21.2570 C.3   162  SER162      0.2116
    149  OG        92.6490  132.8360   20.6220 O.3   162  SER162     -0.2180
@<TRIPOS>BOND
     1    59    58    2
     2    58    57    1
     3    56    57    1
     4    47    46    2
     5    57    60    1
     6    46    45    1
     7    44    45    1
     8    60    61    1
     9   105   104    1
    10   105   106    1
    11    45    48    1
    12   104   103    1
    13    61    62   ar
    14    61    63   ar
    15    39    38    2
    16    62    64   ar
    17   110   109    2
    18   103   102    1
    19    38    37    1
    20    63    65   ar
    21    48    49    1
    22   102    99    1
    23   111   112    1
    24   111   113    1
    25   111   108    1
    26   112   114    1
    27    98    99    1
    28    98    96   am
    29    95    94    1
    30    95    96    1
    31    49    51   ar
    32    49    50   ar
    33    64    66   ar
    34   107   108    1
    35   107   100   am
    36   109   108    1
    37   109   115   am
    38    65    66   ar
    39    51    53   ar
    40    36    37    1
    41    37    40    1
    42    99   100    1
    43    50    52   ar
    44   121   120    1
    45    96    97    2
    46   100   101    2
    47    53    54   ar
    48   116   115    1
    49   116   117    1
    50   116   119    1
    51    52    54   ar
    52    54    55    1
    53    40    41    1
    54   117   118    2
    55    41    42    1
    56    41    43    1
    57   119   120    1
    58   120   122    1
    59     5     6    1
    60     5     2    1
    61     1     2    1
    62     8     6   ar
    63     8    10   ar
    64   129   127    1
    65     6     7   ar
    66    76    77   ar
    67    76    74   ar
    68     2     3    1
    69    77    75   ar
    70    10    11   ar
    71     7     9   ar
    72    74    72   ar
    73     3     4    2
    74    11     9   ar
    75   127   128    1
    76   127   124    1
    77   123   124    1
    78   124   125    1
    79    75    73   ar
    80    72    73   ar
    81    72    71    1
    82    71    68    1
    83    93    92    1
    84    92    91    1
    85    35    33   am
    86   125   130   am
    87   125   126    2
    88   130   131    1
    89   133   132    2
    90    33    34    2
    91    33    32    1
    92   134   131    1
    93   134   135    1
    94    68    69    1
    95    68    67    1
    96   131   132    1
    97    91    90    1
    98    16    17    1
    99    16    13    1
   100   132   138   am
   101    69    70    2
   102    90    87    1
   103    12    13    1
   104    32    29    1
   105    18    17   ar
   106   137   135    1
   107    17    19   ar
   108    84    82    1
   109   143   142    1
   110    13    14    1
   111   135   136    1
   112   138   139    1
   113    85    83    1
   114    82    83    1
   115    82    79    1
   116    89    88    2
   117    88    87    1
   118    87    86    1
   119   139   142    1
   120   139   140    1
   121    80    81    2
   122    80    79    1
   123    29    28    1
   124    29    30    1
   125   149   148    1
   126    14    15    2
   127    79    78    1
   128    28    22   am
   129   144   140   am
   130   144   145    1
   131    30    31    2
   132   140   141    2
   133   148   145    1
   134   145   146    1
   135    22    23    2
   136    22    21    1
   137    26    25    1
   138    24    21    1
   139    24    25    1
   140    20    21    1
   141    25    27    1
   142   146   147    2
