@<TRIPOS>MOLECULE
tmp/5gijA00.pdb
 89 82 0 0 0
SMALL
GASTEIGER

@<TRIPOS>ATOM
      1  N        -66.1240   26.6620  -30.7990 N.3   464  PHE464     -0.1241
      2  CA       -65.7090   27.6340  -31.8160 C.3   464  PHE464      0.1605
      3  C        -64.3690   27.2630  -32.4650 C.2   464  PHE464      0.2264
      4  O        -63.6120   28.1180  -32.9170 O.2   464  PHE464     -0.2867
      5  CB       -65.6280   29.0370  -31.2340 C.3   464  PHE464      0.0534
      6  CG       -66.9550   29.6230  -30.8790 C.ar  464  PHE464     -0.0203
      7  CD1      -67.8790   29.9350  -31.8480 C.ar  464  PHE464     -0.0042
      8  CD2      -67.2770   29.8760  -29.5590 C.ar  464  PHE464     -0.0042
      9  CE1      -69.1180   30.4870  -31.5060 C.ar  464  PHE464     -0.0003
     10  CE2      -68.5040   30.4260  -29.2210 C.ar  464  PHE464     -0.0003
     11  CZ       -69.4250   30.7290  -30.1940 C.ar  464  PHE464     -0.0000
     12  N        -67.6540   21.8940  -23.3040 N.3   484  GLU484     -0.1245
     13  CA       -67.9510   23.0480  -24.1590 C.3   484  GLU484      0.1567
     14  C        -67.7190   22.7030  -25.6330 C.2   484  GLU484      0.2260
     15  O        -66.5750   22.6550  -26.0920 O.2   484  GLU484     -0.2867
     16  CB       -67.0850   24.2360  -23.7390 C.3   484  GLU484      0.0388
     17  CG       -67.4980   24.9330  -22.4560 C.3   484  GLU484      0.1160
     18  CD       -66.5420   26.0660  -22.0600 C.2   484  GLU484      0.3649
     19  OE1      -65.3470   26.0100  -22.4300 O.co2 484  GLU484     -0.2457
     20  OE2      -67.0030   27.0420  -21.4190 O.co2 484  GLU484     -0.2457
     21  N        -69.8990   24.3060  -28.1260 N.3   486  GLN486     -0.1245
     22  CA       -70.7690   25.2010  -28.8860 C.3   486  GLN486      0.1566
     23  C        -70.0190   25.9390  -29.9910 C.2   486  GLN486      0.2260
     24  O        -68.8070   26.1660  -29.9170 O.2   486  GLN486     -0.2867
     25  CB       -71.4480   26.2110  -27.9510 C.3   486  GLN486      0.0367
     26  CG       -70.5580   27.3370  -27.4380 C.3   486  GLN486      0.0905
     27  CD       -69.6580   26.9230  -26.2750 C.2   486  GLN486      0.2608
     28  OE1      -69.4720   25.7350  -26.0050 O.2   486  GLN486     -0.2717
     29  NE2      -69.0890   27.9100  -25.5870 N.am  486  GLN486     -0.0878
     30  N        -71.7920   21.3560  -16.4140 N.3   506  SER506     -0.1202
     31  CA       -72.0980   22.3320  -17.4560 C.3   506  SER506      0.2020
     32  C        -71.9730   21.6580  -18.8240 C.2   506  SER506      0.2619
     33  O        -70.9830   20.9640  -19.0820 O.2   506  SER506     -0.2717
     34  CB       -71.1270   23.5190  -17.3360 C.3   506  SER506      0.2103
     35  OG       -71.5890   24.7000  -17.9650 O.3   506  SER506     -0.2182
     36  N        -72.9800   21.8420  -19.6930 N.am  507  LEU507     -0.1965
     37  CA       -72.9930   21.2600  -21.0440 C.3   507  LEU507      0.1728
     38  C        -73.4550   22.3060  -22.0540 C.2   507  LEU507      0.2616
     39  O        -74.6370   22.6710  -22.0560 O.2   507  LEU507     -0.2715
     40  CB       -73.9310   20.0530  -21.0840 C.3   507  LEU507      0.0311
     41  CG       -74.2010   19.3490  -22.4000 C.3   507  LEU507      0.0022
     42  CD1      -73.0180   18.4610  -22.7520 C.3   507  LEU507      0.0001
     43  CD2      -75.4790   18.5730  -22.2910 C.3   507  LEU507      0.0001
     44  N        -72.5600   22.7470  -22.9510 N.am  508  ASN508     -0.1972
     45  CA       -72.9060   23.7430  -23.9730 C.3   508  ASN508      0.1688
     46  C        -72.7800   23.0770  -25.3330 C.2   508  ASN508      0.2292
     47  O        -71.6600   22.8720  -25.8150 O.2   508  ASN508     -0.2864
     48  CB       -71.9800   24.9530  -23.9370 C.3   508  ASN508      0.1181
     49  CG       -72.6640   26.2030  -24.4170 C.2   508  ASN508      0.2629
     50  OD1      -73.4850   26.1360  -25.3140 O.2   508  ASN508     -0.2716
     51  ND2      -72.3300   27.3540  -23.8190 N.am  508  ASN508     -0.0877
     52  N        -74.5750   24.5940  -27.8700 N.3   510  SER510     -0.1202
     53  CA       -75.2020   25.6700  -28.6330 C.3   510  SER510      0.2020
     54  C        -74.5650   25.8840  -29.9860 C.2   510  SER510      0.2618
     55  O        -73.3980   25.5570  -30.2240 O.2   510  SER510     -0.2717
     56  CB       -75.1190   27.0140  -27.9080 C.3   510  SER510      0.2103
     57  OG       -76.2140   27.2070  -27.0440 O.3   510  SER510     -0.2182
     58  N        -75.3480   26.4910  -30.8710 N.am  511  GLN511     -0.1979
     59  CA       -74.8350   26.9970  -32.1280 C.3   511  GLN511      0.1601
     60  C        -74.1500   25.8790  -32.9330 C.2   511  GLN511      0.2287
     61  O        -72.9490   25.9170  -33.2380 O.2   511  GLN511     -0.2864
     62  CB       -73.9030   28.1880  -31.8640 C.3   511  GLN511      0.0394
     63  CG       -74.6420   29.5210  -31.7230 C.3   511  GLN511      0.0908
     64  CD       -73.8020   30.5590  -31.0090 C.2   511  GLN511      0.2608
     65  OE1      -73.9140   30.7430  -29.8000 O.2   511  GLN511     -0.2717
     66  NE2      -72.9210   31.2290  -31.7600 N.am  511  GLN511     -0.0878
     67  N        -75.9860   23.4620  -15.8310 N.3   530  ASP530     -0.1239
     68  CA       -76.1370   24.2970  -17.0130 C.3   530  ASP530      0.1674
     69  C        -76.2470   23.4230  -18.2510 C.2   530  ASP530      0.2266
     70  O        -75.3130   22.6940  -18.5860 O.2   530  ASP530     -0.2867
     71  CB       -74.9550   25.2490  -17.1540 C.3   530  ASP530      0.1410
     72  CG       -74.8680   26.2210  -16.0120 C.2   530  ASP530      0.3668
     73  OD1      -75.9100   26.4230  -15.3450 O.co2 530  ASP530     -0.2456
     74  OD2      -73.7760   26.8000  -15.7990 O.co2 530  ASP530     -0.2456
     75  N        -77.0830   24.1050  -22.2580 N.3   532  ASP532     -0.1239
     76  CA       -77.3990   25.0220  -23.3590 C.3   532  ASP532      0.1674
     77  C        -77.4510   24.2300  -24.6640 C.2   532  ASP532      0.2266
     78  O        -76.4080   23.8280  -25.1950 O.2   532  ASP532     -0.2867
     79  CB       -76.3690   26.1510  -23.4600 C.3   532  ASP532      0.1410
     80  CG       -76.9020   27.3760  -24.2130 C.2   532  ASP532      0.3668
     81  OD1      -77.9790   27.2580  -24.8420 O.co2 532  ASP532     -0.2456
     82  OD2      -76.2250   28.4380  -24.2260 O.co2 532  ASP532     -0.2456
     83  N        -79.7860   26.5680  -15.5050 N.3   554  THR554     -0.1218
     84  CA       -79.9420   27.1240  -16.8430 C.3   554  THR554      0.1862
     85  C        -80.2830   25.9870  -17.7970 C.2   554  THR554      0.2287
     86  O        -79.5120   25.0310  -17.9150 O.2   554  THR554     -0.2866
     87  CB       -78.6470   27.7980  -17.2850 C.3   554  THR554      0.1770
     88  OG1      -78.3200   28.8550  -16.3770 O.3   554  THR554     -0.2211
     89  CG2      -78.7900   28.3370  -18.6920 C.3   554  THR554      0.0375
@<TRIPOS>BOND
     1    61    60    2
     2    60    59    1
     3     4     3    2
     4     3     2    1
     5    59    62    1
     6    59    58    1
     7    62    63    1
     8     7     9   ar
     9     7     6   ar
    10     2     5    1
    11     2     1    1
    12    66    64   am
    13    63    64    1
    14     9    11   ar
    15     5     6    1
    16    64    65    2
    17     6     8   ar
    18    58    54   am
    19    55    54    2
    20    11    10   ar
    21    23    24    2
    22    23    22    1
    23    54    53    1
    24     8    10   ar
    25    22    21    1
    26    22    25    1
    27    53    56    1
    28    53    52    1
    29    25    26    1
    30    56    57    1
    31    26    27    1
    32    27    28    2
    33    27    29   am
    34    15    14    2
    35    47    46    2
    36    14    13    1
    37    46    45    1
    38    50    49    2
    39    78    77    2
    40    81    80   ar
    41    77    76    1
    42    49    48    1
    43    49    51   am
    44    82    80   ar
    45    80    79    1
    46    13    16    1
    47    13    12    1
    48    45    48    1
    49    45    44    1
    50    16    17    1
    51    79    76    1
    52    76    75    1
    53    44    38   am
    54    42    41    1
    55    17    18    1
    56    19    18   ar
    57    41    43    1
    58    41    40    1
    59    18    20   ar
    60    39    38    2
    61    38    37    1
    62    40    37    1
    63    37    36    1
    64    36    32   am
    65    33    32    2
    66    32    31    1
    67    89    87    1
    68    70    69    2
    69    69    68    1
    70    35    34    1
    71    86    85    2
    72    85    84    1
    73    31    34    1
    74    31    30    1
    75    87    84    1
    76    87    88    1
    77    71    68    1
    78    71    72    1
    79    68    67    1
    80    84    83    1
    81    72    74   ar
    82    72    73   ar
