@<TRIPOS>MOLECULE
tmp/5gijA08.pdb
 112 102 0 0 0
SMALL
GASTEIGER

@<TRIPOS>ATOM
      1  N        -52.0830   29.2080  -25.0790 N.3   391  GLN391     -0.1231
      2  CA       -53.1820   29.7830  -25.8400 C.3   391  GLN391      0.1698
      3  C        -52.9150   31.2550  -26.1960 C.2   391  GLN391      0.2592
      4  O        -51.8870   31.8410  -25.8530 O.2   391  GLN391     -0.2718
      5  CB       -54.4780   29.6420  -25.0410 C.3   391  GLN391      0.0381
      6  CG       -54.5890   30.4970  -23.7710 C.3   391  GLN391      0.0905
      7  CD       -53.8100   29.9750  -22.5740 C.2   391  GLN391      0.2608
      8  OE1      -53.0920   28.9750  -22.6600 O.2   391  GLN391     -0.2717
      9  NE2      -53.9290   30.6780  -21.4470 N.am  391  GLN391     -0.0878
     10  N        -53.8560   31.8520  -26.9300 N.am  392  ASN392     -0.1974
     11  CA       -53.7790   33.2460  -27.3840 C.3   392  ASN392      0.1688
     12  C        -52.4830   33.5480  -28.1510 C.2   392  ASN392      0.2292
     13  O        -51.7890   34.5330  -27.8880 O.2   392  ASN392     -0.2864
     14  CB       -53.9490   34.1880  -26.2060 C.3   392  ASN392      0.1181
     15  CG       -55.1880   33.9010  -25.4280 C.2   392  ASN392      0.2629
     16  OD1      -56.1520   33.3450  -25.9410 O.2   392  ASN392     -0.2716
     17  ND2      -55.1690   34.2650  -24.1590 N.am  392  ASN392     -0.0877
     18  N        -53.7500   23.8720  -22.4210 N.3   413  ASP413     -0.1239
     19  CA       -54.5750   24.8850  -23.1000 C.3   413  ASP413      0.1674
     20  C        -53.8650   25.2490  -24.4020 C.2   413  ASP413      0.2266
     21  O        -52.8410   25.9430  -24.4000 O.2   413  ASP413     -0.2867
     22  CB       -54.8130   26.1350  -22.2440 C.3   413  ASP413      0.1410
     23  CG       -55.9390   27.0620  -22.8090 C.2   413  ASP413      0.3668
     24  OD1      -56.2540   26.9500  -24.0010 O.co2 413  ASP413     -0.2456
     25  OD2      -56.4920   27.9360  -22.0870 O.co2 413  ASP413     -0.2456
     26  N        -55.8240   26.6930  -26.8710 N.3   415  SER415     -0.1202
     27  CA       -56.9150   27.4030  -27.5390 C.3   415  SER415      0.2020
     28  C        -56.4290   28.7070  -28.1930 C.2   415  SER415      0.2618
     29  O        -55.2490   29.0700  -28.1330 O.2   415  SER415     -0.2717
     30  CB       -58.0360   27.7260  -26.5430 C.3   415  SER415      0.2103
     31  OG       -57.6320   28.5900  -25.4850 O.3   415  SER415     -0.2182
     32  N        -57.3720   29.4060  -28.8380 N.am  416  ASN416     -0.1974
     33  CA       -57.1540   30.7120  -29.4800 C.3   416  ASN416      0.1688
     34  C        -55.8750   30.7470  -30.2960 C.2   416  ASN416      0.2292
     35  O        -55.0380   31.6510  -30.1730 O.2   416  ASN416     -0.2864
     36  CB       -57.1560   31.8370  -28.4810 C.3   416  ASN416      0.1181
     37  CG       -57.2750   33.1820  -29.1380 C.2   416  ASN416      0.2629
     38  OD1      -57.8340   33.3050  -30.2200 O.2   416  ASN416     -0.2716
     39  ND2      -56.7410   34.2070  -28.4860 N.am  416  ASN416     -0.0877
     40  N        -57.4860   18.6890  -17.9070 N.3   435  TYR435     -0.1241
     41  CA       -58.1230   19.8490  -18.5400 C.3   435  TYR435      0.1605
     42  C        -57.5480   19.9870  -19.9560 C.2   435  TYR435      0.2264
     43  O        -56.3290   20.1690  -20.1070 O.2   435  TYR435     -0.2867
     44  CB       -57.7640   21.1140  -17.7740 C.3   435  TYR435      0.0534
     45  CG       -58.2330   22.4340  -18.3360 C.ar  435  TYR435     -0.0201
     46  CD1      -59.4860   22.6050  -18.8450 C.ar  435  TYR435     -0.0009
     47  CD2      -57.3050   23.3740  -18.6710 C.ar  435  TYR435     -0.0009
     48  CE1      -59.8670   23.8230  -19.4000 C.ar  435  TYR435      0.0417
     49  CE2      -57.6400   24.5620  -19.2580 C.ar  435  TYR435      0.0417
     50  CZ       -58.9140   24.7900  -19.6320 C.ar  435  TYR435      0.1957
     51  OH       -59.2220   25.9890  -20.2280 O.3   435  TYR435     -0.2866
     52  N        -58.2720   22.2910  -23.4580 N.3   437  ASN437     -0.1240
     53  CA       -59.0220   23.3460  -24.1430 C.3   437  ASN437      0.1653
     54  C        -58.4190   23.5710  -25.5310 C.2   437  ASN437      0.2266
     55  O        -57.2910   24.0640  -25.6550 O.2   437  ASN437     -0.2867
     56  CB       -59.0330   24.6330  -23.3170 C.3   437  ASN437      0.1155
     57  CG       -60.0360   25.6390  -23.8240 C.2   437  ASN437      0.2627
     58  OD1      -60.5110   25.5140  -24.9370 O.2   437  ASN437     -0.2716
     59  ND2      -60.3680   26.6430  -23.0070 N.am  437  ASN437     -0.0877
     60  N        -60.4150   25.2190  -27.8510 N.3   439  SER439     -0.1202
     61  CA       -61.3980   26.1440  -28.4030 C.3   439  SER439      0.2020
     62  C        -60.7510   27.2150  -29.2950 C.2   439  SER439      0.2619
     63  O        -59.5490   27.4830  -29.2280 O.2   439  SER439     -0.2717
     64  CB       -62.1810   26.8020  -27.2670 C.3   439  SER439      0.2103
     65  OG       -63.0880   27.7820  -27.7360 O.3   439  SER439     -0.2182
     66  N        -61.5850   27.7930  -30.1700 N.am  440  THR440     -0.1952
     67  CA       -61.2530   28.7340  -31.2450 C.3   440  THR440      0.1897
     68  C        -59.9530   28.3320  -31.9440 C.2   440  THR440      0.2313
     69  O        -58.8940   28.9320  -31.7250 O.2   440  THR440     -0.2863
     70  CB       -61.1630   30.1960  -30.7940 C.3   440  THR440      0.1794
     71  OG1      -60.0470   30.3590  -29.9420 O.3   440  THR440     -0.2208
     72  CG2      -62.4210   30.6250  -30.0480 C.3   440  THR440      0.0378
     73  N        -62.4780   18.7640  -17.6310 N.3   459  ILE459     -0.1245
     74  CA       -62.8910   19.9250  -18.4070 C.3   459  ILE459      0.1561
     75  C        -62.3520   19.7590  -19.8170 C.2   459  ILE459      0.2260
     76  O        -61.1310   19.6640  -20.0160 O.2   459  ILE459     -0.2867
     77  CB       -62.3760   21.2290  -17.7920 C.3   459  ILE459      0.0252
     78  CG1      -62.9190   21.4080  -16.3760 C.3   459  ILE459      0.0019
     79  CG2      -62.8290   22.3840  -18.6360 C.3   459  ILE459      0.0019
     80  CD1      -62.4170   22.6520  -15.6910 C.3   459  ILE459      0.0001
     81  N        -62.9780   21.5490  -23.6530 N.3   461  SER461     -0.1217
     82  CA       -63.6060   22.6440  -24.3820 C.3   461  SER461      0.1889
     83  C        -63.0120   22.7010  -25.7770 C.2   461  SER461      0.2288
     84  O        -61.8180   22.9760  -25.9280 O.2   461  SER461     -0.2866
     85  CB       -63.3950   23.9670  -23.6600 C.3   461  SER461      0.2089
     86  OG       -63.8090   25.0570  -24.4570 O.3   461  SER461     -0.2183
     87  N        -65.0550   24.4800  -28.1280 N.3   463  SER463     -0.1217
     88  CA       -65.9980   25.4350  -28.7120 C.3   463  SER463      0.1889
     89  C        -65.3480   26.3070  -29.7710 C.2   463  SER463      0.2288
     90  O        -64.1790   26.6690  -29.6620 O.2   463  SER463     -0.2866
     91  CB       -66.5520   26.3520  -27.6260 C.3   463  SER463      0.2089
     92  OG       -65.7250   27.5040  -27.5030 O.3   463  SER463     -0.2183
     93  N        -67.2670   19.5650  -17.1750 N.3   482  ARG482     -0.1245
     94  CA       -67.5730   20.7220  -18.0230 C.3   482  ARG482      0.1563
     95  C        -67.2570   20.3360  -19.4640 C.2   482  ARG482      0.2260
     96  O        -66.1340   19.9190  -19.7740 O.2   482  ARG482     -0.2867
     97  CB       -66.7960   21.9920  -17.5820 C.3   482  ARG482      0.0307
     98  CG       -67.3390   23.3840  -18.1160 C.3   482  ARG482      0.0489
     99  CD       -67.2440   24.5820  -17.1010 C.3   482  ARG482      0.2205
    100  NE       -68.1160   24.3490  -15.9090 N.pl3 482  ARG482     -0.0865
    101  CZ       -67.7400   24.3110  -14.6020 C.cat 482  ARG482      0.5346
    102  NH1      -66.4760   24.5380  -14.2140 N.pl3 482  ARG482      0.1354
    103  NH2      -68.6480   24.0510  -13.6540 N.pl3 482  ARG482      0.1354
    104  N        -67.6540   21.8940  -23.3040 N.3   484  GLU484     -0.1245
    105  CA       -67.9510   23.0480  -24.1590 C.3   484  GLU484      0.1567
    106  C        -67.7190   22.7030  -25.6330 C.2   484  GLU484      0.2260
    107  O        -66.5750   22.6550  -26.0920 O.2   484  GLU484     -0.2867
    108  CB       -67.0850   24.2360  -23.7390 C.3   484  GLU484      0.0388
    109  CG       -67.4980   24.9330  -22.4560 C.3   484  GLU484      0.1160
    110  CD       -66.5420   26.0660  -22.0600 C.2   484  GLU484      0.3649
    111  OE1      -65.3470   26.0100  -22.4300 O.co2 484  GLU484     -0.2457
    112  OE2      -67.0030   27.0420  -21.4190 O.co2 484  GLU484     -0.2457
@<TRIPOS>BOND
     1    68    69    2
     2    68    67    1
     3    67    70    1
     4    67    66    1
     5    70    72    1
     6    70    71    1
     7    34    35    2
     8    34    33    1
     9    38    37    2
    10    66    62   am
    11    89    90    2
    12    89    88    1
    13    33    32    1
    14    33    36    1
    15    62    63    2
    16    62    61    1
    17    37    39   am
    18    37    36    1
    19    32    28   am
    20    88    87    1
    21    88    91    1
    22    61    60    1
    23    61    64    1
    24    28    29    2
    25    28    27    1
    26    12    13    2
    27    12    11    1
    28    65    64    1
    29    91    92    1
    30    27    26    1
    31    27    30    1
    32    11    10    1
    33    11    14    1
    34    10     3   am
    35    30    31    1
    36    14    15    1
    37     3     4    2
    38     3     2    1
    39   107   106    2
    40    16    15    2
    41    84    83    2
    42     2     1    1
    43     2     5    1
    44    83    82    1
    45    55    54    2
    46   106   105    1
    47    54    53    1
    48    15    17   am
    49     5     6    1
    50    58    57    2
    51    86    85    1
    52    20    21    2
    53    20    19    1
    54    82    85    1
    55    82    81    1
    56   105   108    1
    57   105   104    1
    58    53    52    1
    59    53    56    1
    60    24    23   ar
    61    57    56    1
    62    57    59   am
    63     6     7    1
    64   108   109    1
    65    19    18    1
    66    19    22    1
    67    23    22    1
    68    23    25   ar
    69     8     7    2
    70     7     9   am
    71   109   110    1
    72   111   110   ar
    73   110   112   ar
    74    51    50    1
    75    43    42    2
    76    76    75    2
    77    42    41    1
    78    75    74    1
    79    96    95    2
    80    50    48   ar
    81    50    49   ar
    82    95    94    1
    83    48    46   ar
    84    49    47   ar
    85    46    45   ar
    86    47    45   ar
    87    79    77    1
    88    41    40    1
    89    41    44    1
    90    74    77    1
    91    74    73    1
    92    45    44    1
    93    98    97    1
    94    98    99    1
    95    94    97    1
    96    94    93    1
    97    77    78    1
    98    99   100    1
    99    78    80    1
   100   100   101    2
   101   101   102    1
   102   101   103    1
