@<TRIPOS>MOLECULE
tmp/5gijA02.pdb
 88 82 0 0 0
SMALL
GASTEIGER

@<TRIPOS>ATOM
      1  N        -29.8690   21.8440   27.2660 N.3    53  ASP53      -0.1239
      2  CA       -30.7830   21.8170   26.1310 C.3    53  ASP53       0.1674
      3  C        -32.1620   21.4340   26.6500 C.2    53  ASP53       0.2266
      4  O        -32.4080   20.2740   26.9820 O.2    53  ASP53      -0.2867
      5  CB       -30.2850   20.8340   25.0700 C.3    53  ASP53       0.1410
      6  CG       -31.0990   20.8880   23.7700 C.2    53  ASP53       0.3668
      7  OD1      -32.2680   21.3460   23.8130 O.co2  53  ASP53      -0.2456
      8  OD2      -30.5660   20.4650   22.7040 O.co2  53  ASP53      -0.2456
      9  N        -34.9690   22.2730   24.7930 N.3    55  SER55      -0.1202
     10  CA       -35.8200   22.6050   23.6520 C.3    55  SER55       0.2020
     11  C        -36.8560   21.5290   23.3460 C.2    55  SER55       0.2618
     12  O        -36.6690   20.3510   23.6460 O.2    55  SER55      -0.2717
     13  CB       -34.9580   22.8490   22.4190 C.3    55  SER55       0.2103
     14  OG       -34.0880   21.7510   22.2140 O.3    55  SER55      -0.2182
     15  N        -37.9650   21.9620   22.7400 N.am   56  HIS56      -0.1975
     16  CA       -39.0180   21.0870   22.2190 C.3    56  HIS56       0.1656
     17  C        -39.4480   20.0110   23.2310 C.2    56  HIS56       0.2291
     18  O        -39.5110   18.8180   22.9290 O.2    56  HIS56      -0.2864
     19  CB       -38.5850   20.4680   20.8810 C.3    56  HIS56       0.0771
     20  CG       -38.9040   21.3200   19.6800 C.ar   56  HIS56       0.0820
     21  ND1      -37.9890   22.1890   19.1090 N.ar   56  HIS56      -0.2267
     22  CD2      -40.0440   21.4510   18.9550 C.ar   56  HIS56       0.1154
     23  CE1      -38.5490   22.8140   18.0860 C.ar   56  HIS56       0.1986
     24  NE2      -39.7980   22.3880   17.9730 N.ar   56  HIS56      -0.2212
     25  N        -23.9430   27.2050   26.8360 N.3    75  TYR75      -0.1241
     26  CA       -24.9280   26.8810   25.8110 C.3    75  TYR75       0.1605
     27  C        -26.2760   26.7370   26.4900 C.2    75  TYR75       0.2264
     28  O        -26.4300   25.8800   27.3630 O.2    75  TYR75      -0.2867
     29  CB       -24.5290   25.5770   25.0960 C.3    75  TYR75       0.0534
     30  CG       -25.4940   25.0840   24.0380 C.ar   75  TYR75      -0.0201
     31  CD1      -26.5870   24.2990   24.3770 C.ar   75  TYR75      -0.0009
     32  CD2      -25.3120   25.3890   22.7000 C.ar   75  TYR75      -0.0009
     33  CE1      -27.4810   23.8500   23.4070 C.ar   75  TYR75       0.0417
     34  CE2      -26.1990   24.9390   21.7290 C.ar   75  TYR75       0.0417
     35  CZ       -27.2780   24.1700   22.0870 C.ar   75  TYR75       0.1957
     36  OH       -28.1590   23.7230   21.1250 O.3    75  TYR75      -0.2866
     37  N        -30.3640   26.3590   25.3010 N.3    77  ASN77      -0.1240
     38  CA       -31.3780   26.2410   24.2540 C.3    77  ASN77       0.1653
     39  C        -32.7410   26.0280   24.9110 C.2    77  ASN77       0.2266
     40  O        -33.0100   24.9460   25.4410 O.2    77  ASN77      -0.2867
     41  CB       -31.0160   25.0810   23.3240 C.3    77  ASN77       0.1155
     42  CG       -31.7420   25.1230   21.9950 C.2    77  ASN77       0.2627
     43  OD1      -32.7970   25.7380   21.8630 O.2    77  ASN77      -0.2716
     44  ND2      -31.1730   24.4410   20.9940 N.am   77  ASN77      -0.0877
     45  N        -35.4350   26.6740   22.9040 N.3    79  SER79      -0.1217
     46  CA       -36.1910   26.8330   21.6600 C.3    79  SER79       0.1889
     47  C        -37.4190   25.9340   21.5750 C.2    79  SER79       0.2288
     48  O        -37.4420   24.8110   22.0870 O.2    79  SER79      -0.2866
     49  CB       -35.2990   26.5300   20.4580 C.3    79  SER79       0.2089
     50  OG       -36.0650   26.0580   19.3620 O.3    79  SER79      -0.2183
     51  N        -23.8220   30.5730   22.9420 N.3    99  THR99      -0.1203
     52  CA       -25.0300   30.5510   22.1310 C.3    99  THR99       0.1994
     53  C        -26.2630   30.5160   23.0490 C.2    99  THR99       0.2618
     54  O        -26.2860   29.8060   24.0640 O.2    99  THR99      -0.2717
     55  CB       -25.0080   29.3620   21.1320 C.3    99  THR99       0.1784
     56  OG1      -25.5840   28.2000   21.7190 O.3    99  THR99      -0.2211
     57  CG2      -23.5620   29.0040   20.7650 C.3    99  THR99       0.0376
     58  N        -27.2680   31.3270   22.7100 N.am  100  LEU100     -0.1965
     59  CA       -28.5290   31.4060   23.4360 C.3   100  LEU100      0.1728
     60  C        -29.6580   31.3490   22.4150 C.2   100  LEU100      0.2616
     61  O        -29.7440   32.2230   21.5490 O.2   100  LEU100     -0.2715
     62  CB       -28.6040   32.7010   24.2540 C.3   100  LEU100      0.0311
     63  CG       -29.9420   33.1000   24.8820 C.3   100  LEU100      0.0022
     64  CD1      -30.2320   32.2330   26.0580 C.3   100  LEU100      0.0001
     65  CD2      -29.9230   34.5330   25.2930 C.3   100  LEU100      0.0001
     66  N        -30.5230   30.3300   22.5100 N.am  101  ASP101     -0.1971
     67  CA       -31.6320   30.1410   21.5730 C.3   101  ASP101      0.1709
     68  C        -32.9700   30.2830   22.2970 C.2   101  ASP101      0.2293
     69  O        -33.3440   29.4270   23.0980 O.2   101  ASP101     -0.2864
     70  CB       -31.5360   28.7880   20.8730 C.3   101  ASP101      0.1436
     71  CG       -32.4200   28.7140   19.6250 C.2   101  ASP101      0.3671
     72  OD1      -33.5020   29.3520   19.6300 O.co2 101  ASP101     -0.2456
     73  OD2      -32.0380   28.0330   18.6390 O.co2 101  ASP101     -0.2456
     74  N        -23.7190   33.4210   19.2920 N.3   123  VAL123     -0.1245
     75  CA       -24.9450   33.0950   18.5630 C.3   123  VAL123      0.1561
     76  C        -26.1580   33.4790   19.3920 C.2   123  VAL123      0.2260
     77  O        -26.3240   32.9810   20.5060 O.2   123  VAL123     -0.2867
     78  CB       -25.0190   31.6050   18.2310 C.3   123  VAL123      0.0252
     79  CG1      -26.0190   31.3870   17.1620 C.3   123  VAL123      0.0019
     80  CG2      -23.6710   31.0980   17.8250 C.3   123  VAL123      0.0019
     81  N        -30.3330   33.5350   18.8290 N.3   125  ASN125     -0.1240
     82  CA       -31.4880   33.2280   17.9960 C.3   125  ASN125      0.1653
     83  C        -32.7760   33.4760   18.7780 C.2   125  ASN125      0.2266
     84  O        -33.0930   32.7400   19.7130 O.2   125  ASN125     -0.2867
     85  CB       -31.4120   31.7840   17.5410 C.3   125  ASN125      0.1155
     86  CG       -32.3610   31.4970   16.4330 C.2   125  ASN125      0.2627
     87  OD1      -33.3430   32.2300   16.2330 O.2   125  ASN125     -0.2716
     88  ND2      -32.0900   30.4290   15.6900 N.am  125  ASN125     -0.0877
@<TRIPOS>BOND
     1    88    86   am
     2    87    86    2
     3    86    85    1
     4    79    78    1
     5    85    82    1
     6    80    78    1
     7    24    23   ar
     8    24    22   ar
     9    82    83    1
    10    82    81    1
    11    23    21   ar
    12    78    75    1
    13    75    74    1
    14    75    76    1
    15    73    71   ar
    16    83    84    2
    17    22    20   ar
    18    21    20   ar
    19    50    49    1
    20    76    77    2
    21    71    72   ar
    22    71    70    1
    23    20    19    1
    24    49    46    1
    25    57    55    1
    26    70    67    1
    27    19    16    1
    28    44    42   am
    29    36    35    1
    30    55    56    1
    31    55    52    1
    32    61    60    2
    33    67    68    1
    34    67    66    1
    35    47    46    1
    36    47    48    2
    37    46    45    1
    38    34    35   ar
    39    34    32   ar
    40    43    42    2
    41    42    41    1
    42    35    33   ar
    43    52    51    1
    44    52    53    1
    45    14    13    1
    46    16    15    1
    47    16    17    1
    48    68    69    2
    49    60    66   am
    50    60    59    1
    51    13    10    1
    52    32    30   ar
    53     8     6   ar
    54    58    53   am
    55    58    59    1
    56    15    11   am
    57    18    17    2
    58    53    54    2
    59    41    38    1
    60    11    12    2
    61    11    10    1
    62    33    31   ar
    63    59    62    1
    64    10     9    1
    65     6     7   ar
    66     6     5    1
    67    30    31   ar
    68    30    29    1
    69    62    63    1
    70    38    39    1
    71    38    37    1
    72    63    65    1
    73    63    64    1
    74    39    40    2
    75     5     2    1
    76    29    26    1
    77    26    27    1
    78    26    25    1
    79     2     3    1
    80     2     1    1
    81    27    28    2
    82     3     4    2
