@<TRIPOS>MOLECULE
tmp/5ginO00.pdb
 200 191 0 0 0
SMALL
GASTEIGER

@<TRIPOS>ATOM
      1  N        155.5660 -116.3560  -11.5320 N.3    54  ARG54      -0.1245
      2  CA       155.8800 -115.3210  -12.5130 C.3    54  ARG54       0.1563
      3  C        155.6600 -115.7500  -13.9590 C.2    54  ARG54       0.2260
      4  O        155.1530 -114.9860  -14.7790 O.2    54  ARG54      -0.2867
      5  CB       157.3100 -114.8700  -12.3220 C.3    54  ARG54       0.0307
      6  CG       157.5520 -114.2020  -11.0080 C.3    54  ARG54       0.0489
      7  CD       158.7930 -113.4260  -11.1860 C.3    54  ARG54       0.2205
      8  NE       159.3790 -112.8900   -9.9760 N.pl3  54  ARG54      -0.0865
      9  CZ       160.2500 -111.9010  -10.0020 C.cat  54  ARG54       0.5346
     10  NH1      160.7930 -111.4550   -8.8830 N.pl3  54  ARG54       0.1354
     11  NH2      160.5480 -111.3560  -11.1680 N.pl3  54  ARG54       0.1354
     12  N        153.9560 -117.9740  -16.7860 N.3    56  LYS56      -0.1245
     13  CA       152.7750 -118.7510  -17.0380 C.3    56  LYS56       0.1561
     14  C        153.1800 -120.1600  -17.4960 C.2    56  LYS56       0.2260
     15  O        152.4260 -121.1180  -17.2930 O.2    56  LYS56      -0.2867
     16  CB       151.8870 -118.0320  -18.0510 C.3    56  LYS56       0.0271
     17  CG       150.9550 -117.0130  -17.4140 C.3    56  LYS56       0.0035
     18  CD       151.6490 -115.6830  -17.1890 C.3    56  LYS56       0.0206
     19  CE       150.6190 -114.6410  -16.8340 C.3    56  LYS56       0.1093
     20  NZ       149.4310 -114.8400  -17.7000 N.3    56  LYS56      -0.1314
     21  N        156.8160 -115.5580  -29.7540 N.3    78  TYR78      -0.1241
     22  CA       156.4450 -115.2190  -28.3880 C.3    78  TYR78       0.1605
     23  C        155.7390 -113.8480  -28.4120 C.2    78  TYR78       0.2264
     24  O        156.3710 -112.7940  -28.3550 O.2    78  TYR78      -0.2867
     25  CB       157.6870 -115.2150  -27.4770 C.3    78  TYR78       0.0534
     26  CG       157.3870 -115.2480  -25.9870 C.ar   78  TYR78      -0.0201
     27  CD1      156.6310 -114.2540  -25.3960 C.ar   78  TYR78      -0.0009
     28  CD2      157.8680 -116.2660  -25.1730 C.ar   78  TYR78      -0.0009
     29  CE1      156.3490 -114.2710  -24.0610 C.ar   78  TYR78       0.0417
     30  CE2      157.5840 -116.2880  -23.8130 C.ar   78  TYR78       0.0417
     31  CZ       156.8210 -115.2770  -23.2700 C.ar   78  TYR78       0.1957
     32  OH       156.4970 -115.2360  -21.9400 O.3    78  TYR78      -0.2866
     33  N        153.7990 -110.8320  -26.9520 N.3    80  GLY80      -0.1210
     34  CA       153.7500 -110.2460  -25.6260 C.3    80  GLY80       0.1956
     35  C        155.0660 -110.5180  -24.9140 C.2    80  GLY80       0.2612
     36  O        155.0860 -111.1050  -23.8210 O.2    80  GLY80      -0.2717
     37  N        156.1590 -110.0560  -25.5240 N.am   81  ALA81      -0.1965
     38  CA       157.4970 -110.3830  -25.0610 C.3    81  ALA81       0.1728
     39  C        157.8510 -109.7430  -23.7170 C.2    81  ALA81       0.2616
     40  O        158.6600 -110.3020  -22.9630 O.2    81  ALA81      -0.2715
     41  CB       158.4830 -109.9610  -26.0970 C.3    81  ALA81       0.0334
     42  N        157.2830 -108.5650  -23.4490 N.am   82  ALA82      -0.1977
     43  CA       157.4230 -107.8660  -22.1600 C.3    82  ALA82       0.1597
     44  C        158.8340 -107.7980  -21.5860 C.2    82  ALA82       0.2287
     45  O        159.7970 -107.6570  -22.3140 O.2    82  ALA82      -0.2864
     46  CB       156.4930 -108.4950  -21.1290 C.3    82  ALA82       0.0319
     47  N        160.8000 -110.0140  -20.2640 N.3    84  GLY84      -0.1210
     48  CA       161.7430 -111.0650  -20.5880 C.3    84  GLY84       0.1956
     49  C        161.9040 -112.1010  -19.4960 C.2    84  GLY84       0.2613
     50  O        162.8510 -112.8820  -19.5170 O.2    84  GLY84      -0.2717
     51  N        161.0370 -112.0760  -18.4950 N.am   85  THR85      -0.1938
     52  CA       161.1080 -113.1120  -17.4680 C.3    85  THR85       0.2028
     53  C        160.8350 -114.5010  -18.0540 C.2    85  THR85       0.2643
     54  O        161.6630 -115.4010  -17.9380 O.2    85  THR85      -0.2714
     55  CB       160.1860 -112.8210  -16.2830 C.3    85  THR85       0.1808
     56  OG1      160.7790 -111.7720  -15.5120 O.3    85  THR85      -0.2208
     57  CG2      160.0760 -114.0420  -15.3890 C.3    85  THR85       0.0379
     58  N        159.6610 -114.6990  -18.6380 N.am   86  THR86      -0.1936
     59  CA       159.3530 -116.0080  -19.1940 C.3    86  THR86       0.2028
     60  C        160.2060 -116.3210  -20.4450 C.2    86  THR86       0.2642
     61  O        160.7150 -117.4210  -20.5660 O.2    86  THR86      -0.2714
     62  CB       157.8540 -116.1340  -19.5100 C.3    86  THR86       0.1808
     63  OG1      157.0930 -116.0130  -18.2990 O.3    86  THR86      -0.2208
     64  CG2      157.5340 -117.4750  -20.1580 C.3    86  THR86       0.0379
     65  N        160.3980 -115.3620  -21.3530 N.am   87  ILE87      -0.1977
     66  CA       161.1230 -115.6190  -22.6200 C.3    87  ILE87       0.1596
     67  C        162.5960 -115.9730  -22.4060 C.2    87  ILE87       0.2287
     68  O        163.2390 -116.5700  -23.2790 O.2    87  ILE87      -0.2864
     69  CB       161.0290 -114.4190  -23.5910 C.3    87  ILE87       0.0276
     70  CG1      161.2810 -114.8640  -25.0440 C.3    87  ILE87       0.0022
     71  CG2      162.0500 -113.3580  -23.2030 C.3    87  ILE87       0.0022
     72  CD1      160.8880 -113.8580  -26.1270 C.3    87  ILE87       0.0001
     73  N        157.6850 -110.2460  -29.8500 N.3   103  VAL103     -0.1231
     74  CA       157.0380 -109.0190  -30.2490 C.3   103  VAL103      0.1692
     75  C        156.5200 -108.3460  -28.9630 C.2   103  VAL103      0.2592
     76  O        156.0220 -109.0300  -28.0530 O.2   103  VAL103     -0.2718
     77  CB       155.9080 -109.2760  -31.2470 C.3   103  VAL103      0.0266
     78  CG1      155.0650 -108.0310  -31.4190 C.3   103  VAL103      0.0020
     79  CG2      156.4690 -109.7260  -32.5960 C.3   103  VAL103      0.0020
     80  N        156.7070 -107.0230  -28.8840 N.am  104  GLU104     -0.1966
     81  CA       156.2970 -106.1920  -27.7540 C.3   104  GLU104      0.1733
     82  C        156.2210 -104.7270  -28.1740 C.2   104  GLU104      0.2616
     83  O        157.2040 -104.1670  -28.6370 O.2   104  GLU104     -0.2715
     84  CB       157.2440 -106.3830  -26.5630 C.3   104  GLU104      0.0429
     85  CG       156.9450 -105.4050  -25.4460 C.3   104  GLU104      0.1163
     86  CD       155.5220 -105.5450  -24.9730 C.2   104  GLU104      0.3649
     87  OE1      155.0910 -106.6840  -24.6810 O.co2 104  GLU104     -0.2457
     88  OE2      154.8160 -104.5220  -24.9130 O.co2 104  GLU104     -0.2457
     89  N        155.0570 -104.1130  -27.9820 N.am  105  PHE105     -0.1960
     90  CA       154.8040 -102.8080  -28.5770 C.3   105  PHE105      0.1771
     91  C        154.9540 -101.6690  -27.5660 C.2   105  PHE105      0.2620
     92  O        154.8300 -100.4830  -27.9340 O.2   105  PHE105     -0.2715
     93  CB       153.3780 -102.7740  -29.1860 C.3   105  PHE105      0.0574
     94  CG       152.2600 -102.4850  -28.1710 C.ar  105  PHE105     -0.0200
     95  CD1      152.1720 -103.1740  -26.9590 C.ar  105  PHE105     -0.0042
     96  CD2      151.3060 -101.5130  -28.4440 C.ar  105  PHE105     -0.0042
     97  CE1      151.1590 -102.8960  -26.0390 C.ar  105  PHE105     -0.0003
     98  CE2      150.2870 -101.2220  -27.5380 C.ar  105  PHE105     -0.0003
     99  CZ       150.2140 -101.9230  -26.3200 C.ar  105  PHE105     -0.0000
    100  N        155.2830 -102.0290  -26.3190 N.am  106  SER106     -0.1950
    101  CA       155.4220 -101.0490  -25.2380 C.3   106  SER106      0.1924
    102  C        156.8820 -100.7730  -24.8640 C.2   106  SER106      0.2314
    103  O        157.4810 -101.5260  -24.0850 O.2   106  SER106     -0.2863
    104  CB       154.6360 -101.5180  -24.0100 C.3   106  SER106      0.2116
    105  OG       154.5890 -100.5200  -23.0120 O.3   106  SER106     -0.2180
    106  N        159.2200 -101.1050  -21.4080 N.3   109  VAL109     -0.1245
    107  CA       159.6280 -102.3610  -20.7970 C.3   109  VAL109      0.1561
    108  C        160.5200 -103.0890  -21.7910 C.2   109  VAL109      0.2260
    109  O        161.3590 -103.8920  -21.3830 O.2   109  VAL109     -0.2867
    110  CB       158.4200 -103.1860  -20.3030 C.3   109  VAL109      0.0252
    111  CG1      158.6620 -104.6610  -20.3270 C.3   109  VAL109      0.0019
    112  CG2      158.0850 -102.7720  -18.8700 C.3   109  VAL109      0.0019
    113  N        156.9470 -103.9090  -31.9880 N.3   128  ALA128     -0.1231
    114  CA       155.8430 -103.6540  -32.9100 C.3   128  ALA128      0.1694
    115  C        154.4730 -104.0830  -32.3740 C.2   128  ALA128      0.2592
    116  O        154.3740 -104.8640  -31.4220 O.2   128  ALA128     -0.2718
    117  CB       156.1060 -104.3270  -34.2410 C.3   128  ALA128      0.0304
    118  N        153.4250 -103.6370  -33.0610 N.am  129  ASP129     -0.1960
    119  CA       152.0700 -103.9180  -32.6430 C.3   129  ASP129      0.1840
    120  C        151.6760 -105.2840  -33.2300 C.2   129  ASP129      0.2622
    121  O        151.6160 -105.4620  -34.4560 O.2   129  ASP129     -0.2715
    122  CB       151.1460 -102.7930  -33.1120 C.3   129  ASP129      0.1450
    123  CG       149.8150 -102.8000  -32.4070 C.2   129  ASP129      0.3671
    124  OD1      149.4340 -103.8550  -31.8440 O.co2 129  ASP129     -0.2456
    125  OD2      149.1410 -101.7440  -32.4340 O.co2 129  ASP129     -0.2456
    126  N        151.4380 -106.2480  -32.3440 N.am  130  ALA130     -0.1963
    127  CA       151.0970 -107.6130  -32.7350 C.3   130  ALA130      0.1728
    128  C        149.7500 -107.7960  -33.4620 C.2   130  ALA130      0.2616
    129  O        149.5240 -108.8510  -34.0480 O.2   130  ALA130     -0.2715
    130  CB       151.1480 -108.4990  -31.5020 C.3   130  ALA130      0.0334
    131  N        148.8830 -106.7730  -33.4380 N.am  131  ARG131     -0.1977
    132  CA       147.6330 -106.7350  -34.2320 C.3   131  ARG131      0.1597
    133  C        147.9980 -106.5560  -35.6970 C.2   131  ARG131      0.2287
    134  O        147.1720 -106.7000  -36.6130 O.2   131  ARG131     -0.2864
    135  CB       146.6790 -105.6040  -33.8070 C.3   131  ARG131      0.0334
    136  CG       145.7350 -105.9650  -32.6530 C.3   131  ARG131      0.0492
    137  CD       144.8560 -104.7810  -32.2060 C.3   131  ARG131      0.2205
    138  NE       145.6450 -103.6570  -31.7020 N.pl3 131  ARG131     -0.0865
    139  CZ       145.2560 -102.8470  -30.7200 C.cat 131  ARG131      0.5346
    140  NH1      144.0890 -103.0330  -30.1060 N.pl3 131  ARG131      0.1354
    141  NH2      146.0400 -101.8490  -30.3430 N.pl3 131  ARG131      0.1354
    142  N        153.5720 -118.8630  -29.0050 N.3   147  TYR147     -0.1241
    143  CA       153.3290 -118.5990  -27.5830 C.3   147  TYR147      0.1605
    144  C        152.6650 -117.2170  -27.4230 C.2   147  TYR147      0.2264
    145  O        153.3220 -116.2010  -27.6390 O.2   147  TYR147     -0.2867
    146  CB       154.6540 -118.6560  -26.8220 C.3   147  TYR147      0.0534
    147  CG       154.5790 -118.6660  -25.3010 C.ar  147  TYR147     -0.0201
    148  CD1      154.4450 -117.4960  -24.5680 C.ar  147  TYR147     -0.0009
    149  CD2      154.6630 -119.8600  -24.5980 C.ar  147  TYR147     -0.0009
    150  CE1      154.3890 -117.5210  -23.1670 C.ar  147  TYR147      0.0417
    151  CE2      154.6100 -119.8960  -23.2130 C.ar  147  TYR147      0.0417
    152  CZ       154.4740 -118.7310  -22.4950 C.ar  147  TYR147      0.1957
    153  OH       154.4210 -118.7970  -21.1110 O.3   147  TYR147     -0.2866
    154  N        150.9890 -114.5450  -24.9760 N.3   149  ASP149     -0.1225
    155  CA       150.6630 -114.0270  -23.6620 C.3   149  ASP149      0.1805
    156  C        150.4750 -112.5220  -23.7830 C.2   149  ASP149      0.2598
    157  O        151.3190 -111.7460  -23.3190 O.2   149  ASP149     -0.2718
    158  CB       151.7520 -114.3820  -22.6510 C.3   149  ASP149      0.1424
    159  CG       151.3310 -114.1070  -21.2310 C.2   149  ASP149      0.3668
    160  OD1      150.1390 -113.8430  -21.0220 O.co2 149  ASP149     -0.2456
    161  OD2      152.1760 -114.1930  -20.3240 O.co2 149  ASP149     -0.2456
    162  N        149.3720 -112.1210  -24.4170 N.am  150  ILE150     -0.1966
    163  CA       149.0960 -110.7060  -24.6240 C.3   150  ILE150      0.1727
    164  C        147.8050 -110.3010  -23.8860 C.2   150  ILE150      0.2616
    165  O        146.8160 -111.0580  -23.8470 O.2   150  ILE150     -0.2715
    166  CB       148.9450 -110.3260  -26.1300 C.3   150  ILE150      0.0290
    167  CG1      147.9800 -111.2650  -26.8630 C.3   150  ILE150      0.0022
    168  CG2      150.3070 -110.2450  -26.8220 C.3   150  ILE150      0.0023
    169  CD1      147.3300 -110.6270  -28.1000 C.3   150  ILE150      0.0001
    170  N        147.8150 -109.1080  -23.3020 N.am  151  ALA151     -0.1963
    171  CA       146.6260 -108.5370  -22.6980 C.3   151  ALA151      0.1728
    172  C        145.7750 -107.8470  -23.7700 C.2   151  ALA151      0.2616
    173  O        146.1280 -106.7740  -24.2550 O.2   151  ALA151     -0.2715
    174  CB       147.0190 -107.5620  -21.5810 C.3   151  ALA151      0.0334
    175  N        144.7130 -108.5170  -24.2070 N.am  152  GLN152     -0.1977
    176  CA       143.8260 -107.9760  -25.2370 C.3   152  GLN152      0.1601
    177  C        142.4280 -108.5650  -25.1680 C.2   152  GLN152      0.2287
    178  O        142.2630 -109.7440  -24.8610 O.2   152  GLN152     -0.2864
    179  CB       144.4050 -108.2160  -26.6270 C.3   152  GLN152      0.0394
    180  CG       145.3560 -107.1620  -27.1000 C.3   152  GLN152      0.0908
    181  CD       144.6200 -105.8980  -27.4970 C.2   152  GLN152      0.2608
    182  OE1      143.5450 -105.9520  -28.0990 O.2   152  GLN152     -0.2717
    183  NE2      145.1960 -104.7540  -27.1710 N.am  152  GLN152     -0.0878
    184  N        143.2710 -111.9750  -32.4580 N.3   158  ILE158     -0.1245
    185  CA       144.6470 -111.5340  -32.7130 C.3   158  ILE158      0.1561
    186  C        145.6630 -112.6510  -32.9250 C.2   158  ILE158      0.2260
    187  O        146.4240 -112.6360  -33.8920 O.2   158  ILE158     -0.2867
    188  CB       145.1270 -110.6300  -31.5460 C.3   158  ILE158      0.0252
    189  CG1      144.3380 -109.3110  -31.5750 C.3   158  ILE158      0.0019
    190  CG2      146.6110 -110.3100  -31.6750 C.3   158  ILE158      0.0019
    191  CD1      144.4290 -108.5300  -30.3060 C.3   158  ILE158      0.0001
    192  N        143.3740 -114.6140  -20.5620 N.3   178  LYS178     -0.1245
    193  CA       143.2270 -113.6540  -19.4930 C.3   178  LYS178      0.1561
    194  C        141.7700 -113.2650  -19.3510 C.2   178  LYS178      0.2260
    195  O        141.2810 -112.3990  -20.0860 O.2   178  LYS178     -0.2867
    196  CB       144.0580 -112.4280  -19.7810 C.3   178  LYS178      0.0271
    197  CG       145.3870 -112.7710  -20.3370 C.3   178  LYS178      0.0035
    198  CD       146.3120 -111.6050  -20.2490 C.3   178  LYS178      0.0206
    199  CE       147.7130 -112.0960  -20.3560 C.3   178  LYS178      0.1093
    200  NZ       148.4410 -111.7450  -19.1260 N.3   178  LYS178     -0.1314
@<TRIPOS>BOND
     1   134   133    2
     2   133   132    1
     3   121   120    2
     4   117   114    1
     5   132   135    1
     6   132   131    1
     7   129   128    2
     8   187   186    2
     9   135   136    1
    10   128   131   am
    11   128   127    1
    12   120   119    1
    13   120   126   am
    14   122   119    1
    15   122   123    1
    16   118   119    1
    17   118   115   am
    18   186   185    1
    19   114   115    1
    20   114   113    1
    21   127   126    1
    22   127   130    1
    23   185   184    1
    24   185   188    1
    25   136   137    1
    26    79    77    1
    27   125   123   ar
    28   123   124   ar
    29   115   116    2
    30   137   138    1
    31   138   139    2
    32   190   188    1
    33   189   188    1
    34   189   191    1
    35    78    77    1
    36    77    74    1
    37   139   141    1
    38   139   140    1
    39    74    73    1
    40    74    75    1
    41    21    22    1
    42    93    90    1
    43    93    94    1
    44   142   143    1
    45    75    80   am
    46    75    76    2
    47    80    81    1
    48    83    82    2
    49    90    89    1
    50    90    91    1
    51    96    94   ar
    52    96    98   ar
    53    23    22    1
    54    23    24    2
    55    22    25    1
    56    82    89   am
    57    82    81    1
    58    94    95   ar
    59   169   167    1
    60   182   181    2
    61    92    91    2
    62    81    84    1
    63   145   144    2
    64   143   144    1
    65   143   146    1
    66    91   100   am
    67    98    99   ar
    68   181   183   am
    69   181   180    1
    70    25    26    1
    71   180   179    1
    72    95    97   ar
    73    33    34    1
    74   167   166    1
    75   168   166    1
    76   146   147    1
    77   179   176    1
    78    84    85    1
    79    99    97   ar
    80   100   101    1
    81   166   163    1
    82    72    70    1
    83    41    38    1
    84    26    27   ar
    85    26    28   ar
    86    34    35    1
    87    37    38    1
    88    37    35   am
    89    85    86    1
    90    27    29   ar
    91   147   149   ar
    92   147   148   ar
    93   101   102    1
    94   101   104    1
    95   176   177    1
    96   176   175    1
    97    28    30   ar
    98   177   178    2
    99    38    39    1
   100    70    69    1
   101   154   155    1
   102    86    88   ar
   103    86    87   ar
   104    35    36    2
   105   102   103    2
   106   163   162    1
   107   163   164    1
   108   149   151   ar
   109   148   150   ar
   110   162   156   am
   111   173   172    2
   112   175   172   am
   113    29    31   ar
   114   104   105    1
   115   164   165    2
   116   164   170   am
   117    30    31   ar
   118   156   155    1
   119   156   157    2
   120   172   171    1
   121    39    42   am
   122    39    40    2
   123   155   158    1
   124    69    71    1
   125    69    66    1
   126    42    43    1
   127   170   171    1
   128    68    67    2
   129    31    32    1
   130   151   152   ar
   131   150   152   ar
   132   171   174    1
   133   158   159    1
   134    66    67    1
   135    66    65    1
   136   152   153    1
   137    45    44    2
   138    43    44    1
   139    43    46    1
   140   108   109    2
   141   108   107    1
   142   106   107    1
   143    65    60   am
   144   159   160   ar
   145   159   161   ar
   146   107   110    1
   147    48    47    1
   148    48    49    1
   149    61    60    2
   150   192   193    1
   151    60    59    1
   152   199   198    1
   153   199   200    1
   154   197   198    1
   155   197   196    1
   156   111   110    1
   157   110   112    1
   158    64    62    1
   159   195   194    2
   160   196   193    1
   161    50    49    2
   162    62    59    1
   163    62    63    1
   164    49    51   am
   165   193   194    1
   166    59    58    1
   167    58    53   am
   168    51    52    1
   169    53    54    2
   170    53    52    1
   171    16    17    1
   172    16    13    1
   173    20    19    1
   174    14    15    2
   175    14    13    1
   176    52    55    1
   177    17    18    1
   178    18    19    1
   179    13    12    1
   180    55    56    1
   181    55    57    1
   182     4     3    2
   183     3     2    1
   184     2     5    1
   185     2     1    1
   186     5     6    1
   187     7     6    1
   188     7     8    1
   189    11     9    1
   190     9     8    2
   191     9    10    1
