@<TRIPOS>MOLECULE
tmp/5gitA00.pdb
 94 90 0 0 0
SMALL
GASTEIGER

@<TRIPOS>ATOM
      1  N         -7.7350    3.9830    8.1650 N.3    35  TYR35      -0.1227
      2  CA        -7.1670    3.2680    7.0660 C.3    35  TYR35       0.1736
      3  C         -8.1650    2.1930    6.6300 C.2    35  TYR35       0.2595
      4  O         -8.4880    1.3330    7.4320 O.2    35  TYR35      -0.2718
      5  CB        -5.8800    2.6390    7.5400 C.3    35  TYR35       0.0548
      6  CG        -5.0650    2.0320    6.4340 C.ar   35  TYR35      -0.0200
      7  CD1       -4.5400    2.8230    5.4150 C.ar   35  TYR35      -0.0009
      8  CD2       -4.8120    0.6580    6.4120 C.ar   35  TYR35      -0.0009
      9  CE1       -3.7780    2.2620    4.4050 C.ar   35  TYR35       0.0417
     10  CE2       -4.0520    0.0810    5.4130 C.ar   35  TYR35       0.0417
     11  CZ        -3.5420    0.8820    4.4130 C.ar   35  TYR35       0.1957
     12  OH        -2.7960    0.3050    3.4330 O.3    35  TYR35      -0.2866
     13  N         -8.6590    2.2670    5.3870 N.am   36  GLN36      -0.1979
     14  CA        -9.6370    1.2930    4.8320 C.3    36  GLN36       0.1601
     15  C        -10.5560    0.6220    5.8630 C.2    36  GLN36       0.2287
     16  O        -11.5340    1.2290    6.2930 O.2    36  GLN36      -0.2864
     17  CB        -8.9060    0.2120    4.0520 C.3    36  GLN36       0.0394
     18  CG        -8.2650    0.7110    2.7800 C.3    36  GLN36       0.0908
     19  CD        -6.9240    0.0640    2.5470 C.2    36  GLN36       0.2608
     20  OE1       -6.6110   -0.9600    3.1590 O.2    36  GLN36      -0.2717
     21  NE2       -6.1160    0.6620    1.6680 N.am   36  GLN36      -0.0878
     22  N         -1.5580    2.7770    7.8880 N.3    79  HIS79      -0.1241
     23  CA        -2.1510    1.9540    8.8800 C.3    79  HIS79       0.1621
     24  C         -1.7690    2.4640   10.2830 C.2    79  HIS79       0.2264
     25  O         -0.5870    2.7520   10.5370 O.2    79  HIS79      -0.2867
     26  CB        -1.7170    0.4970    8.7200 C.3    79  HIS79       0.0745
     27  CG        -2.5260   -0.4370    9.5500 C.ar   79  HIS79       0.0817
     28  ND1       -2.1560   -0.7920   10.8260 N.ar   79  HIS79      -0.2268
     29  CD2       -3.7070   -1.0610    9.3090 C.ar   79  HIS79       0.1154
     30  CE1       -3.0680   -1.6060   11.3360 C.ar   79  HIS79       0.1986
     31  NE2       -4.0160   -1.7900   10.4330 N.ar   79  HIS79      -0.2212
     32  N         -1.0930    0.9910   13.0790 N.3    81  LYS81      -0.1231
     33  CA         0.0910    0.3920   13.6610 C.3    81  LYS81       0.1693
     34  C          1.3770    0.8670   13.0340 C.2    81  LYS81       0.2591
     35  O          2.4880    0.8190   13.6760 O.2    81  LYS81      -0.2718
     36  CB         0.0190   -1.1410   13.6410 C.3    81  LYS81       0.0285
     37  CG         1.1740   -1.7820   14.4240 C.3    81  LYS81       0.0035
     38  CD         0.7090   -2.6860   15.5710 C.3    81  LYS81       0.0206
     39  CE         1.8620   -3.0030   16.5230 C.3    81  LYS81       0.1093
     40  NZ         1.3970   -3.3040   17.9060 N.3    81  LYS81      -0.1314
     41  N          1.2930    1.3190   11.7890 N.am   82  VAL82      -0.1980
     42  CA         2.4860    1.9480   11.2470 C.3    82  VAL82       0.1595
     43  C          2.6390    3.3550   11.8660 C.2    82  VAL82       0.2287
     44  O          3.7240    3.6780   12.2950 O.2    82  VAL82      -0.2864
     45  CB         2.5310    2.0520    9.7200 C.3    82  VAL82       0.0276
     46  CG1        3.9040    2.5900    9.3160 C.3    82  VAL82       0.0022
     47  CG2        2.2880    0.6890    9.0820 C.3    82  VAL82       0.0022
     48  N          4.1940    3.2960   15.1440 N.3    85  ARG85      -0.1245
     49  CA         5.6130    3.0370   15.3120 C.3    85  ARG85       0.1563
     50  C          6.4810    4.2170   14.9120 C.2    85  ARG85       0.2260
     51  O          7.6270    4.3400   15.3540 O.2    85  ARG85      -0.2867
     52  CB         6.0390    1.8040   14.5410 C.3    85  ARG85       0.0307
     53  CG         5.3120    0.5620   15.0500 C.3    85  ARG85       0.0489
     54  CD         5.8530   -0.7320   14.4600 C.3    85  ARG85       0.2205
     55  NE         5.6520   -1.8420   15.3970 N.pl3  85  ARG85      -0.0865
     56  CZ         5.1740   -3.0490   15.0920 C.cat  85  ARG85       0.5346
     57  NH1        4.8550   -3.3880   13.8310 N.pl3  85  ARG85       0.1354
     58  NH2        5.0460   -3.9460   16.0740 N.pl3  85  ARG85       0.1354
     59  N          7.6090   -6.6880   13.2240 N.3    98  GLY98      -0.1225
     60  CA         7.6410   -8.0710   12.7360 C.3    98  GLY98       0.1811
     61  C          8.0990   -8.0340   11.2880 C.2    98  GLY98       0.2280
     62  O          7.5360   -7.2810   10.4770 O.2    98  GLY98      -0.2866
     63  N          7.4400   -9.2250    8.7120 N.3   100  LYS100     -0.1231
     64  CA         6.3510   -9.0600    7.7380 C.3   100  LYS100      0.1693
     65  C          6.0240   -7.5860    7.4580 C.2   100  LYS100      0.2592
     66  O          5.6450   -7.2370    6.3390 O.2   100  LYS100     -0.2718
     67  CB         5.0550   -9.7450    8.2140 C.3   100  LYS100      0.0285
     68  CG         5.0700  -11.2620    8.4110 C.3   100  LYS100      0.0035
     69  CD         5.8710  -12.0270    7.3590 C.3   100  LYS100      0.0206
     70  CE         7.2630  -12.3870    7.8740 C.3   100  LYS100      0.1093
     71  NZ         8.3440  -12.1610    6.8740 N.3   100  LYS100     -0.1314
     72  N          6.1520   -6.7380    8.4800 N.am  101  CYS101     -0.1970
     73  CA         5.7230   -5.3390    8.4050 C.3   101  CYS101      0.1712
     74  C          6.7850   -4.3610    7.8990 C.2   101  CYS101      0.2296
     75  O          6.4670   -3.2100    7.6500 O.2   101  CYS101     -0.2864
     76  CB         5.2390   -4.8550    9.7790 C.3   101  CYS101      0.0983
     77  SG         3.7150   -5.6360   10.3500 S.3   101  CYS101     -0.0798
     78  N          5.5480   -2.0530    5.0690 N.3   104  HIS104     -0.1226
     79  CA         4.4860   -1.0880    5.3890 C.3   104  HIS104      0.1752
     80  C          5.0410    0.0940    6.2190 C.2   104  HIS104      0.2595
     81  O          4.5110    1.1880    6.1830 O.2   104  HIS104     -0.2718
     82  CB         3.3920   -1.7550    6.2140 C.3   104  HIS104      0.0759
     83  CG         2.7100   -2.8830    5.5120 C.ar  104  HIS104      0.0818
     84  ND1        2.9350   -4.2050    5.8380 N.ar  104  HIS104     -0.2268
     85  CD2        1.8220   -2.8900    4.4900 C.ar  104  HIS104      0.1154
     86  CE1        2.2060   -4.9770    5.0550 C.ar  104  HIS104      0.1986
     87  NE2        1.5240   -4.2050    4.2260 N.ar  104  HIS104     -0.2212
     88  N          6.0820   -0.1880    6.9800 N.am  105  VAL105     -0.1980
     89  CA         6.7410    0.7760    7.7710 C.3   105  VAL105      0.1595
     90  C          7.5760    1.6360    6.8710 C.2   105  VAL105      0.2287
     91  O          7.5370    2.8640    7.0060 O.2   105  VAL105     -0.2864
     92  CB         7.5630    0.1230    8.8690 C.3   105  VAL105      0.0276
     93  CG1        8.5250    1.1170    9.4960 C.3   105  VAL105      0.0022
     94  CG2        6.6030   -0.4280    9.9250 C.3   105  VAL105      0.0022
@<TRIPOS>BOND
     1    21    19   am
     2    19    18    1
     3    19    20    2
     4    18    17    1
     5    12    11    1
     6    17    14    1
     7    87    85   ar
     8    87    86   ar
     9     9    11   ar
    10     9     7   ar
    11    11    10   ar
    12    85    83   ar
    13    14    13    1
    14    14    15    1
    15    86    84   ar
    16    78    79    1
    17    13     3   am
    18    79    82    1
    19    79    80    1
    20    10     8   ar
    21     7     6   ar
    22    83    84   ar
    23    83    82    1
    24    15    16    2
    25    81    80    2
    26    80    88   am
    27    66    65    2
    28     8     6   ar
    29     6     5    1
    30     3     2    1
    31     3     4    2
    32    90    91    2
    33    90    89    1
    34    71    70    1
    35    88    89    1
    36     2     5    1
    37     2     1    1
    38    69    70    1
    39    69    68    1
    40    65    64    1
    41    65    72   am
    42    75    74    2
    43    64    67    1
    44    64    63    1
    45    89    92    1
    46    22    23    1
    47    74    73    1
    48    67    68    1
    49    73    72    1
    50    73    76    1
    51    26    23    1
    52    26    27    1
    53    92    93    1
    54    92    94    1
    55    23    24    1
    56    47    45    1
    57    29    27   ar
    58    29    31   ar
    59    46    45    1
    60    27    28   ar
    61    45    42    1
    62    76    77    1
    63    24    25    2
    64    31    30   ar
    65    62    61    2
    66    28    30   ar
    67    42    41    1
    68    42    43    1
    69    61    60    1
    70    41    34   am
    71    43    44    2
    72    60    59    1
    73    34    33    1
    74    34    35    2
    75    32    33    1
    76    36    33    1
    77    36    37    1
    78    57    56    1
    79    37    38    1
    80    54    53    1
    81    54    55    1
    82    52    53    1
    83    52    49    1
    84    50    49    1
    85    50    51    2
    86    56    55    2
    87    56    58    1
    88    48    49    1
    89    38    39    1
    90    39    40    1
