@<TRIPOS>MOLECULE
tmp/5gixA00.pdb
 161 152 0 0 0
SMALL
GASTEIGER

@<TRIPOS>ATOM
      1  N          6.5850  -12.1380   -5.0100 N.3   146  TYR146     -0.1241
      2  CA         6.4810  -12.0300   -3.5600 C.3   146  TYR146      0.1605
      3  C          5.0910  -11.5730   -3.1320 C.2   146  TYR146      0.2264
      4  O          4.8030  -11.4680   -1.9430 O.2   146  TYR146     -0.2867
      5  CB         7.5410  -11.0730   -3.0140 C.3   146  TYR146      0.0534
      6  CG         8.9190  -11.6870   -2.9200 C.ar  146  TYR146     -0.0201
      7  CD1        9.2850  -12.4510   -1.8200 C.ar  146  TYR146     -0.0009
      8  CD2        9.8530  -11.5040   -3.9310 C.ar  146  TYR146     -0.0009
      9  CE1       10.5450  -13.0170   -1.7290 C.ar  146  TYR146      0.0417
     10  CE2       11.1140  -12.0650   -3.8490 C.ar  146  TYR146      0.0417
     11  CZ        11.4550  -12.8200   -2.7470 C.ar  146  TYR146      0.1957
     12  OH        12.7120  -13.3780   -2.6650 O.3   146  TYR146     -0.2866
     13  N          1.3030  -11.8440   -2.2220 N.3   148  TYR148     -0.1241
     14  CA         0.5360  -12.9050   -1.5800 C.3   148  TYR148      0.1605
     15  C         -0.4250  -13.5480   -2.5770 C.2   148  TYR148      0.2264
     16  O         -1.2550  -12.8670   -3.1810 O.2   148  TYR148     -0.2867
     17  CB        -0.2200  -12.3600   -0.3650 C.3   148  TYR148      0.0534
     18  CG        -0.8260  -13.4320    0.5170 C.ar  148  TYR148     -0.0201
     19  CD1       -0.0420  -14.4550    1.0380 C.ar  148  TYR148     -0.0009
     20  CD2       -2.1760  -13.4080    0.8450 C.ar  148  TYR148     -0.0009
     21  CE1       -0.5880  -15.4340    1.8440 C.ar  148  TYR148      0.0417
     22  CE2       -2.7310  -14.3790    1.6550 C.ar  148  TYR148      0.0417
     23  CZ        -1.9340  -15.3910    2.1520 C.ar  148  TYR148      0.1957
     24  OH        -2.4850  -16.3630    2.9590 O.3   148  TYR148     -0.2866
     25  N          2.2280   -3.8580    0.8850 N.3   194  GLN194     -0.1245
     26  CA         2.7950   -5.0550    1.4310 C.3   194  GLN194      0.1566
     27  C          4.2850   -4.9850    1.6260 C.2   194  GLN194      0.2260
     28  O          4.7990   -5.3270    2.6820 O.2   194  GLN194     -0.2867
     29  CB         2.4380   -6.2130    0.5360 C.3   194  GLN194      0.0367
     30  CG         3.0970   -7.4880    0.9380 C.3   194  GLN194      0.0905
     31  CD         2.5440   -8.6500    0.1980 C.2   194  GLN194      0.2608
     32  OE1        1.3870   -8.6990   -0.1040 O.2   194  GLN194     -0.2717
     33  NE2        3.3730   -9.5980   -0.0710 N.am  194  GLN194     -0.0878
     34  N          4.7840   -2.6780    4.5070 N.3   197  LYS197     -0.1231
     35  CA         4.4110   -3.1760    5.7850 C.3   197  LYS197      0.1693
     36  C          5.5060   -4.0470    6.2600 C.2   197  LYS197      0.2592
     37  O          5.9470   -3.9470    7.3660 O.2   197  LYS197     -0.2718
     38  CB         3.1920   -4.0470    5.5700 C.3   197  LYS197      0.0285
     39  CG         2.1860   -4.0650    6.6840 C.3   197  LYS197      0.0035
     40  CD         0.7960   -3.9530    6.1100 C.3   197  LYS197      0.0206
     41  CE         0.3380   -5.2630    5.5400 C.3   197  LYS197      0.1093
     42  NZ        -0.3570   -6.0210    6.5780 N.3   197  LYS197     -0.1314
     43  N          5.9760   -4.9250    5.3800 N.am  198  CYS198     -0.1970
     44  CA         7.0540   -5.8490    5.7210 C.3   198  CYS198      0.1712
     45  C          8.3830   -5.1370    5.9700 C.2   198  CYS198      0.2296
     46  O          9.1260   -5.4950    6.8840 O.2   198  CYS198     -0.2864
     47  CB         7.2220   -6.9020    4.6220 C.3   198  CYS198      0.0983
     48  SG         5.9610   -8.1970    4.6310 S.3   198  CYS198     -0.0798
     49  N         -4.4010    0.9430   15.0780 N.3   216  ARG216     -0.1231
     50  CA        -5.3960    0.6070   14.0650 C.3   216  ARG216      0.1694
     51  C         -6.3940   -0.4430   14.5520 C.2   216  ARG216      0.2591
     52  O         -7.5780   -0.3720   14.2270 O.2   216  ARG216     -0.2718
     53  CB        -4.7200    0.1240   12.7800 C.3   216  ARG216      0.0321
     54  CG        -5.4590    0.5640   11.5260 C.3   216  ARG216      0.0489
     55  CD        -4.8750   -0.0420   10.2630 C.3   216  ARG216      0.2205
     56  NE        -5.4480    0.5740    9.0690 N.pl3 216  ARG216     -0.0865
     57  CZ        -5.0620    0.3060    7.8260 C.cat 216  ARG216      0.5346
     58  NH1       -4.0980   -0.5770    7.6030 N.pl3 216  ARG216      0.1354
     59  NH2       -5.6450    0.9200    6.8040 N.pl3 216  ARG216      0.1354
     60  N         -5.9190   -1.4140   15.3250 N.am  217  LEU217     -0.1980
     61  CA        -6.8020   -2.4470   15.8560 C.3   217  LEU217      0.1596
     62  C         -7.7930   -1.8440   16.8440 C.2   217  LEU217      0.2287
     63  O         -8.9490   -2.2650   16.9130 O.2   217  LEU217     -0.2864
     64  CB        -6.0000   -3.5620   16.5260 C.3   217  LEU217      0.0297
     65  CG        -5.3850   -4.6000   15.5870 C.3   217  LEU217      0.0022
     66  CD1       -4.6680   -5.6870   16.3760 C.3   217  LEU217      0.0001
     67  CD2       -6.4530   -5.1990   14.6870 C.3   217  LEU217      0.0001
     68  N         -0.7510  -10.6590   15.3380 N.3   236  LEU236     -0.1245
     69  CA        -0.5980   -9.9610   14.0830 C.3   236  LEU236      0.1561
     70  C          0.8550   -9.7800   13.7970 C.2   236  LEU236      0.2260
     71  O          1.2720   -9.8190   12.6750 O.2   236  LEU236     -0.2867
     72  CB        -1.2730   -8.6150   14.0980 C.3   236  LEU236      0.0270
     73  CG        -2.5690   -8.5070   13.3420 C.3   236  LEU236      0.0019
     74  CD1       -2.7860   -7.0510   13.0610 C.3   236  LEU236      0.0001
     75  CD2       -2.4630   -9.2510   12.0420 C.3   236  LEU236      0.0001
     76  N          2.1770  -13.0230   12.6060 N.3   239  VAL239     -0.1231
     77  CA         1.7670  -13.2510   11.2450 C.3   239  VAL239      0.1692
     78  C          2.6040  -12.4580   10.2670 C.2   239  VAL239      0.2592
     79  O          3.0810  -12.9880    9.3200 O.2   239  VAL239     -0.2718
     80  CB         0.2770  -12.8550   11.1180 C.3   239  VAL239      0.0266
     81  CG1       -0.1730  -12.6570    9.7020 C.3   239  VAL239      0.0020
     82  CG2       -0.6060  -13.8650   11.7730 C.3   239  VAL239      0.0020
     83  N          2.7960  -11.1870   10.5180 N.am  240  HIS240     -0.1976
     84  CA         3.5510  -10.3470    9.6220 C.3   240  HIS240      0.1656
     85  C          5.0000  -10.7750    9.5440 C.2   240  HIS240      0.2291
     86  O          5.6210  -10.7170    8.5090 O.2   240  HIS240     -0.2864
     87  CB         3.3140   -8.8670    9.9140 C.3   240  HIS240      0.0771
     88  CG         2.0310   -8.3430    9.3430 C.ar  240  HIS240      0.0820
     89  ND1        0.9410   -8.0400   10.1130 N.ar  240  HIS240     -0.2267
     90  CD2        1.6590   -8.0940    8.0690 C.ar  240  HIS240      0.1154
     91  CE1       -0.0450   -7.6250    9.3450 C.ar  240  HIS240      0.1986
     92  NE2        0.3620   -7.6460    8.0950 N.ar  240  HIS240     -0.2212
     93  N          4.8890  -13.9890    7.4000 N.3   243  CYS243     -0.1221
     94  CA         4.4690  -13.6570    6.0450 C.3   243  CYS243      0.1808
     95  C          5.5490  -12.8900    5.2850 C.2   243  CYS243      0.2601
     96  O          5.7750  -13.1300    4.0990 O.2   243  CYS243     -0.2717
     97  CB         3.1710  -12.8460    6.0700 C.3   243  CYS243      0.0970
     98  SG         1.6980  -13.7970    6.4990 S.3   243  CYS243     -0.0800
     99  N          6.2270  -11.9870    5.9850 N.am  244  CYS244     -0.1970
    100  CA         7.2940  -11.1980    5.3840 C.3   244  CYS244      0.1712
    101  C          8.4640  -12.0970    4.9950 C.2   244  CYS244      0.2296
    102  O          9.2290  -11.7760    4.0860 O.2   244  CYS244     -0.2864
    103  CB         7.7640  -10.1080    6.3480 C.3   244  CYS244      0.0983
    104  SG         6.6620   -8.6790    6.4550 S.3   244  CYS244     -0.0798
    105  N          2.7100  -18.7860    5.9380 N.3   251  CYS251     -0.1235
    106  CA         2.0240  -17.5030    6.0390 C.3   251  CYS251      0.1677
    107  C          0.5090  -17.6880    6.0190 C.2   251  CYS251      0.2270
    108  O         -0.2130  -17.0630    6.7980 O.2   251  CYS251     -0.2867
    109  CB         2.4560  -16.5730    4.9040 C.3   251  CYS251      0.0956
    110  SG         1.5730  -14.9960    4.8630 S.3   251  CYS251     -0.0801
    111  N         -2.2740  -16.7740    9.0530 N.3   255  ARG255     -0.1245
    112  CA        -3.4080  -15.9220    8.7080 C.3   255  ARG255      0.1563
    113  C         -4.7300  -16.6040    9.0360 C.2   255  ARG255      0.2260
    114  O         -5.5730  -16.0400    9.7360 O.2   255  ARG255     -0.2867
    115  CB        -3.3710  -15.5460    7.2250 C.3   255  ARG255      0.0307
    116  CG        -2.5510  -14.3090    6.9030 C.3   255  ARG255      0.0489
    117  CD        -2.3580  -14.1770    5.4020 C.3   255  ARG255      0.2205
    118  NE        -2.5960  -12.8160    4.9320 N.pl3 255  ARG255     -0.0865
    119  CZ        -3.7390  -12.4020    4.3950 C.cat 255  ARG255      0.5346
    120  NH1       -4.7550  -13.2430    4.2680 N.pl3 255  ARG255      0.1354
    121  NH2       -3.8690  -11.1460    3.9890 N.pl3 255  ARG255      0.1354
    122  N         -5.4640  -16.7440   12.8200 N.3   258  LEU258     -0.1231
    123  CA        -5.9360  -15.4850   13.3860 C.3   258  LEU258      0.1693
    124  C         -7.3960  -15.2300   13.0200 C.2   258  LEU258      0.2591
    125  O         -8.2100  -14.8890   13.8800 O.2   258  LEU258     -0.2718
    126  CB        -5.0620  -14.3190   12.9180 C.3   258  LEU258      0.0284
    127  CG        -5.3890  -12.9640   13.5500 C.3   258  LEU258      0.0019
    128  CD1       -5.5500  -13.1070   15.0530 C.3   258  LEU258      0.0001
    129  CD2       -4.3240  -11.9310   13.2140 C.3   258  LEU258      0.0001
    130  N         -7.7220  -15.4040   11.7430 N.am  259  ALA259     -0.1980
    131  CA        -9.0910  -15.2320   11.2760 C.3   259  ALA259      0.1597
    132  C        -10.0120  -16.2060   11.9960 C.2   259  ALA259      0.2287
    133  O        -11.1510  -15.8780   12.3320 O.2   259  ALA259     -0.2864
    134  CB        -9.1700  -15.4340    9.7730 C.3   259  ALA259      0.0319
    135  N        -10.4730  -14.7920   15.5530 N.3   262  ILE262     -0.1245
    136  CA       -11.2510  -13.5580   15.5300 C.3   262  ILE262      0.1561
    137  C        -12.7320  -13.8310   15.2970 C.2   262  ILE262      0.2260
    138  O        -13.5930  -13.2240   15.9350 O.2   262  ILE262     -0.2867
    139  CB       -10.7410  -12.5910   14.4450 C.3   262  ILE262      0.0252
    140  CG1       -9.3470  -12.0720   14.8050 C.3   262  ILE262      0.0019
    141  CG2      -11.7020  -11.4270   14.2720 C.3   262  ILE262      0.0019
    142  CD1       -8.7600  -11.1380   13.7600 C.3   262  ILE262      0.0001
    143  N         -9.3720  -14.0590    6.0060 N.3   285  SER285     -0.1217
    144  CA        -8.3040  -13.1530    6.4150 C.3   285  SER285      0.1889
    145  C         -8.3500  -11.8400    5.6370 C.2   285  SER285      0.2288
    146  O         -8.2120  -10.7600    6.2160 O.2   285  SER285     -0.2866
    147  CB        -6.9430  -13.8250    6.2390 C.3   285  SER285      0.2089
    148  OG        -6.8330  -14.4180    4.9580 O.3   285  SER285     -0.2183
    149  N        -11.4230   -9.7460    6.9980 N.3   288  ILE288     -0.1231
    150  CA       -11.1210   -9.1850    8.3130 C.3   288  ILE288      0.1692
    151  C        -10.1250   -8.0330    8.2380 C.2   288  ILE288      0.2591
    152  O        -10.2320   -7.0600    8.9830 O.2   288  ILE288     -0.2718
    153  CB       -10.5490  -10.2540    9.2690 C.3   288  ILE288      0.0266
    154  CG1      -11.5430  -11.4040    9.4450 C.3   288  ILE288      0.0019
    155  CG2      -10.2030   -9.6320   10.6170 C.3   288  ILE288      0.0020
    156  CD1      -11.0120  -12.5500   10.2850 C.3   288  ILE288      0.0001
    157  N         -9.1590   -8.1550    7.3310 N.am  289  ALA289     -0.1980
    158  CA        -8.0440   -7.2170    7.2560 C.3   289  ALA289      0.1597
    159  C         -8.4790   -5.8260    6.8030 C.2   289  ALA289      0.2287
    160  O         -7.7820   -4.8400    7.0550 O.2   289  ALA289     -0.2864
    161  CB        -6.9670   -7.7580    6.3270 C.3   289  ALA289      0.0319
@<TRIPOS>BOND
     1     1     2    1
     2     8    10   ar
     3     8     6   ar
     4    10    11   ar
     5     2     3    1
     6     2     5    1
     7    16    15    2
     8     3     4    2
     9     5     6    1
    10     6     7   ar
    11    11    12    1
    12    11     9   ar
    13    15    14    1
    14    13    14    1
    15     7     9   ar
    16    14    17    1
    17    17    18    1
    18    32    31    2
    19    33    31   am
    20    31    30    1
    21    18    20   ar
    22    18    19   ar
    23    29    30    1
    24    29    26    1
    25    20    22   ar
    26    25    26    1
    27    19    21   ar
    28    26    27    1
    29    27    28    2
    30    22    23   ar
    31    21    23   ar
    32    23    24    1
    33   121   119    1
    34   102   101    2
    35    96    95    2
    36   120   119    1
    37   119   118    2
    38    34    35    1
    39    47    48    1
    40    47    44    1
    41    48   104    1
    42   110   109    1
    43   110    98    1
    44   109   106    1
    45   118   117    1
    46   148   147    1
    47   101   100    1
    48    95    99   am
    49    95    94    1
    50    43    44    1
    51    43    36   am
    52   100    99    1
    53   100   103    1
    54   117   116    1
    55    41    40    1
    56    41    42    1
    57    38    35    1
    58    38    39    1
    59   145   146    2
    60   145   144    1
    61    44    45    1
    62    35    36    1
    63   105   106    1
    64    45    46    2
    65   143   144    1
    66   107   106    1
    67   107   108    2
    68    94    97    1
    69    94    93    1
    70    97    98    1
    71    40    39    1
    72   147   144    1
    73    36    37    2
    74   161   158    1
    75   103   104    1
    76   159   160    2
    77   159   158    1
    78    59    57    1
    79   116   115    1
    80   149   150    1
    81   115   112    1
    82   158   157    1
    83   157   151   am
    84    58    57    1
    85    57    56    2
    86    90    92   ar
    87    90    88   ar
    88    92    91   ar
    89   151   150    1
    90   151   152    2
    91   150   153    1
    92    86    85    2
    93   112   113    1
    94   112   111    1
    95   113   114    2
    96    56    55    1
    97   153   154    1
    98   153   155    1
    99    79    78    2
   100    88    87    1
   101    88    89   ar
   102    91    89   ar
   103   154   156    1
   104    85    84    1
   105    84    87    1
   106    84    83    1
   107    81    80    1
   108   134   131    1
   109    55    54    1
   110    78    83   am
   111    78    77    1
   112    80    77    1
   113    80    82    1
   114    77    76    1
   115   131   130    1
   116   131   132    1
   117    54    53    1
   118   130   124   am
   119   132   133    2
   120    75    73    1
   121    71    70    2
   122    53    50    1
   123   122   123    1
   124   126   123    1
   125   126   127    1
   126   124   123    1
   127   124   125    2
   128    74    73    1
   129   129   127    1
   130    73    72    1
   131   127   128    1
   132   142   140    1
   133    70    69    1
   134    50    51    1
   135    50    49    1
   136    69    72    1
   137    69    68    1
   138    52    51    2
   139   141   139    1
   140   139   140    1
   141   139   136    1
   142    51    60   am
   143    67    65    1
   144   137   136    1
   145   137   138    2
   146    60    61    1
   147   136   135    1
   148    65    66    1
   149    65    64    1
   150    61    64    1
   151    61    62    1
   152    62    63    2
