@<TRIPOS>MOLECULE
tmp/5giyA07.pdb
 93 85 0 0 0
SMALL
GASTEIGER

@<TRIPOS>ATOM
      1  N         27.7170   -5.1810   14.3120 N.3   197  LYS197     -0.1245
      2  CA        28.2670   -4.9230   12.9900 C.3   197  LYS197      0.1561
      3  C         29.2450   -6.0200   12.5730 C.2   197  LYS197      0.2260
      4  O         29.2250   -6.4780   11.4390 O.2   197  LYS197     -0.2867
      5  CB        28.8890   -3.5330   12.9440 C.3   197  LYS197      0.0271
      6  CG        27.8410   -2.4360   13.1040 C.3   197  LYS197      0.0035
      7  CD        27.3180   -1.9380   11.7670 C.3   197  LYS197      0.0206
      8  CE        27.8560   -0.5460   11.4640 C.3   197  LYS197      0.1093
      9  NZ        29.1760   -0.2780   12.1000 N.3   197  LYS197     -0.1314
     10  N         26.5840    5.6910    3.4570 N.3   217  LEU217     -0.1245
     11  CA        27.5940    6.5920    2.9090 C.3   217  LEU217      0.1561
     12  C         26.9580    7.5920    1.9480 C.2   217  LEU217      0.2260
     13  O         27.2980    8.7740    1.9580 O.2   217  LEU217     -0.2867
     14  CB        28.7070    5.8090    2.2060 C.3   217  LEU217      0.0270
     15  CG        29.8110    5.2660    3.1180 C.3   217  LEU217      0.0019
     16  CD1       30.8990    4.5740    2.3060 C.3   217  LEU217      0.0001
     17  CD2       30.4030    6.3740    3.9770 C.3   217  LEU217      0.0001
     18  N         35.9390    0.7700    3.4480 N.3   236  LEU236     -0.1245
     19  CA        35.1930    0.6470    4.6950 C.3   236  LEU236      0.1561
     20  C         35.0100   -0.8200    5.0560 C.2   236  LEU236      0.2260
     21  O         35.0590   -1.1940    6.2290 O.2   236  LEU236     -0.2867
     22  CB        33.8310    1.3360    4.5940 C.3   236  LEU236      0.0270
     23  CG        33.6210    2.5580    5.4910 C.3   236  LEU236      0.0019
     24  CD1       32.1450    2.9240    5.5690 C.3   236  LEU236      0.0001
     25  CD2       34.1910    2.3170    6.8780 C.3   236  LEU236      0.0001
     26  N         38.2410   -2.2270    6.2430 N.3   239  VAL239     -0.1231
     27  CA        38.5130   -1.7470    7.5970 C.3   239  VAL239      0.1692
     28  C         37.8120   -2.5830    8.6630 C.2   239  VAL239      0.2592
     29  O         38.4440   -3.0300    9.6200 O.2   239  VAL239     -0.2718
     30  CB        38.0860   -0.2790    7.7780 C.3   239  VAL239      0.0266
     31  CG1       37.9880    0.0580    9.2550 C.3   239  VAL239      0.0020
     32  CG2       39.0640    0.6530    7.0790 C.3   239  VAL239      0.0020
     33  N         36.5070   -2.7850    8.4990 N.am  240  HIS240     -0.1976
     34  CA        35.7150   -3.5240    9.4760 C.3   240  HIS240      0.1656
     35  C         36.0690   -5.0060    9.4920 C.2   240  HIS240      0.2291
     36  O         36.0350   -5.6460   10.5420 O.2   240  HIS240     -0.2864
     37  CB        34.2200   -3.3530    9.1980 C.3   240  HIS240      0.0771
     38  CG        33.6980   -1.9800    9.4910 C.ar  240  HIS240      0.0820
     39  ND1       33.5690   -1.0100    8.5210 N.ar  240  HIS240     -0.2267
     40  CD2       33.2680   -1.4160   10.6450 C.ar  240  HIS240      0.1154
     41  CE1       33.0820    0.0920    9.0630 C.ar  240  HIS240      0.1986
     42  NE2       32.8900   -0.1280   10.3510 N.ar  240  HIS240     -0.2212
     43  N         41.9740    2.4330    9.8480 N.3   255  ARG255     -0.1245
     44  CA        41.0950    3.5690   10.1060 C.3   255  ARG255      0.1563
     45  C         41.8090    4.8820    9.8130 C.2   255  ARG255      0.2260
     46  O         41.2310    5.7990    9.2280 O.2   255  ARG255     -0.2867
     47  CB        40.6010    3.5600   11.5530 C.3   255  ARG255      0.0307
     48  CG        39.6710    2.4100   11.8930 C.3   255  ARG255      0.0489
     49  CD        39.3690    2.3770   13.3830 C.3   255  ARG255      0.2205
     50  NE        37.9660    2.6610   13.6730 N.pl3 255  ARG255     -0.0865
     51  CZ        37.5160    3.8130   14.1570 C.cat 255  ARG255      0.5346
     52  NH1       38.3580    4.8040   14.4130 N.pl3 255  ARG255      0.1354
     53  NH2       36.2210    3.9730   14.3910 N.pl3 255  ARG255      0.1354
     54  N         42.0400    5.4960    6.0680 N.3   258  LEU258     -0.1231
     55  CA        40.7540    5.9030    5.5080 C.3   258  LEU258      0.1693
     56  C         40.4570    7.3620    5.8390 C.2   258  LEU258      0.2591
     57  O         40.0720    8.1380    4.9650 O.2   258  LEU258     -0.2718
     58  CB        39.6280    4.9980    6.0180 C.3   258  LEU258      0.0284
     59  CG        38.2330    5.2640    5.4420 C.3   258  LEU258      0.0019
     60  CD1       38.2840    5.3950    3.9250 C.3   258  LEU258      0.0001
     61  CD2       37.2590    4.1650    5.8540 C.3   258  LEU258      0.0001
     62  N         40.6470    7.7290    7.1030 N.am  259  ALA259     -0.1980
     63  CA        40.4830    9.1130    7.5300 C.3   259  ALA259      0.1597
     64  C         41.4750   10.0090    6.8020 C.2   259  ALA259      0.2287
     65  O         41.1770   11.1620    6.4890 O.2   259  ALA259     -0.2864
     66  CB        40.6610    9.2320    9.0330 C.3   259  ALA259      0.0319
     67  N         40.0620   10.4750    3.1830 N.3   262  ILE262     -0.1245
     68  CA        38.8290   11.2540    3.1580 C.3   262  ILE262      0.1561
     69  C         39.0870   12.7500    3.3320 C.2   262  ILE262      0.2260
     70  O         38.4920   13.5750    2.6380 O.2   262  ILE262     -0.2867
     71  CB        37.8500   10.7840    4.2480 C.3   262  ILE262      0.0252
     72  CG1       37.4220    9.3390    3.9890 C.3   262  ILE262      0.0019
     73  CG2       36.6340   11.6910    4.2980 C.3   262  ILE262      0.0019
     74  CD1       36.4140    8.8070    4.9900 C.3   262  ILE262      0.0001
     75  N         39.3790    9.4640   12.7060 N.3   285  SER285     -0.1217
     76  CA        38.4600    8.4020   12.3130 C.3   285  SER285      0.1889
     77  C         37.1570    8.4430   13.1100 C.2   285  SER285      0.2288
     78  O         36.0810    8.1840   12.5690 O.2   285  SER285     -0.2866
     79  CB        39.1330    7.0440   12.4820 C.3   285  SER285      0.2089
     80  OG        39.8100    6.9750   13.7380 O.3   285  SER285     -0.2183
     81  N         34.9640   11.5890   11.8190 N.3   288  ILE288     -0.1231
     82  CA        34.3860   11.3300   10.5060 C.3   288  ILE288      0.1692
     83  C         33.2300   10.3370   10.5890 C.2   288  ILE288      0.2591
     84  O         32.1890   10.5230    9.9550 O.2   288  ILE288     -0.2718
     85  CB        35.4430   10.7810    9.5310 C.3   288  ILE288      0.0266
     86  CG1       36.5920   11.7790    9.3670 C.3   288  ILE288      0.0019
     87  CG2       34.8130   10.4560    8.1860 C.3   288  ILE288      0.0020
     88  CD1       37.7110   11.2840    8.4730 C.3   288  ILE288      0.0001
     89  N         33.4320    9.2860   11.3810 N.am  289  ALA289     -0.1980
     90  CA        32.4770    8.1880   11.5090 C.3   289  ALA289      0.1597
     91  C         31.0770    8.6660   11.8760 C.2   289  ALA289      0.2287
     92  O         30.0820    8.0860   11.4390 O.2   289  ALA289     -0.2864
     93  CB        32.9730    7.1870   12.5420 C.3   289  ALA289      0.0319
@<TRIPOS>BOND
     1    12    13    2
     2    12    11    1
     3    14    11    1
     4    14    15    1
     5    16    15    1
     6    70    69    2
     7    11    10    1
     8    15    17    1
     9    68    67    1
    10    68    69    1
    11    68    71    1
    12    18    19    1
    13    60    59    1
    14    72    71    1
    15    72    74    1
    16    71    73    1
    17    22    19    1
    18    22    23    1
    19    19    20    1
    20    57    56    2
    21    20    21    2
    22    59    61    1
    23    59    58    1
    24    23    24    1
    25    23    25    1
    26    55    56    1
    27    55    58    1
    28    55    54    1
    29    56    62   am
    30    26    27    1
    31    65    64    2
    32    64    63    1
    33    32    30    1
    34    62    63    1
    35    63    66    1
    36    27    30    1
    37    27    28    1
    38    30    31    1
    39    87    85    1
    40    88    86    1
    41    33    28   am
    42    33    34    1
    43    39    41   ar
    44    39    38   ar
    45    28    29    2
    46    41    42   ar
    47    37    34    1
    48    37    38    1
    49    46    45    2
    50    86    85    1
    51    34    35    1
    52    38    40   ar
    53    35    36    2
    54    85    82    1
    55    45    44    1
    56    43    44    1
    57    84    83    2
    58    44    47    1
    59    42    40   ar
    60    82    83    1
    61    82    81    1
    62    83    89   am
    63    89    90    1
    64     4     3    2
    65    92    91    2
    66     8     7    1
    67     8     9    1
    68    90    91    1
    69    90    93    1
    70    47    48    1
    71     7     6    1
    72    48    49    1
    73    76    79    1
    74    76    75    1
    75    76    77    1
    76    79    80    1
    77    78    77    2
    78     3     2    1
    79     5     2    1
    80     5     6    1
    81     2     1    1
    82    49    50    1
    83    50    51    2
    84    51    53    1
    85    51    52    1
