@<TRIPOS>MOLECULE
tmp/5giyA06.pdb
 98 93 0 0 0
SMALL
GASTEIGER

@<TRIPOS>ATOM
      1  N         37.5020   -1.2280   33.2620 N.3   140  ILE140     -0.1245
      2  CA        36.6000   -1.3060   32.1160 C.3   140  ILE140      0.1561
      3  C         37.2270   -2.0930   30.9720 C.2   140  ILE140      0.2260
      4  O         36.5570   -2.8860   30.3120 O.2   140  ILE140     -0.2867
      5  CB        36.2080    0.0890   31.5980 C.3   140  ILE140      0.0252
      6  CG1       35.7190    0.9640   32.7550 C.3   140  ILE140      0.0019
      7  CG2       35.1480   -0.0270   30.5100 C.3   140  ILE140      0.0019
      8  CD1       34.6520    0.3100   33.6020 C.3   140  ILE140      0.0001
      9  N         35.9460   -5.4270   28.9780 N.3   144  HIS144     -0.1241
     10  CA        35.4150   -5.3300   27.6390 C.3   144  HIS144      0.1621
     11  C         36.7020   -5.3330   26.7470 C.2   144  HIS144      0.2264
     12  O         37.1040   -4.3320   26.2190 O.2   144  HIS144     -0.2867
     13  CB        34.5100   -4.0550   27.5220 C.3   144  HIS144      0.0745
     14  CG        33.2810   -3.9990   28.4290 C.ar  144  HIS144      0.0817
     15  ND1       33.3340   -3.6350   29.7530 N.ar  144  HIS144     -0.2268
     16  CD2       31.9570   -4.1340   28.1530 C.ar  144  HIS144      0.1154
     17  CE1       32.1110   -3.6070   30.2680 C.ar  144  HIS144      0.1986
     18  NE2       31.2500   -3.9030   29.3170 N.ar  144  HIS144     -0.2212
     19  N         36.7050   -4.1490   23.0210 N.3   147  PHE147     -0.1241
     20  CA        36.3090   -2.7690   22.7520 C.3   147  PHE147      0.1605
     21  C         37.4880   -1.9760   22.1900 C.2   147  PHE147      0.2264
     22  O         38.5730   -1.9650   22.7730 O.2   147  PHE147     -0.2867
     23  CB        35.7750   -2.0900   24.0170 C.3   147  PHE147      0.0534
     24  CG        34.8860   -0.9060   23.7400 C.ar  147  PHE147     -0.0203
     25  CD1       34.4240   -0.6580   22.4580 C.ar  147  PHE147     -0.0042
     26  CD2       34.5180   -0.0410   24.7570 C.ar  147  PHE147     -0.0042
     27  CE1       33.6050    0.4280   22.1960 C.ar  147  PHE147     -0.0003
     28  CE2       33.7020    1.0470   24.5020 C.ar  147  PHE147     -0.0003
     29  CZ        33.2450    1.2830   23.2200 C.ar  147  PHE147     -0.0000
     30  N         37.5260    3.5210   23.7520 N.3   152  LEU152     -0.1245
     31  CA        37.5000    3.3740   25.1990 C.3   152  LEU152      0.1561
     32  C         38.2120    4.5520   25.8620 C.2   152  LEU152      0.2260
     33  O         37.8770    4.9430   26.9810 O.2   152  LEU152     -0.2867
     34  CB        38.1390    2.0480   25.6120 C.3   152  LEU152      0.0270
     35  CG        38.0430    1.6810   27.0930 C.3   152  LEU152      0.0019
     36  CD1       36.5910    1.7060   27.5530 C.3   152  LEU152      0.0001
     37  CD2       38.6670    0.3190   27.3500 C.3   152  LEU152      0.0001
     38  N         35.7250    7.6450   25.8370 N.3   155  PHE155     -0.1241
     39  CA        34.7650    7.6820   26.9380 C.3   155  PHE155      0.1605
     40  C         35.4280    8.1290   28.2330 C.2   155  PHE155      0.2264
     41  O         34.8420    8.8760   29.0190 O.2   155  PHE155     -0.2867
     42  CB        34.1140    6.3100   27.1320 C.3   155  PHE155      0.0534
     43  CG        32.9750    6.0390   26.1890 C.ar  155  PHE155     -0.0203
     44  CD1       31.6770    6.3680   26.5420 C.ar  155  PHE155     -0.0042
     45  CD2       33.2010    5.4550   24.9510 C.ar  155  PHE155     -0.0042
     46  CE1       30.6260    6.1220   25.6800 C.ar  155  PHE155     -0.0003
     47  CE2       32.1520    5.2070   24.0840 C.ar  155  PHE155     -0.0003
     48  CZ        30.8640    5.5420   24.4500 C.ar  155  PHE155     -0.0000
     49  N         34.4440   10.9130   30.9420 N.3   159  TYR159     -0.1241
     50  CA        34.2420   10.6370   32.3610 C.3   159  TYR159      0.1605
     51  C         35.0200   11.6310   33.2170 C.2   159  TYR159      0.2264
     52  O         34.5220   12.1080   34.2360 O.2   159  TYR159     -0.2867
     53  CB        34.6520    9.2040   32.7120 C.3   159  TYR159      0.0534
     54  CG        33.5250    8.1940   32.6100 C.ar  159  TYR159     -0.0201
     55  CD1       32.6220    8.0170   33.6540 C.ar  159  TYR159     -0.0009
     56  CD2       33.3690    7.4130   31.4730 C.ar  159  TYR159     -0.0009
     57  CE1       31.5960    7.0950   33.5630 C.ar  159  TYR159      0.0417
     58  CE2       32.3450    6.4890   31.3740 C.ar  159  TYR159      0.0417
     59  CZ        31.4630    6.3330   32.4200 C.ar  159  TYR159      0.1957
     60  OH        30.4440    5.4120   32.3190 O.3   159  TYR159     -0.2866
     61  N         26.7680    8.1090   30.1290 N.3   183  LEU183     -0.1231
     62  CA        27.9760    7.4320   29.6720 C.3   183  LEU183      0.1693
     63  C         27.7980    5.9160   29.6500 C.2   183  LEU183      0.2591
     64  O         28.1140    5.2650   28.6540 O.2   183  LEU183     -0.2718
     65  CB        29.1660    7.8120   30.5570 C.3   183  LEU183      0.0284
     66  CG        29.9010    9.1000   30.1800 C.3   183  LEU183      0.0019
     67  CD1       28.9220   10.1830   29.7560 C.3   183  LEU183      0.0001
     68  CD2       30.7590    9.5800   31.3400 C.3   183  LEU183      0.0001
     69  N         27.2930    5.3630   30.7500 N.am  184  ARG184     -0.1980
     70  CA        27.0420    3.9270   30.8520 C.3   184  ARG184      0.1597
     71  C         26.1960    3.4230   29.6840 C.2   184  ARG184      0.2287
     72  O         26.4980    2.3900   29.0870 O.2   184  ARG184     -0.2864
     73  CB        26.3500    3.5980   32.1760 C.3   184  ARG184      0.0334
     74  CG        25.8210    2.1860   32.2830 C.3   184  ARG184      0.0492
     75  CD        25.0650    1.9860   33.5850 C.3   184  ARG184      0.2205
     76  NE        23.8100    2.7360   33.6320 N.pl3 184  ARG184     -0.0865
     77  CZ        23.0140    2.7960   34.6980 C.cat 184  ARG184      0.5346
     78  NH1       23.3420    2.1570   35.8150 N.pl3 184  ARG184      0.1354
     79  NH2       21.8680    3.4620   34.6370 N.pl3 184  ARG184      0.1354
     80  N         28.1610    3.8520   26.4660 N.3   187  GLY187     -0.1210
     81  CA        29.2620    2.9080   26.5010 C.3   187  GLY187      0.1956
     82  C         28.8420    1.5150   26.0730 C.2   187  GLY187      0.2611
     83  O         29.5450    0.8500   25.3130 O.2   187  GLY187     -0.2717
     84  N         27.6880    1.0750   26.5660 N.am  188  LYS188     -0.1979
     85  CA        27.1410   -0.2300   26.2090 C.3   188  LYS188      0.1596
     86  C         26.4190   -0.1890   24.8670 C.2   188  LYS188      0.2287
     87  O         26.2730   -1.2130   24.1990 O.2   188  LYS188     -0.2864
     88  CB        26.1920   -0.7290   27.2980 C.3   188  LYS188      0.0298
     89  CG        26.8960   -1.1170   28.5840 C.3   188  LYS188      0.0038
     90  CD        25.9490   -1.7940   29.5530 C.3   188  LYS188      0.0206
     91  CE        24.9810   -0.8030   30.1710 C.3   188  LYS188      0.1093
     92  NZ        24.1380   -1.4470   31.2150 N.3   188  LYS188     -0.1314
     93  N         29.2330   -0.4430   22.5030 N.3   191  SER191     -0.1217
     94  CA        29.7550   -1.8000   22.5950 C.3   191  SER191      0.1889
     95  C         28.8290   -2.7930   21.9020 C.2   191  SER191      0.2288
     96  O         29.2800   -3.8000   21.3590 O.2   191  SER191     -0.2866
     97  CB        29.9540   -2.2040   24.0570 C.3   191  SER191      0.2089
     98  OG        30.4000   -3.5450   24.1550 O.3   191  SER191     -0.2183
@<TRIPOS>BOND
     1    96    95    2
     2    95    94    1
     3    21    20    1
     4    21    22    2
     5    27    25   ar
     6    27    29   ar
     7    25    24   ar
     8    93    94    1
     9    94    97    1
    10    20    19    1
    11    20    23    1
    12    29    28   ar
    13    24    23    1
    14    24    26   ar
    15    30    31    1
    16    97    98    1
    17    47    48   ar
    18    47    45   ar
    19    87    86    2
    20    48    46   ar
    21    28    26   ar
    22    86    85    1
    23    45    43   ar
    24    31    34    1
    25    31    32    1
    26    83    82    2
    27    34    35    1
    28    46    44   ar
    29    38    39    1
    30    32    33    2
    31    82    81    1
    32    82    84   am
    33    43    44   ar
    34    43    42    1
    35    85    84    1
    36    85    88    1
    37    12    11    2
    38    80    81    1
    39    11    10    1
    40    39    42    1
    41    39    40    1
    42    35    37    1
    43    35    36    1
    44    88    89    1
    45    13    10    1
    46    13    14    1
    47    10     9    1
    48    16    14   ar
    49    16    18   ar
    50    40    41    2
    51    14    15   ar
    52    89    90    1
    53    64    63    2
    54    72    71    2
    55    18    17   ar
    56    90    91    1
    57    63    62    1
    58    63    69   am
    59    62    61    1
    60    62    65    1
    61    71    70    1
    62    15    17   ar
    63    67    66    1
    64    91    92    1
    65    66    65    1
    66    66    68    1
    67     4     3    2
    68     7     5    1
    69    69    70    1
    70    70    73    1
    71    49    50    1
    72     3     2    1
    73    58    56   ar
    74    58    59   ar
    75    56    54   ar
    76     5     2    1
    77     5     6    1
    78     2     1    1
    79    73    74    1
    80    74    75    1
    81    60    59    1
    82    50    53    1
    83    50    51    1
    84    59    57   ar
    85    54    53    1
    86    54    55   ar
    87     6     8    1
    88    51    52    2
    89    57    55   ar
    90    75    76    1
    91    76    77    2
    92    79    77    1
    93    77    78    1
