@<TRIPOS>MOLECULE
tmp/5gj3A00.pdb
 130 124 0 0 0
SMALL
GASTEIGER

@<TRIPOS>ATOM
      1  N          5.5900    8.5880   12.0540 N.3    14  ASP14      -0.1239
      2  CA         6.8520    7.9990   12.4960 C.3    14  ASP14       0.1674
      3  C          6.8070    7.2600   13.8750 C.2    14  ASP14       0.2266
      4  O          7.4470    6.1910   14.0820 O.2    14  ASP14      -0.2867
      5  CB         7.9820    9.0550   12.4640 C.3    14  ASP14       0.1410
      6  CG         7.6930   10.3100   13.3140 C.2    14  ASP14       0.3668
      7  OD1        6.5100   10.6190   13.6300 O.co2  14  ASP14      -0.2456
      8  OD2        8.6760   11.0260   13.6590 O.co2  14  ASP14      -0.2456
      9  N         -3.3800   10.4480    9.3980 N.3    33  SER33      -0.1202
     10  CA        -3.1960   10.4160    7.9000 C.3    33  SER33       0.2020
     11  C         -1.8020   10.1330    7.4020 C.2    33  SER33       0.2619
     12  O         -1.6340    9.5660    6.3270 O.2    33  SER33      -0.2717
     13  CB        -3.5440   11.7890    7.3000 C.3    33  SER33       0.2103
     14  OG        -4.8970   12.0330    7.4670 O.3    33  SER33      -0.2182
     15  N         -0.7810   10.5780    8.1300 N.am   34  SER34      -0.1951
     16  CA         0.5990   10.3690    7.6590 C.3    34  SER34       0.1924
     17  C          1.1290    8.9710    8.0160 C.2    34  SER34       0.2314
     18  O          2.2880    8.6530    7.7410 O.2    34  SER34      -0.2863
     19  CB         1.5470   11.4490    8.2250 C.3    34  SER34       0.2116
     20  OG         1.7820   11.1880    9.6120 O.3    34  SER34      -0.2180
     21  N          1.6470    5.7610    7.1210 N.3    36  THR36      -0.1218
     22  CA         1.5690    4.9020    5.9040 C.3    36  THR36       0.1862
     23  C          2.5020    3.6600    6.0170 C.2    36  THR36       0.2287
     24  O          2.6920    2.9730    5.0210 O.2    36  THR36      -0.2866
     25  CB         2.0160    5.7070    4.6710 C.3    36  THR36       0.1770
     26  OG1        3.2420    6.3450    5.0140 O.3    36  THR36      -0.2211
     27  CG2        1.0260    6.7740    4.2560 C.3    36  THR36       0.0375
     28  N         -5.1820   14.4860   10.2260 N.3    50  TYR50      -0.1227
     29  CA        -3.7370   14.6790    9.9510 C.3    50  TYR50       0.1736
     30  C         -2.9710   15.0540   11.2810 C.2    50  TYR50       0.2595
     31  O         -3.5220   15.7350   12.1240 O.2    50  TYR50      -0.2718
     32  CB        -3.5210   15.7280    8.8320 C.3    50  TYR50       0.0548
     33  CG        -2.0470   16.0150    8.5570 C.ar   50  TYR50      -0.0200
     34  CD1       -1.1790   15.0020    8.1640 C.ar   50  TYR50      -0.0009
     35  CD2       -1.5260   17.2900    8.7740 C.ar   50  TYR50      -0.0009
     36  CE1        0.1910   15.2410    7.9900 C.ar   50  TYR50       0.0417
     37  CE2       -0.1530   17.5660    8.5760 C.ar   50  TYR50       0.0417
     38  CZ         0.6930   16.5350    8.1920 C.ar   50  TYR50       0.1957
     39  OH         2.0460   16.8020    8.0240 O.3    50  TYR50      -0.2866
     40  N         -1.7350   14.5940   11.4330 N.am   51  GLN51      -0.1965
     41  CA        -0.9140   14.8520   12.6620 C.3    51  GLN51       0.1733
     42  C         -0.9200   16.2770   13.2160 C.2    51  GLN51       0.2616
     43  O         -0.8710   16.4470   14.4270 O.2    51  GLN51      -0.2715
     44  CB         0.5400   14.3520   12.4920 C.3    51  GLN51       0.0408
     45  CG         1.3860   15.1520   11.4660 C.3    51  GLN51       0.0908
     46  CD         2.6760   14.4300   11.1130 C.2    51  GLN51       0.2608
     47  OE1        3.2350   13.6570   11.9310 O.2    51  GLN51      -0.2717
     48  NE2        3.1570   14.6610    9.8920 N.am   51  GLN51      -0.0878
     49  N         -1.0120   17.2940   12.3450 N.am   52  ARG52      -0.1963
     50  CA        -1.0350   18.7140   12.7680 C.3    52  ARG52       0.1729
     51  C         -2.4400   19.2690   12.8240 C.2    52  ARG52       0.2616
     52  O         -2.6390   20.4240   13.1570 O.2    52  ARG52      -0.2715
     53  CB        -0.2520   19.5770   11.7570 C.3    52  ARG52       0.0348
     54  CG         1.2250   19.1920   11.6500 C.3    52  ARG52       0.0492
     55  CD         2.0070   20.2720   10.8920 C.3    52  ARG52       0.2205
     56  NE         3.4410   20.2630   11.2160 N.pl3  52  ARG52      -0.0865
     57  CZ         4.2920   19.2650   10.9390 C.cat  52  ARG52       0.5346
     58  NH1        3.8860   18.1360   10.3480 N.pl3  52  ARG52       0.1354
     59  NH2        5.5700   19.3810   11.2630 N.pl3  52  ARG52       0.1354
     60  N         -3.4280   18.4410   12.4990 N.am   53  ARG53      -0.1977
     61  CA        -4.8130   18.9100   12.4770 C.3    53  ARG53       0.1597
     62  C         -5.7000   17.7900   13.0770 C.2    53  ARG53       0.2287
     63  O         -6.7080   17.3440   12.4830 O.2    53  ARG53      -0.2864
     64  CB        -5.2000   19.3230   10.9950 C.3    53  ARG53       0.0334
     65  CG        -6.2000   20.5020   10.9040 C.3    53  ARG53       0.0492
     66  CD        -6.4810   21.0240    9.4660 C.3    53  ARG53       0.2205
     67  NE        -7.1730   20.0020    8.6960 N.pl3  53  ARG53      -0.0865
     68  CZ        -6.5660   19.1470    7.8800 C.cat  53  ARG53       0.5346
     69  NH1       -5.2370   19.1970    7.7460 N.pl3  53  ARG53       0.1354
     70  NH2       -7.2740   18.2130    7.2190 N.pl3  53  ARG53       0.1354
     71  N         10.2000   19.9650   -2.8470 N.3   149  TYR149     -0.1241
     72  CA         8.8720   19.6320   -2.4120 C.3   149  TYR149      0.1605
     73  C          7.9090   20.1040   -3.5370 C.2   149  TYR149      0.2264
     74  O          7.9300   21.2760   -3.9130 O.2   149  TYR149     -0.2867
     75  CB         8.5930   20.3530   -1.1030 C.3   149  TYR149      0.0534
     76  CG         7.1580   20.1700   -0.6720 C.ar  149  TYR149     -0.0201
     77  CD1        6.7530   18.9980   -0.0160 C.ar  149  TYR149     -0.0009
     78  CD2        6.1750   21.1610   -0.9580 C.ar  149  TYR149     -0.0009
     79  CE1        5.4080   18.8030    0.3680 C.ar  149  TYR149      0.0417
     80  CE2        4.8300   20.9740   -0.5880 C.ar  149  TYR149      0.0417
     81  CZ         4.4450   19.8080    0.0980 C.ar  149  TYR149      0.1957
     82  OH         3.1160   19.6030    0.4970 O.3   149  TYR149     -0.2866
     83  N         12.0240   25.8680    4.2280 N.3   186  PHE186     -0.1241
     84  CA        11.3880   25.7950    2.9040 C.3   186  PHE186      0.1605
     85  C         11.2460   27.1410    2.2060 C.2   186  PHE186      0.2264
     86  O         10.7250   28.0950    2.7910 O.2   186  PHE186     -0.2867
     87  CB        10.0160   25.1200    2.9760 C.3   186  PHE186      0.0534
     88  CG        10.0920   23.6450    3.1840 C.ar  186  PHE186     -0.0203
     89  CD1       10.4780   23.1250    4.4180 C.ar  186  PHE186     -0.0042
     90  CD2        9.8090   22.7690    2.1470 C.ar  186  PHE186     -0.0042
     91  CE1       10.5740   21.7530    4.6120 C.ar  186  PHE186     -0.0003
     92  CE2        9.8980   21.3970    2.3320 C.ar  186  PHE186     -0.0003
     93  CZ        10.2850   20.8890    3.5610 C.ar  186  PHE186     -0.0000
     94  N          5.1630   10.8910   -4.2560 N.3   207  LYS207     -0.1245
     95  CA         3.8770   11.5640   -4.5830 C.3   207  LYS207      0.1561
     96  C          4.0950   12.8520   -5.3480 C.2   207  LYS207      0.2260
     97  O          3.3580   13.1550   -6.2950 O.2   207  LYS207     -0.2867
     98  CB         3.0270   11.8730   -3.3440 C.3   207  LYS207      0.0271
     99  CG         2.5420   10.6500   -2.5830 C.3   207  LYS207      0.0035
    100  CD         1.0420   10.7420   -2.2800 C.3   207  LYS207      0.0206
    101  CE         0.6190    9.8640   -1.1070 C.3   207  LYS207      0.1093
    102  NZ         1.3200    8.5460   -1.0800 N.3   207  LYS207     -0.1314
    103  N          7.8520    9.6670    1.2260 N.3   240  ASP240     -0.1225
    104  CA         8.0400   10.6670    2.2810 C.3   240  ASP240      0.1805
    105  C          8.3630   10.1680    3.7020 C.2   240  ASP240      0.2597
    106  O          9.2940   10.6690    4.3330 O.2   240  ASP240     -0.2718
    107  CB         6.8770   11.6700    2.3780 C.3   240  ASP240      0.1424
    108  CG         5.4940   11.0050    2.2870 C.2   240  ASP240      0.3668
    109  OD1        5.3460    9.8260    2.6770 O.co2 240  ASP240     -0.2456
    110  OD2        4.5440   11.6670    1.8080 O.co2 240  ASP240     -0.2456
    111  N          7.5940    9.2040    4.2200 N.am  241  LEU241     -0.1979
    112  CA         7.8740    8.7330    5.5820 C.3   241  LEU241      0.1596
    113  C          9.2870    8.0530    5.6380 C.2   241  LEU241      0.2287
    114  O         10.0280    8.1890    6.6030 O.2   241  LEU241     -0.2864
    115  CB         6.7540    7.7740    6.0660 C.3   241  LEU241      0.0297
    116  CG         6.7420    7.3150    7.5350 C.3   241  LEU241      0.0022
    117  CD1        6.8370    8.4660    8.5460 C.3   241  LEU241      0.0001
    118  CD2        5.5010    6.4660    7.8150 C.3   241  LEU241      0.0001
    119  N         12.0290   10.9980    5.2410 N.3   244  LEU244     -0.1231
    120  CA        11.9580   12.1280    6.1650 C.3   244  LEU244      0.1693
    121  C         11.4760   11.8170    7.5980 C.2   244  LEU244      0.2592
    122  O         11.6090   12.6800    8.4890 O.2   244  LEU244     -0.2718
    123  CB        11.0600   13.2150    5.5580 C.3   244  LEU244      0.0284
    124  CG        11.5340   13.7910    4.2250 C.3   244  LEU244      0.0019
    125  CD1       10.4490   14.7530    3.7620 C.3   244  LEU244      0.0001
    126  CD2       12.8550   14.5460    4.4000 C.3   244  LEU244      0.0001
    127  N         10.9610   10.6040    7.8170 N.am  245  GLY245     -0.1957
    128  CA        10.5130   10.1510    9.1630 C.3   245  GLY245      0.1869
    129  C         11.5110   10.0830   10.3260 C.2   245  GLY245      0.2309
    130  O         11.0960   10.1820   11.5010 O.2   245  GLY245     -0.2863
@<TRIPOS>BOND
     1    97    96    2
     2    96    95    1
     3    95    94    1
     4    95    98    1
     5    74    73    2
     6    73    72    1
     7    98    99    1
     8    71    72    1
     9    99   100    1
    10    72    75    1
    11   100   101    1
    12   101   102    1
    13    75    76    1
    14    78    76   ar
    15    78    80   ar
    16    76    77   ar
    17    80    81   ar
    18    77    79   ar
    19    81    79   ar
    20    81    82    1
    21   103   104    1
    22   110   108   ar
    23    90    92   ar
    24    90    88   ar
    25    85    86    2
    26    85    84    1
    27   104   107    1
    28   104   105    1
    29   108   107    1
    30   108   109   ar
    31    92    93   ar
    32    84    87    1
    33    84    83    1
    34    87    88    1
    35    88    89   ar
    36    93    91   ar
    37   105   111   am
    38   105   106    2
    39   125   124    1
    40   111   112    1
    41   124   126    1
    42   124   123    1
    43    27    25    1
    44    89    91   ar
    45    25    26    1
    46    25    22    1
    47    24    23    2
    48   119   120    1
    49   123   120    1
    50   112   113    1
    51   112   115    1
    52   113   114    2
    53    22    23    1
    54    22    21    1
    55   115   116    1
    56   120   121    1
    57    12    11    2
    58    70    68    1
    59    13    14    1
    60    13    10    1
    61    11    10    1
    62    11    15   am
    63   116   118    1
    64   116   117    1
    65   121   127   am
    66   121   122    2
    67    16    17    1
    68    16    15    1
    69    16    19    1
    70    18    17    2
    71    69    68    1
    72   127   128    1
    73    68    67    2
    74    10     9    1
    75    36    34   ar
    76    36    38   ar
    77    39    38    1
    78    34    33   ar
    79    38    37   ar
    80    19    20    1
    81    33    35   ar
    82    33    32    1
    83    37    35   ar
    84    67    66    1
    85    32    29    1
    86   128   129    1
    87    66    65    1
    88    48    46   am
    89    29    28    1
    90    29    30    1
    91   129   130    2
    92    58    57    1
    93    55    56    1
    94    55    54    1
    95    65    64    1
    96    57    56    2
    97    57    59    1
    98    64    61    1
    99    46    45    1
   100    46    47    2
   101    30    40   am
   102    30    31    2
   103    40    41    1
   104    45    44    1
   105    54    53    1
   106    53    50    1
   107     1     2    1
   108    49    50    1
   109    49    42   am
   110     5     2    1
   111     5     6    1
   112    61    60    1
   113    61    62    1
   114    63    62    2
   115    44    41    1
   116     2     3    1
   117    60    51   am
   118    41    42    1
   119    50    51    1
   120    51    52    2
   121    42    43    2
   122     6     7   ar
   123     6     8   ar
   124     3     4    2
