@<TRIPOS>MOLECULE
tmp/5gj3A01.pdb
 107 100 0 0 0
SMALL
GASTEIGER

@<TRIPOS>ATOM
      1  N         -5.1820   14.4860   10.2260 N.3    50  TYR50      -0.1241
      2  CA        -3.7370   14.6790    9.9510 C.3    50  TYR50       0.1605
      3  C         -2.9710   15.0540   11.2810 C.2    50  TYR50       0.2264
      4  O         -3.5220   15.7350   12.1240 O.2    50  TYR50      -0.2867
      5  CB        -3.5210   15.7280    8.8320 C.3    50  TYR50       0.0534
      6  CG        -2.0470   16.0150    8.5570 C.ar   50  TYR50      -0.0201
      7  CD1       -1.1790   15.0020    8.1640 C.ar   50  TYR50      -0.0009
      8  CD2       -1.5260   17.2900    8.7740 C.ar   50  TYR50      -0.0009
      9  CE1        0.1910   15.2410    7.9900 C.ar   50  TYR50       0.0417
     10  CE2       -0.1530   17.5660    8.5760 C.ar   50  TYR50       0.0417
     11  CZ         0.6930   16.5350    8.1920 C.ar   50  TYR50       0.1957
     12  OH         2.0460   16.8020    8.0240 O.3    50  TYR50      -0.2866
     13  N         -3.4280   18.4410   12.4990 N.3    53  ARG53      -0.1245
     14  CA        -4.8130   18.9100   12.4770 C.3    53  ARG53       0.1563
     15  C         -5.7000   17.7900   13.0770 C.2    53  ARG53       0.2260
     16  O         -6.7080   17.3440   12.4830 O.2    53  ARG53      -0.2867
     17  CB        -5.2000   19.3230   10.9950 C.3    53  ARG53       0.0307
     18  CG        -6.2000   20.5020   10.9040 C.3    53  ARG53       0.0489
     19  CD        -6.4810   21.0240    9.4660 C.3    53  ARG53       0.2205
     20  NE        -7.1730   20.0020    8.6960 N.pl3  53  ARG53      -0.0865
     21  CZ        -6.5660   19.1470    7.8800 C.cat  53  ARG53       0.5346
     22  NH1       -5.2370   19.1970    7.7460 N.pl3  53  ARG53       0.1354
     23  NH2       -7.2740   18.2130    7.2190 N.pl3  53  ARG53       0.1354
     24  N         16.7210   19.1660   -3.0100 N.3   147  PHE147     -0.1241
     25  CA        15.4390   18.5650   -2.6720 C.3   147  PHE147      0.1605
     26  C         14.2690   19.4940   -3.0470 C.2   147  PHE147      0.2264
     27  O         14.2520   20.6690   -2.6250 O.2   147  PHE147     -0.2867
     28  CB        15.3510   18.2630   -1.1670 C.3   147  PHE147      0.0534
     29  CG        14.0190   17.6860   -0.7600 C.ar  147  PHE147     -0.0203
     30  CD1       13.7710   16.3410   -0.9170 C.ar  147  PHE147     -0.0042
     31  CD2       12.9900   18.5130   -0.2810 C.ar  147  PHE147     -0.0042
     32  CE1       12.5210   15.8090   -0.5810 C.ar  147  PHE147     -0.0003
     33  CE2       11.7500   18.0000    0.0620 C.ar  147  PHE147     -0.0003
     34  CZ        11.5240   16.6380   -0.0740 C.ar  147  PHE147     -0.0000
     35  N         10.2000   19.9650   -2.8470 N.3   149  TYR149     -0.1241
     36  CA         8.8720   19.6320   -2.4120 C.3   149  TYR149      0.1605
     37  C          7.9090   20.1040   -3.5370 C.2   149  TYR149      0.2264
     38  O          7.9300   21.2760   -3.9130 O.2   149  TYR149     -0.2867
     39  CB         8.5930   20.3530   -1.1030 C.3   149  TYR149      0.0534
     40  CG         7.1580   20.1700   -0.6720 C.ar  149  TYR149     -0.0201
     41  CD1        6.7530   18.9980   -0.0160 C.ar  149  TYR149     -0.0009
     42  CD2        6.1750   21.1610   -0.9580 C.ar  149  TYR149     -0.0009
     43  CE1        5.4080   18.8030    0.3680 C.ar  149  TYR149      0.0417
     44  CE2        4.8300   20.9740   -0.5880 C.ar  149  TYR149      0.0417
     45  CZ         4.4450   19.8080    0.0980 C.ar  149  TYR149      0.1957
     46  OH         3.1160   19.6030    0.4970 O.3   149  TYR149     -0.2866
     47  N          3.8600   19.8900   -5.3940 N.3   151  ARG151     -0.1245
     48  CA         2.4590   19.5640   -5.2260 C.3   151  ARG151      0.1563
     49  C          1.7680   20.1160   -6.4470 C.2   151  ARG151      0.2260
     50  O          1.2570   21.2240   -6.4140 O.2   151  ARG151     -0.2867
     51  CB         1.8910   20.1430   -3.9330 C.3   151  ARG151      0.0307
     52  CG         0.7040   19.3180   -3.4400 C.3   151  ARG151      0.0489
     53  CD         0.3080   19.6740   -2.0130 C.3   151  ARG151      0.2205
     54  NE        -0.3610   20.9580   -1.9420 N.pl3 151  ARG151     -0.0865
     55  CZ         0.1490   22.0640   -1.4050 C.cat 151  ARG151      0.5346
     56  NH1       -0.5780   23.1820   -1.4020 N.pl3 151  ARG151      0.1354
     57  NH2        1.3650   22.0680   -0.8530 N.pl3 151  ARG151      0.1354
     58  N         12.0240   25.8680    4.2280 N.3   186  PHE186     -0.1241
     59  CA        11.3880   25.7950    2.9040 C.3   186  PHE186      0.1605
     60  C         11.2460   27.1410    2.2060 C.2   186  PHE186      0.2264
     61  O         10.7250   28.0950    2.7910 O.2   186  PHE186     -0.2867
     62  CB        10.0160   25.1200    2.9760 C.3   186  PHE186      0.0534
     63  CG        10.0920   23.6450    3.1840 C.ar  186  PHE186     -0.0203
     64  CD1       10.4780   23.1250    4.4180 C.ar  186  PHE186     -0.0042
     65  CD2        9.8090   22.7690    2.1470 C.ar  186  PHE186     -0.0042
     66  CE1       10.5740   21.7530    4.6120 C.ar  186  PHE186     -0.0003
     67  CE2        9.8980   21.3970    2.3320 C.ar  186  PHE186     -0.0003
     68  CZ        10.2850   20.8890    3.5610 C.ar  186  PHE186     -0.0000
     69  N          9.9270   13.6730   -3.6070 N.3   205  LEU205     -0.1245
     70  CA         9.0520   12.6150   -3.0380 C.3   205  LEU205      0.1561
     71  C          8.2970   11.8590   -4.1490 C.2   205  LEU205      0.2260
     72  O          7.9800   12.4540   -5.2180 O.2   205  LEU205     -0.2867
     73  CB         8.1050   13.2190   -2.0400 C.3   205  LEU205      0.0270
     74  CG         8.8390   13.9860   -0.9440 C.3   205  LEU205      0.0019
     75  CD1        7.8480   14.6740   -0.0240 C.3   205  LEU205      0.0001
     76  CD2        9.8120   13.1260   -0.1320 C.3   205  LEU205      0.0001
     77  N          5.1630   10.8910   -4.2560 N.3   207  LYS207     -0.1245
     78  CA         3.8770   11.5640   -4.5830 C.3   207  LYS207      0.1561
     79  C          4.0950   12.8520   -5.3480 C.2   207  LYS207      0.2260
     80  O          3.3580   13.1550   -6.2950 O.2   207  LYS207     -0.2867
     81  CB         3.0270   11.8730   -3.3440 C.3   207  LYS207      0.0271
     82  CG         2.5420   10.6500   -2.5830 C.3   207  LYS207      0.0035
     83  CD         1.0420   10.7420   -2.2800 C.3   207  LYS207      0.0206
     84  CE         0.6190    9.8640   -1.1070 C.3   207  LYS207      0.1093
     85  NZ         1.3200    8.5460   -1.0800 N.3   207  LYS207     -0.1314
     86  N          2.6160   13.8800   -8.8640 N.3   211  SER211     -0.1217
     87  CA         1.8330   15.1080   -9.0300 C.3   211  SER211      0.1889
     88  C          2.2980   16.0840  -10.1460 C.2   211  SER211      0.2288
     89  O          1.5600   16.9920  -10.4780 O.2   211  SER211     -0.2866
     90  CB         1.8150   15.8930   -7.7420 C.3   211  SER211      0.2089
     91  OG         3.0000   16.6400   -7.6900 O.3   211  SER211     -0.2183
     92  N          7.8520    9.6670    1.2260 N.3   240  ASP240     -0.1239
     93  CA         8.0400   10.6670    2.2810 C.3   240  ASP240      0.1674
     94  C          8.3630   10.1680    3.7020 C.2   240  ASP240      0.2266
     95  O          9.2940   10.6690    4.3330 O.2   240  ASP240     -0.2867
     96  CB         6.8770   11.6700    2.3780 C.3   240  ASP240      0.1410
     97  CG         5.4940   11.0050    2.2870 C.2   240  ASP240      0.3668
     98  OD1        5.3460    9.8260    2.6770 O.co2 240  ASP240     -0.2456
     99  OD2        4.5440   11.6670    1.8080 O.co2 240  ASP240     -0.2456
    100  N         12.0290   10.9980    5.2410 N.3   244  LEU244     -0.1245
    101  CA        11.9580   12.1280    6.1650 C.3   244  LEU244      0.1561
    102  C         11.4760   11.8170    7.5980 C.2   244  LEU244      0.2260
    103  O         11.6090   12.6800    8.4890 O.2   244  LEU244     -0.2867
    104  CB        11.0600   13.2150    5.5580 C.3   244  LEU244      0.0270
    105  CG        11.5340   13.7910    4.2250 C.3   244  LEU244      0.0019
    106  CD1       10.4490   14.7530    3.7620 C.3   244  LEU244      0.0001
    107  CD2       12.8550   14.5460    4.4000 C.3   244  LEU244      0.0001
@<TRIPOS>BOND
     1    89    88    2
     2    88    87    1
     3    87    86    1
     4    87    90    1
     5    90    91    1
     6    49    50    2
     7    49    48    1
     8    80    79    2
     9    47    48    1
    10    79    78    1
    11    48    51    1
    12    72    71    2
    13    78    77    1
    14    78    81    1
    15    71    70    1
    16    51    52    1
    17    38    37    2
    18    69    70    1
    19    37    36    1
    20    52    53    1
    21    81    82    1
    22    26    25    1
    23    26    27    2
    24    70    73    1
    25    24    25    1
    26    35    36    1
    27    25    28    1
    28    82    83    1
    29    36    39    1
    30    83    84    1
    31    73    74    1
    32    53    54    1
    33    54    55    2
    34    55    56    1
    35    55    57    1
    36    28    29    1
    37    84    85    1
    38    39    40    1
    39    42    40   ar
    40    42    44   ar
    41    74    76    1
    42    74    75    1
    43    30    29   ar
    44    30    32   ar
    45    29    31   ar
    46    40    41   ar
    47    44    45   ar
    48    32    34   ar
    49    31    33   ar
    50    34    33   ar
    51    41    43   ar
    52    45    43   ar
    53    45    46    1
    54    92    93    1
    55    99    97   ar
    56    65    67   ar
    57    65    63   ar
    58    60    61    2
    59    60    59    1
    60    93    96    1
    61    93    94    1
    62    97    96    1
    63    97    98   ar
    64    67    68   ar
    65    59    62    1
    66    59    58    1
    67    62    63    1
    68    63    64   ar
    69    68    66   ar
    70    94    95    2
    71   106   105    1
    72   105   107    1
    73   105   104    1
    74    64    66   ar
    75   100   101    1
    76   104   101    1
    77   101   102    1
    78    23    21    1
    79   102   103    2
    80    22    21    1
    81    21    20    2
    82     9     7   ar
    83     9    11   ar
    84    12    11    1
    85     7     6   ar
    86    11    10   ar
    87     6     8   ar
    88     6     5    1
    89    10     8   ar
    90    20    19    1
    91     5     2    1
    92    19    18    1
    93     2     1    1
    94     2     3    1
    95    18    17    1
    96    17    14    1
    97     3     4    2
    98    14    13    1
    99    14    15    1
   100    16    15    2
