@<TRIPOS>MOLECULE
tmp/5gj9A00.pdb
 156 143 0 0 0
SMALL
GASTEIGER

@<TRIPOS>ATOM
      1  N          1.6610   -4.8460  -38.5910 N.3    31  PHE31      -0.1241
      2  CA         1.9980   -4.9090  -37.1790 C.3    31  PHE31       0.1605
      3  C          0.7070   -4.8390  -36.3740 C.2    31  PHE31       0.2264
      4  O         -0.2600   -4.1930  -36.7920 O.2    31  PHE31      -0.2867
      5  CB         2.8600   -3.7160  -36.7180 C.3    31  PHE31       0.0534
      6  CG         4.3320   -3.8460  -36.9850 C.ar   31  PHE31      -0.0203
      7  CD1        4.8370   -3.7250  -38.2730 C.ar   31  PHE31      -0.0042
      8  CD2        5.2190   -4.0110  -35.9280 C.ar   31  PHE31      -0.0042
      9  CE1        6.2030   -3.8160  -38.5080 C.ar   31  PHE31      -0.0003
     10  CE2        6.5760   -4.1130  -36.1490 C.ar   31  PHE31      -0.0003
     11  CZ         7.0730   -4.0060  -37.4520 C.ar   31  PHE31      -0.0000
     12  N         16.1930  -12.4870  -30.4720 N.3   156  LYS156     -0.1245
     13  CA        17.1660  -11.4140  -30.5250 C.3   156  LYS156      0.1561
     14  C         16.9540  -10.5320  -29.2990 C.2   156  LYS156      0.2260
     15  O         15.8600   -9.9800  -29.1130 O.2   156  LYS156     -0.2867
     16  CB        16.9780  -10.6310  -31.8240 C.3   156  LYS156      0.0271
     17  CG        17.8570   -9.4100  -31.9560 C.3   156  LYS156      0.0035
     18  CD        17.6290   -8.6640  -33.2830 C.3   156  LYS156      0.0206
     19  CE        18.4670   -7.3760  -33.3220 C.3   156  LYS156      0.1093
     20  NZ        18.0010   -6.3880  -34.3550 N.3   156  LYS156     -0.1314
     21  N         19.0130   -0.5190  -27.0440 N.3   160  TYR160     -0.1241
     22  CA        19.3630    0.6530  -27.8320 C.3   160  TYR160      0.1605
     23  C         19.7500    1.7440  -26.8470 C.2   160  TYR160      0.2264
     24  O         18.8740    2.4100  -26.2720 O.2   160  TYR160     -0.2867
     25  CB        18.1840    1.0630  -28.7180 C.3   160  TYR160      0.0534
     26  CG        17.8580   -0.0700  -29.6790 C.ar  160  TYR160     -0.0201
     27  CD1       16.9580   -1.0790  -29.3330 C.ar  160  TYR160     -0.0009
     28  CD2       18.5160   -0.1700  -30.9040 C.ar  160  TYR160     -0.0009
     29  CE1       16.6930   -2.1480  -30.1990 C.ar  160  TYR160      0.0417
     30  CE2       18.2600   -1.2140  -31.7760 C.ar  160  TYR160      0.0417
     31  CZ        17.3520   -2.2020  -31.4230 C.ar  160  TYR160      0.1957
     32  OH        17.1080   -3.2320  -32.3060 O.3   160  TYR160     -0.2866
     33  N         18.3890    1.0550  -35.4810 N.3   172  LEU172     -0.1245
     34  CA        18.3220   -0.0430  -36.4460 C.3   172  LEU172      0.1561
     35  C         17.7410    0.5160  -37.7360 C.2   172  LEU172      0.2260
     36  O         16.6220    1.0420  -37.7460 O.2   172  LEU172     -0.2867
     37  CB        17.4670   -1.2070  -35.9210 C.3   172  LEU172      0.0270
     38  CG        17.4060   -2.5140  -36.7340 C.3   172  LEU172      0.0019
     39  CD1       18.8020   -3.1010  -36.9890 C.3   172  LEU172      0.0001
     40  CD2       16.5130   -3.5500  -36.0270 C.3   172  LEU172      0.0001
     41  N         14.1550   -1.7210  -42.6340 N.3   175  HIS175     -0.1241
     42  CA        14.2290   -3.0480  -43.2450 C.3   175  HIS175      0.1621
     43  C         12.8730   -3.7120  -43.0720 C.2   175  HIS175      0.2264
     44  O         12.0610   -3.2760  -42.2530 O.2   175  HIS175     -0.2867
     45  CB        15.3040   -3.9120  -42.5840 C.3   175  HIS175      0.0745
     46  CG        14.9910   -4.2380  -41.1620 C.ar  175  HIS175      0.0817
     47  ND1       15.1850   -3.3350  -40.1410 N.ar  175  HIS175     -0.2268
     48  CD2       14.4520   -5.3440  -40.5890 C.ar  175  HIS175      0.1154
     49  CE1       14.7870   -3.8700  -39.0000 C.ar  175  HIS175      0.1986
     50  NE2       14.3530   -5.0930  -39.2410 N.ar  175  HIS175     -0.2212
     51  N         11.4590   -7.7310  -42.1840 N.3   177  ASP177     -0.1239
     52  CA        11.9560   -8.9530  -41.5700 C.3   177  ASP177      0.1674
     53  C         11.8830  -10.1110  -42.5670 C.2   177  ASP177      0.2266
     54  O         10.8730  -10.2760  -43.2630 O.2   177  ASP177     -0.2867
     55  CB        11.1470   -9.2750  -40.3120 C.3   177  ASP177      0.1410
     56  CG        11.4570   -8.3320  -39.1610 C.2   177  ASP177      0.3668
     57  OD1       12.6230   -7.9190  -39.0350 O.co2 177  ASP177     -0.2456
     58  OD2       10.5360   -8.0260  -38.3760 O.co2 177  ASP177     -0.2456
     59  N          6.8620  -12.5290  -36.1260 N.3   182  ILE182     -0.1245
     60  CA         7.7640  -11.9470  -35.1340 C.3   182  ILE182      0.1561
     61  C          6.9420  -11.5370  -33.9100 C.2   182  ILE182      0.2260
     62  O          5.9000  -10.8830  -34.0450 O.2   182  ILE182     -0.2867
     63  CB         8.5340  -10.7400  -35.7090 C.3   182  ILE182      0.0252
     64  CG1        9.5670  -11.1700  -36.7610 C.3   182  ILE182      0.0019
     65  CG2        9.2230   -9.9560  -34.5980 C.3   182  ILE182      0.0019
     66  CD1        9.0160  -11.4980  -38.1170 C.3   182  ILE182      0.0001
     67  N          7.4270   -9.6030  -30.3920 N.3   184  LEU184     -0.1245
     68  CA         8.3480   -8.6650  -29.7620 C.3   184  LEU184      0.1561
     69  C          7.8430   -8.2680  -28.3800 C.2   184  LEU184      0.2260
     70  O          6.7220   -7.7630  -28.2360 O.2   184  LEU184     -0.2867
     71  CB         8.5270   -7.4270  -30.6420 C.3   184  LEU184      0.0270
     72  CG         9.1240   -6.2020  -29.9420 C.3   184  LEU184      0.0019
     73  CD1       10.5170   -6.4760  -29.3610 C.3   184  LEU184      0.0001
     74  CD2        9.1770   -5.0580  -30.9320 C.3   184  LEU184      0.0001
     75  N         10.7630    2.1960  -31.6970 N.3   193  LEU193     -0.1245
     76  CA        10.3440    1.3970  -32.8440 C.3   193  LEU193      0.1561
     77  C          9.2540    2.1240  -33.6280 C.2   193  LEU193      0.2260
     78  O          8.2830    2.6150  -33.0460 O.2   193  LEU193     -0.2867
     79  CB         9.8470    0.0220  -32.3850 C.3   193  LEU193      0.0270
     80  CG         9.3270   -0.9230  -33.4780 C.3   193  LEU193      0.0019
     81  CD1       10.4490   -1.3220  -34.4500 C.3   193  LEU193      0.0001
     82  CD2        8.7150   -2.1740  -32.8360 C.3   193  LEU193      0.0001
     83  N          4.1530   -7.1730  -29.3450 N.3   212  VAL212     -0.1245
     84  CA         4.0170   -6.6110  -30.6900 C.3   212  VAL212      0.1561
     85  C          4.2100   -7.7380  -31.6930 C.2   212  VAL212      0.2260
     86  O          5.2200   -8.4530  -31.6420 O.2   212  VAL212     -0.2867
     87  CB         5.0320   -5.4750  -30.9480 C.3   212  VAL212      0.0252
     88  CG1        4.7810   -4.8350  -32.3040 C.3   212  VAL212      0.0019
     89  CG2        4.9860   -4.4060  -29.8600 C.3   212  VAL212      0.0019
     90  N          4.4450   -8.8380  -35.7980 N.3   214  ASN214     -0.1240
     91  CA         4.5150   -8.4150  -37.1950 C.3   214  ASN214      0.1653
     92  C          4.8970   -9.5940  -38.0840 C.2   214  ASN214      0.2266
     93  O          5.3950  -10.6300  -37.6220 O.2   214  ASN214     -0.2867
     94  CB         5.4450   -7.1910  -37.4070 C.3   214  ASN214      0.1155
     95  CG         6.9440   -7.5170  -37.3690 C.2   214  ASN214      0.2627
     96  OD1        7.5360   -7.6370  -36.2930 O.2   214  ASN214     -0.2716
     97  ND2        7.5820   -7.5690  -38.5520 N.am  214  ASN214     -0.0877
     98  N         10.2630   -1.1450  -41.1200 N.3   232  HIS232     -0.1241
     99  CA        10.3120   -0.6630  -39.7480 C.3   232  HIS232      0.1621
    100  C         11.7580   -0.3580  -39.3920 C.2   232  HIS232      0.2264
    101  O         12.6940   -0.9120  -39.9820 O.2   232  HIS232     -0.2867
    102  CB         9.6910   -1.6840  -38.7640 C.3   232  HIS232      0.0745
    103  CG        10.2700   -3.0670  -38.8630 C.ar  232  HIS232      0.0817
    104  ND1        9.9170   -3.9530  -39.8600 N.ar  232  HIS232     -0.2268
    105  CD2       11.1720   -3.7150  -38.0890 C.ar  232  HIS232      0.1154
    106  CE1       10.5720   -5.0910  -39.6920 C.ar  232  HIS232      0.1986
    107  NE2       11.3450   -4.9730  -38.6270 N.ar  232  HIS232     -0.2212
    108  N         14.3330    1.4950  -35.8540 N.3   234  VAL234     -0.1245
    109  CA        14.4390    1.9420  -34.4590 C.3   234  VAL234      0.1561
    110  C         15.2810    3.2210  -34.4200 C.2   234  VAL234      0.2260
    111  O         16.4430    3.2120  -34.8370 O.2   234  VAL234     -0.2867
    112  CB        15.0560    0.8650  -33.5380 C.3   234  VAL234      0.0252
    113  CG1       15.1970    1.3910  -32.1050 C.3   234  VAL234      0.0019
    114  CG2       14.2250   -0.4120  -33.5300 C.3   234  VAL234      0.0019
    115  N         16.1920    1.6970  -24.7140 N.3   242  ARG242     -0.1245
    116  CA        15.0270    0.9090  -25.0930 C.3   242  ARG242      0.1563
    117  C         15.3950   -0.5730  -25.1380 C.2   242  ARG242      0.2260
    118  O         16.2700   -0.9880  -25.9130 O.2   242  ARG242     -0.2867
    119  CB        14.4570    1.3640  -26.4320 C.3   242  ARG242      0.0307
    120  CG        13.2950    0.4640  -26.8950 C.3   242  ARG242      0.0489
    121  CD        12.6850    0.8840  -28.2370 C.3   242  ARG242      0.2205
    122  NE        11.7260   -0.0990  -28.6930 N.pl3 242  ARG242     -0.0865
    123  CZ        12.0520   -1.0990  -29.4980 C.cat 242  ARG242      0.5346
    124  NH1       13.2950   -1.2290  -29.9480 N.pl3 242  ARG242      0.1354
    125  NH2       11.1340   -1.9710  -29.8630 N.pl3 242  ARG242      0.1354
    126  N         14.5810   -4.5240  -26.0650 N.3   244  SER244     -0.1217
    127  CA        13.9100   -5.2300  -27.1520 C.3   244  SER244      0.1889
    128  C         14.2370   -6.7210  -27.0990 C.2   244  SER244      0.2288
    129  O         15.3880   -7.1190  -27.3140 O.2   244  SER244     -0.2866
    130  CB        14.3170   -4.6520  -28.5020 C.3   244  SER244      0.2089
    131  OG        13.6840   -5.3490  -29.5610 O.3   244  SER244     -0.2183
    132  N         12.9430   -9.7470  -29.0840 N.3   246  ALA246     -0.1245
    133  CA        12.1650  -10.0450  -30.2840 C.3   246  ALA246      0.1562
    134  C         12.3940  -11.4950  -30.6860 C.2   246  ALA246      0.2260
    135  O         13.5330  -11.8840  -30.9750 O.2   246  ALA246     -0.2867
    136  CB        12.5610   -9.1180  -31.4370 C.3   246  ALA246      0.0290
    137  N         11.5520  -14.7730  -33.2390 N.3   248  PHE248     -0.1241
    138  CA        11.3040  -14.9540  -34.6650 C.3   248  PHE248      0.1605
    139  C         10.8850  -16.4050  -34.8690 C.2   248  PHE248      0.2264
    140  O         11.6780  -17.3160  -34.6160 O.2   248  PHE248     -0.2867
    141  CB        12.5630  -14.6330  -35.4850 C.3   248  PHE248      0.0534
    142  CG        13.0180  -13.1840  -35.4090 C.ar  248  PHE248     -0.0203
    143  CD1       13.6750  -12.6920  -34.2860 C.ar  248  PHE248     -0.0042
    144  CD2       12.8310  -12.3260  -36.4890 C.ar  248  PHE248     -0.0042
    145  CE1       14.1020  -11.3490  -34.2210 C.ar  248  PHE248     -0.0003
    146  CE2       13.2640  -10.9870  -36.4350 C.ar  248  PHE248     -0.0003
    147  CZ        13.8980  -10.5020  -35.2960 C.ar  248  PHE248     -0.0000
    148  N         20.2340   -6.7690  -46.5010 N.3   286  LYS286     -0.1245
    149  CA        19.1420   -6.5920  -45.5430 C.3   286  LYS286      0.1561
    150  C         18.5640   -5.1740  -45.5660 C.2   286  LYS286      0.2260
    151  O         17.3540   -4.9890  -45.3960 O.2   286  LYS286     -0.2867
    152  CB        19.6480   -6.9420  -44.1460 C.3   286  LYS286      0.0271
    153  CG        18.7740   -6.4630  -42.9870 C.3   286  LYS286      0.0035
    154  CD        19.2870   -7.0530  -41.6820 C.3   286  LYS286      0.0206
    155  CE        18.2560   -6.9150  -40.5720 C.3   286  LYS286      0.1093
    156  NZ        18.7380   -7.5070  -39.3120 N.3   286  LYS286     -0.1314
@<TRIPOS>BOND
     1   148   149    1
     2   150   149    1
     3   150   151    2
     4   149   152    1
     5   152   153    1
     6    54    53    2
     7    42    43    1
     8    42    41    1
     9    42    45    1
    10    43    44    2
    11   153   154    1
    12    45    46    1
    13    53    52    1
    14    51    52    1
    15   154   155    1
    16    52    55    1
    17    46    48   ar
    18    46    47   ar
    19    98    99    1
    20    48    50   ar
    21   155   156    1
    22    55    56    1
    23    47    49   ar
    24   101   100    2
    25   104   106   ar
    26   104   103   ar
    27    99   100    1
    28    99   102    1
    29   106   107   ar
    30    50    49   ar
    31    56    57   ar
    32    56    58   ar
    33   103   102    1
    34   103   105   ar
    35   107   105   ar
    36     1     2    1
    37    97    95   am
    38     9     7   ar
    39     9    11   ar
    40     7     6   ar
    41    66    64    1
    42    92    93    2
    43    92    91    1
    44    36    35    2
    45    35    34    1
    46    11    10   ar
    47    94    95    1
    48    94    91    1
    49    95    96    2
    50    91    90    1
    51     2     5    1
    52     2     3    1
    53    39    38    1
    54     6     5    1
    55     6     8   ar
    56     4     3    2
    57    64    63    1
    58    38    40    1
    59    38    37    1
    60   144   146   ar
    61   144   142   ar
    62    34    37    1
    63    34    33    1
    64   146   147   ar
    65    10     8   ar
    66    59    60    1
    67   108   109    1
    68    63    60    1
    69    63    65    1
    70   141   142    1
    71   141   138    1
    72   142   143   ar
    73   147   145   ar
    74    60    61    1
    75   139   138    1
    76   139   140    2
    77   111   110    2
    78   138   137    1
    79   109   110    1
    80   109   112    1
    81    81    80    1
    82    20    19    1
    83   143   145   ar
    84    62    61    2
    85    77    78    2
    86    77    76    1
    87   112   114    1
    88   112   113    1
    89    80    82    1
    90    80    79    1
    91    19    18    1
    92    18    17    1
    93    76    79    1
    94    76    75    1
    95    32    31    1
    96    88    87    1
    97    17    16    1
    98    16    13    1
    99    30    31   ar
   100    30    28   ar
   101    85    86    2
   102    85    84    1
   103   136   133    1
   104    31    29   ar
   105   135   134    2
   106    87    84    1
   107    87    89    1
   108    74    72    1
   109    28    26   ar
   110    84    83    1
   111   134   133    1
   112    71    72    1
   113    71    68    1
   114    13    12    1
   115    13    14    1
   116    67    68    1
   117   133   132    1
   118    29    27   ar
   119   124   123    1
   120    72    73    1
   121   125   123    1
   122    68    69    1
   123    26    27   ar
   124    26    25    1
   125   131   130    1
   126   123   122    2
   127    14    15    2
   128    25    22    1
   129   122   121    1
   130   130   127    1
   131    69    70    2
   132   121   120    1
   133    22    21    1
   134    22    23    1
   135   129   128    2
   136   127   128    1
   137   127   126    1
   138   120   119    1
   139    23    24    2
   140   119   116    1
   141   118   117    2
   142   117   116    1
   143   116   115    1
