@<TRIPOS>MOLECULE
tmp/5gjaD00.pdb
 142 131 0 0 0
SMALL
GASTEIGER

@<TRIPOS>ATOM
      1  N         83.1710  -58.8750  -41.7050 N.3    32  PHE32      -0.1241
      2  CA        84.4190  -58.1340  -41.7620 C.3    32  PHE32       0.1605
      3  C         85.5380  -59.1560  -41.7190 C.2    32  PHE32       0.2264
      4  O         85.4040  -60.2130  -41.0940 O.2    32  PHE32      -0.2867
      5  CB        84.6120  -57.1860  -40.5610 C.3    32  PHE32       0.0534
      6  CG        83.9250  -55.8640  -40.6710 C.ar   32  PHE32      -0.0203
      7  CD1       82.5400  -55.7520  -40.5160 C.ar   32  PHE32      -0.0042
      8  CD2       84.6750  -54.7130  -40.8700 C.ar   32  PHE32      -0.0042
      9  CE1       81.9170  -54.5100  -40.5900 C.ar   32  PHE32      -0.0003
     10  CE2       84.0590  -53.4690  -40.9550 C.ar   32  PHE32      -0.0003
     11  CZ        82.6720  -53.3680  -40.8100 C.ar   32  PHE32      -0.0000
     12  N         86.7910  -42.6620  -49.4850 N.3   157  LYS157     -0.1245
     13  CA        86.5290  -41.7210  -48.4070 C.3   157  LYS157      0.1561
     14  C         87.7830  -41.6470  -47.5390 C.2   157  LYS157      0.2260
     15  O         88.2260  -42.6660  -46.9920 O.2   157  LYS157     -0.2867
     16  CB        85.2920  -42.1590  -47.6180 C.3   157  LYS157      0.0271
     17  CG        84.9880  -41.3570  -46.3490 C.3   157  LYS157      0.0035
     18  CD        83.8770  -42.0090  -45.5420 C.3   157  LYS157      0.0206
     19  CE        83.5630  -41.2080  -44.2840 C.3   157  LYS157      0.1093
     20  NZ        82.6440  -41.9660  -43.4000 N.3   157  LYS157     -0.1314
     21  N         89.7130  -38.9830  -37.5580 N.3   161  TYR161     -0.1241
     22  CA        88.8950  -38.8420  -36.3590 C.3   161  TYR161      0.1605
     23  C         89.7740  -38.2100  -35.2960 C.2   161  TYR161      0.2264
     24  O         90.4820  -38.9110  -34.5550 O.2   161  TYR161     -0.2867
     25  CB        88.3270  -40.1960  -35.9120 C.3   161  TYR161      0.0534
     26  CG        87.5100  -40.7760  -37.0370 C.ar  161  TYR161     -0.0201
     27  CD1       88.1220  -41.5190  -38.0560 C.ar  161  TYR161     -0.0009
     28  CD2       86.1400  -40.4970  -37.1460 C.ar  161  TYR161     -0.0009
     29  CE1       87.3940  -42.0050  -39.1180 C.ar  161  TYR161      0.0417
     30  CE2       85.4000  -40.9870  -38.2050 C.ar  161  TYR161      0.0417
     31  CZ        86.0350  -41.7360  -39.1950 C.ar  161  TYR161      0.1957
     32  OH        85.3250  -42.2280  -40.2650 O.3   161  TYR161     -0.2866
     33  N         81.8360  -41.8140  -35.8440 N.3   173  LEU173     -0.1245
     34  CA        80.8930  -42.0900  -36.9150 C.3   173  LEU173      0.1561
     35  C         79.8290  -43.0260  -36.3630 C.2   173  LEU173      0.2260
     36  O         80.1510  -44.1000  -35.8440 O.2   173  LEU173     -0.2867
     37  CB        81.6290  -42.6980  -38.1200 C.3   173  LEU173      0.0270
     38  CG        80.7650  -43.1560  -39.3020 C.3   173  LEU173      0.0019
     39  CD1       80.1030  -41.9400  -39.9090 C.3   173  LEU173      0.0001
     40  CD2       81.6270  -43.8630  -40.3670 C.3   173  LEU173      0.0001
     41  N         76.0210  -47.8280  -38.4980 N.3   176  HIS176     -0.1241
     42  CA        75.3600  -47.9520  -39.7980 C.3   176  HIS176      0.1621
     43  C         75.8380  -49.2410  -40.4600 C.2   176  HIS176      0.2264
     44  O         76.7910  -49.8780  -39.9990 O.2   176  HIS176     -0.2867
     45  CB        75.6830  -46.7650  -40.7080 C.3   176  HIS176      0.0745
     46  CG        77.1370  -46.6740  -41.0580 C.ar  176  HIS176      0.0817
     47  ND1       78.0880  -46.2130  -40.1740 N.ar  176  HIS176     -0.2268
     48  CD2       77.8070  -47.0250  -42.1810 C.ar  176  HIS176      0.1154
     49  CE1       79.2790  -46.2770  -40.7390 C.ar  176  HIS176      0.1986
     50  NE2       79.1340  -46.7500  -41.9630 N.ar  176  HIS176     -0.2212
     51  N         76.9440  -50.3650  -44.5440 N.3   178  ASP178     -0.1239
     52  CA        77.3290  -49.7250  -45.8020 C.3   178  ASP178      0.1674
     53  C         76.3950  -50.1750  -46.9080 C.2   178  ASP178      0.2266
     54  O         76.0100  -51.3460  -46.9630 O.2   178  ASP178     -0.2867
     55  CB        78.7810  -50.0710  -46.1800 C.3   178  ASP178      0.1410
     56  CG        79.8030  -49.4970  -45.1870 C.2   178  ASP178      0.3668
     57  OD1       79.6120  -48.3440  -44.7580 O.co2 178  ASP178     -0.2456
     58  OD2       80.7820  -50.1940  -44.8400 O.co2 178  ASP178     -0.2456
     59  N         83.8550  -53.1840  -49.3670 N.3   183  ILE183     -0.1245
     60  CA        84.5100  -52.0040  -48.8130 C.3   183  ILE183      0.1561
     61  C         85.9090  -52.4360  -48.3820 C.2   183  ILE183      0.2260
     62  O         86.0630  -53.4500  -47.6950 O.2   183  ILE183     -0.2867
     63  CB        83.6870  -51.4010  -47.6470 C.3   183  ILE183      0.0252
     64  CG1       82.2890  -50.9600  -48.1240 C.3   183  ILE183      0.0019
     65  CG2       84.3530  -50.1590  -47.0380 C.3   183  ILE183      0.0019
     66  CD1       81.2400  -52.0560  -48.1740 C.3   183  ILE183      0.0001
     67  N         89.3400  -51.1590  -46.5270 N.3   185  LEU185     -0.1245
     68  CA        89.7530  -50.1030  -45.6080 C.3   185  LEU185      0.1561
     69  C         91.2300  -50.2480  -45.2610 C.2   185  LEU185      0.2260
     70  O         91.6710  -51.3300  -44.8480 O.2   185  LEU185     -0.2867
     71  CB        88.9120  -50.1360  -44.3270 C.3   185  LEU185      0.0270
     72  CG        89.4590  -49.3430  -43.1270 C.3   185  LEU185      0.0019
     73  CD1       89.5550  -47.8590  -43.4640 C.3   185  LEU185      0.0001
     74  CD2       88.6220  -49.5990  -41.8670 C.3   185  LEU185      0.0001
     75  N         87.4530  -48.1930  -34.9090 N.3   194  LEU194     -0.1245
     76  CA        86.4220  -48.8750  -35.6700 C.3   194  LEU194      0.1561
     77  C         85.9530  -50.1190  -34.9220 C.2   194  LEU194      0.2260
     78  O         86.7640  -50.9120  -34.4450 O.2   194  LEU194     -0.2867
     79  CB        86.9440  -49.2410  -37.0590 C.3   194  LEU194      0.0270
     80  CG        85.9930  -50.1420  -37.8650 C.3   194  LEU194      0.0019
     81  CD1       84.7110  -49.4160  -38.2630 C.3   194  LEU194      0.0001
     82  CD2       86.7000  -50.6590  -39.0980 C.3   194  LEU194      0.0001
     83  N         84.9500  -55.3400  -45.6560 N.3   215  ASN215     -0.1240
     84  CA        83.6050  -55.6720  -45.1870 C.3   215  ASN215      0.1653
     85  C         82.6340  -55.6000  -46.3500 C.2   215  ASN215      0.2266
     86  O         82.9100  -54.9710  -47.3760 O.2   215  ASN215     -0.2867
     87  CB        83.1520  -54.7910  -44.0010 C.3   215  ASN215      0.1155
     88  CG        82.8580  -53.3460  -44.3820 C.2   215  ASN215      0.2627
     89  OD1       83.7730  -52.5310  -44.5350 O.2   215  ASN215     -0.2716
     90  ND2       81.5750  -53.0030  -44.4700 N.am  215  ASN215     -0.0877
     91  N         78.4740  -51.1850  -37.9550 N.3   233  HIS233     -0.1241
     92  CA        79.7800  -50.7760  -37.4770 C.3   233  HIS233      0.1621
     93  C         79.7560  -49.2940  -37.1560 C.2   233  HIS233      0.2264
     94  O         78.8950  -48.5530  -37.6300 O.2   233  HIS233     -0.2867
     95  CB        80.8830  -51.0750  -38.4980 C.3   233  HIS233      0.0745
     96  CG        80.5140  -50.6900  -39.8920 C.ar  233  HIS233      0.0817
     97  ND1       81.0420  -49.5800  -40.5230 N.ar  233  HIS233     -0.2268
     98  CD2       79.6970  -51.2840  -40.7890 C.ar  233  HIS233      0.1154
     99  CE1       80.5470  -49.5000  -41.7490 C.ar  233  HIS233      0.1986
    100  NE2       79.7430  -50.5300  -41.9360 N.ar  233  HIS233     -0.2212
    101  N         92.7320  -40.9900  -35.4570 N.3   243  ARG243     -0.1245
    102  CA        92.7240  -42.1940  -36.2790 C.3   243  ARG243      0.1563
    103  C         92.5080  -41.8300  -37.7470 C.2   243  ARG243      0.2260
    104  O         91.5320  -41.1530  -38.0930 O.2   243  ARG243     -0.2867
    105  CB        91.6540  -43.1810  -35.8060 C.3   243  ARG243      0.0307
    106  CG        91.3500  -44.3380  -36.7970 C.3   243  ARG243      0.0489
    107  CD        90.2730  -45.2770  -36.2660 C.3   243  ARG243      0.2205
    108  NE        90.0980  -46.4000  -37.1770 N.pl3 243  ARG243     -0.0865
    109  CZ        89.2090  -46.3940  -38.1650 C.cat 243  ARG243      0.5346
    110  NH1       88.4310  -45.3270  -38.3220 N.pl3 243  ARG243      0.1354
    111  NH2       89.1070  -47.4370  -38.9760 N.pl3 243  ARG243      0.1354
    112  N         91.7550  -42.9170  -41.7100 N.3   245  SER245     -0.1217
    113  CA        90.9170  -43.9100  -42.3810 C.3   245  SER245      0.1889
    114  C         90.8410  -43.5950  -43.8700 C.2   245  SER245      0.2288
    115  O         90.3660  -42.5220  -44.2580 O.2   245  SER245     -0.2866
    116  CB        89.5140  -43.9500  -41.7750 C.3   245  SER245      0.2089
    117  OG        88.7140  -44.8810  -42.4770 O.3   245  SER245     -0.2183
    118  N         89.1480  -45.4170  -46.9670 N.3   247  ALA247     -0.1245
    119  CA        88.1870  -46.4900  -47.2210 C.3   247  ALA247      0.1562
    120  C         87.6470  -46.4110  -48.6480 C.2   247  ALA247      0.2260
    121  O         87.1350  -45.3710  -49.0710 O.2   247  ALA247     -0.2867
    122  CB        87.0360  -46.4220  -46.2310 C.3   247  ALA247      0.0290
    123  N         85.1580  -47.8810  -51.7070 N.3   249  PHE249     -0.1241
    124  CA        83.8320  -48.4800  -51.8190 C.3   249  PHE249      0.1605
    125  C         83.6350  -48.9490  -53.2600 C.2   249  PHE249      0.2264
    126  O         83.5460  -48.1290  -54.1760 O.2   249  PHE249     -0.2867
    127  CB        82.7590  -47.4660  -51.4120 C.3   249  PHE249      0.0534
    128  CG        82.8600  -47.0080  -49.9660 C.ar  249  PHE249     -0.0203
    129  CD1       83.6450  -45.9170  -49.6200 C.ar  249  PHE249     -0.0042
    130  CD2       82.1600  -47.6620  -48.9610 C.ar  249  PHE249     -0.0042
    131  CE1       83.7340  -45.4920  -48.3000 C.ar  249  PHE249     -0.0003
    132  CE2       82.2480  -47.2420  -47.6400 C.ar  249  PHE249     -0.0003
    133  CZ        83.0330  -46.1530  -47.3120 C.ar  249  PHE249     -0.0000
    134  N         70.7050  -43.2280  -43.6000 N.3   287  LYS287     -0.1245
    135  CA        71.9030  -44.0510  -43.4170 C.3   287  LYS287      0.1561
    136  C         72.0580  -44.5300  -41.9720 C.2   287  LYS287      0.2260
    137  O         72.5000  -45.6630  -41.7340 O.2   287  LYS287     -0.2867
    138  CB        73.1170  -43.2300  -43.8740 C.3   287  LYS287      0.0271
    139  CG        74.4670  -43.6300  -43.3530 C.3   287  LYS287      0.0035
    140  CD        75.5250  -42.6560  -43.9050 C.3   287  LYS287      0.0206
    141  CE        76.9360  -42.9740  -43.4180 C.3   287  LYS287      0.1093
    142  NZ        77.8080  -43.7570  -44.3300 N.3   287  LYS287     -0.1314
@<TRIPOS>BOND
     1   126   125    2
     2   125   124    1
     3   124   123    1
     4   124   127    1
     5   127   128    1
     6   128   129   ar
     7   128   130   ar
     8   129   131   ar
     9    12    13    1
    10    59    60    1
    11   121   120    2
    12   130   132   ar
    13    60    61    1
    14    60    63    1
    15   120   119    1
    16    13    16    1
    17    13    14    1
    18    61    62    2
    19   131   133   ar
    20    66    64    1
    21    64    63    1
    22    63    65    1
    23   132   133   ar
    24    16    17    1
    25    14    15    2
    26    86    85    2
    27   119   118    1
    28   119   122    1
    29    54    53    2
    30    53    52    1
    31    67    68    1
    32    85    84    1
    33    17    18    1
    34    55    52    1
    35    55    56    1
    36    52    51    1
    37    83    84    1
    38    68    69    1
    39    68    71    1
    40    18    19    1
    41    69    70    2
    42    56    58   ar
    43    56    57   ar
    44    84    87    1
    45    89    88    2
    46    90    88   am
    47    88    87    1
    48   142   141    1
    49    71    72    1
    50    19    20    1
    51   115   114    2
    52   140   141    1
    53   140   139    1
    54   138   135    1
    55   138   139    1
    56   114   113    1
    57   134   135    1
    58    73    72    1
    59   135   136    1
    60    72    74    1
    61   117   116    1
    62   113   116    1
    63   113   112    1
    64    48    50   ar
    65    48    46   ar
    66   136   137    2
    67    50    49   ar
    68   100    99   ar
    69   100    98   ar
    70     2     3    1
    71     2     1    1
    72     2     5    1
    73    99    97   ar
    74     3     4    2
    75    46    45    1
    76    46    47   ar
    77    10     8   ar
    78    10    11   ar
    79     8     6   ar
    80    11     9   ar
    81    98    96   ar
    82    49    47   ar
    83    45    42    1
    84     6     5    1
    85     6     7   ar
    86     9     7   ar
    87    97    96   ar
    88    43    44    2
    89    43    42    1
    90    40    38    1
    91    32    31    1
    92    39    38    1
    93    96    95    1
    94    42    41    1
    95    38    37    1
    96    31    29   ar
    97    31    30   ar
    98    29    27   ar
    99    82    80    1
   100   111   109    1
   101    95    92    1
   102   110   109    1
   103    81    80    1
   104    30    28   ar
   105   109   108    2
   106    37    34    1
   107   104   103    2
   108    27    26   ar
   109    91    92    1
   110    80    79    1
   111   103   102    1
   112    94    93    2
   113    21    22    1
   114    92    93    1
   115   108   107    1
   116    28    26   ar
   117    79    76    1
   118    26    25    1
   119    34    35    1
   120    34    33    1
   121   106   107    1
   122   106   105    1
   123    35    36    2
   124    22    25    1
   125    22    23    1
   126   102   105    1
   127   102   101    1
   128    76    77    1
   129    76    75    1
   130    23    24    2
   131    77    78    2
