@<TRIPOS>MOLECULE
tmp/5gjcA00.pdb
 153 146 0 0 0
SMALL
GASTEIGER

@<TRIPOS>ATOM
      1  N         -2.2020   11.3260    5.9650 N.3    14  HIS14      -0.1227
      2  CA        -1.0200   10.4750    5.8720 C.3    14  HIS14       0.1737
      3  C          0.2260   11.3290    5.6260 C.2    14  HIS14       0.2438
      4  O          0.1120   12.4700    5.1860 O.2    14  HIS14      -0.2733
      5  CB        -1.2030    9.4210    4.7700 C.3    14  HIS14       0.0758
      6  CG        -1.2050    9.9780    3.3790 C.ar   14  HIS14       0.0818
      7  ND1       -0.0560   10.3900    2.7380 N.ar   14  HIS14      -0.2268
      8  CD2       -2.2170   10.1800    2.5030 C.ar   14  HIS14       0.1154
      9  CE1       -0.3610   10.8260    1.5290 C.ar   14  HIS14       0.1986
     10  NE2       -1.6660   10.7100    1.3620 N.ar   14  HIS14      -0.2212
     11  N          1.4170   10.7890    5.9380 N.am   15  PRO15      -0.2718
     12  CA         2.6640   11.5290    5.7140 C.3    15  PRO15       0.1535
     13  C          2.8250   12.0060    4.2700 C.2    15  PRO15       0.2599
     14  O          2.5990   11.2360    3.3340 O.2    15  PRO15      -0.2715
     15  CB         3.7470   10.5040    6.0690 C.3    15  PRO15       0.0310
     16  CG         3.0880    9.5980    7.0520 C.3    15  PRO15       0.0237
     17  CD         1.6570    9.4970    6.6100 C.3    15  PRO15       0.0939
     18  N          3.2000   13.2710    4.1040 N.am   16  GLY16      -0.1941
     19  CA         3.4400   13.8420    2.7910 C.3    16  GLY16       0.2014
     20  C          2.1920   14.3130    2.0640 C.2    16  GLY16       0.2639
     21  O          2.2390   14.5940    0.8680 O.2    16  GLY16      -0.2714
     22  N          1.0790   14.4090    2.7850 N.am   17  ALA17      -0.1963
     23  CA        -0.1950   14.7910    2.1780 C.3    17  ALA17       0.1728
     24  C         -0.3320   16.3020    2.0000 C.2    17  ALA17       0.2617
     25  O         -1.2200   16.7680    1.2870 O.2    17  ALA17      -0.2715
     26  CB        -1.3510   14.2590    3.0060 C.3    17  ALA17       0.0334
     27  N          0.5370   17.0650    2.6550 N.am   18  GLY18      -0.1940
     28  CA         0.5360   18.5080    2.4970 C.3    18  GLY18       0.2014
     29  C          0.0480   19.2970    3.6990 C.2    18  GLY18       0.2639
     30  O         -0.3710   20.4440    3.5570 O.2    18  GLY18      -0.2714
     31  N          0.1050   18.6990    4.8850 N.am   19  LYS19      -0.1963
     32  CA        -0.3460   19.3870    6.0930 C.3    19  LYS19       0.1728
     33  C          0.4500   20.6600    6.3680 C.2    19  LYS19       0.2617
     34  O         -0.1240   21.7210    6.6180 O.2    19  LYS19      -0.2715
     35  CB        -0.2530   18.4650    7.3100 C.3    19  LYS19       0.0311
     36  CG        -1.2800   17.3430    7.3360 C.3    19  LYS19       0.0038
     37  CD        -1.3490   16.6830    8.7100 C.3    19  LYS19       0.0206
     38  CE        -0.4390   15.4690    8.8080 C.3    19  LYS19       0.1093
     39  NZ         0.9840   15.7740    8.4890 N.3    19  LYS19      -0.1314
     40  N          1.7730   20.5480    6.3150 N.am   20  THR20      -0.1937
     41  CA         2.6570   21.6430    6.7030 C.3    20  THR20       0.2028
     42  C          2.7010   22.7850    5.6800 C.2    20  THR20       0.2642
     43  O          2.7340   23.9570    6.0560 O.2    20  THR20      -0.2714
     44  CB         4.0970   21.1230    6.9490 C.3    20  THR20       0.1808
     45  OG1        4.1100   20.2980    8.1190 O.3    20  THR20      -0.2208
     46  CG2        5.0730   22.2750    7.1520 C.3    20  THR20       0.0379
     47  N          2.6830   22.4520    4.3930 N.am   21  ARG21      -0.1963
     48  CA         2.9080   23.4660    3.3660 C.3    21  ARG21       0.1729
     49  C          1.7060   23.7560    2.4660 C.2    21  ARG21       0.2616
     50  O          1.7400   24.6960    1.6730 O.2    21  ARG21      -0.2715
     51  CB         4.1050   23.0630    2.5070 C.3    21  ARG21       0.0348
     52  CG         5.4300   23.5090    3.0930 C.3    21  ARG21       0.0492
     53  CD         6.5940   22.7990    2.4380 C.3    21  ARG21       0.2205
     54  NE         7.7540   22.7350    3.3210 N.pl3  21  ARG21      -0.0865
     55  CZ         8.8780   22.0910    3.0280 C.cat  21  ARG21       0.5346
     56  NH1        8.9950   21.4530    1.8720 N.pl3  21  ARG21       0.1354
     57  NH2        9.8850   22.0860    3.8900 N.pl3  21  ARG21       0.1354
     58  N          0.6480   22.9600    2.5820 N.am   22  ARG22      -0.1977
     59  CA        -0.5710   23.2340    1.8270 C.3    22  ARG22       0.1597
     60  C         -1.7090   23.6490    2.7530 C.2    22  ARG22       0.2287
     61  O         -2.2990   24.7160    2.5830 O.2    22  ARG22      -0.2864
     62  CB        -0.9880   22.0170    0.9940 C.3    22  ARG22       0.0334
     63  CG        -2.3180   22.1910    0.2700 C.3    22  ARG22       0.0492
     64  CD        -2.6510   20.9880   -0.6020 C.3    22  ARG22       0.2205
     65  NE        -2.6960   19.7440    0.1630 N.pl3  22  ARG22      -0.0865
     66  CZ        -3.7680   19.3030    0.8130 C.cat  22  ARG22       0.5346
     67  NH1       -4.8920   20.0070    0.7970 N.pl3  22  ARG22       0.1354
     68  NH2       -3.7180   18.1600    1.4820 N.pl3  22  ARG22       0.1354
     69  N          6.6780   29.4720    3.2130 N.3    54  ALA54      -0.1245
     70  CA         5.3600   28.9480    2.8780 C.3    54  ALA54       0.1562
     71  C          4.2830   29.9540    3.2700 C.2    54  ALA54       0.2260
     72  O          3.1830   29.9530    2.7170 O.2    54  ALA54      -0.2867
     73  CB         5.1240   27.6110    3.5650 C.3    54  ALA54       0.0290
     74  N          3.4760   18.8730   13.5480 N.3    98  GLU98      -0.1245
     75  CA         4.2360   17.7170   14.0190 C.3    98  GLU98       0.1567
     76  C          3.9740   17.4700   15.5030 C.2    98  GLU98       0.2260
     77  O          4.9020   17.3660   16.3060 O.2    98  GLU98      -0.2867
     78  CB         5.7340   17.9090   13.7600 C.3    98  GLU98       0.0388
     79  CG         6.0730   18.5380   12.4110 C.3    98  GLU98       0.1160
     80  CD         5.6140   17.7120   11.2150 C.2    98  GLU98       0.3649
     81  OE1        5.2550   16.5290   11.3880 O.co2  98  GLU98      -0.2457
     82  OE2        5.6200   18.2530   10.0910 O.co2  98  GLU98      -0.2457
     83  N          0.5000   13.0020   11.2990 N.3   129  ALA129     -0.1245
     84  CA         0.0550   11.7650   10.6770 C.3   129  ALA129      0.1562
     85  C         -0.0130   10.6370   11.6990 C.2   129  ALA129      0.2260
     86  O         -0.7060    9.6400   11.4950 O.2   129  ALA129     -0.2867
     87  CB         0.9790   11.3890    9.5390 C.3   129  ALA129      0.0290
     88  N          2.4760    9.2460   -0.7870 N.3   142  ASN142     -0.1240
     89  CA         2.2200    9.8330   -2.1000 C.3   142  ASN142      0.1653
     90  C          2.6340    8.8880   -3.2250 C.2   142  ASN142      0.2266
     91  O          2.0630    8.9110   -4.3160 O.2   142  ASN142     -0.2867
     92  CB         2.9540   11.1680   -2.2470 C.3   142  ASN142      0.1155
     93  CG         2.5130   12.1950   -1.2220 C.2   142  ASN142      0.2627
     94  OD1        1.4110   12.1170   -0.6800 O.2   142  ASN142     -0.2716
     95  ND2        3.3790   13.1630   -0.9470 N.am  142  ASN142     -0.0877
     96  N          9.2080   16.4310   10.8530 N.3   227  GLY227     -0.1225
     97  CA         9.0800   17.3140    9.7060 C.3   227  GLY227      0.1811
     98  C         10.3500   17.5800    8.9190 C.2   227  GLY227      0.2280
     99  O         10.4250   18.5540    8.1670 O.2   227  GLY227     -0.2866
    100  N         12.8060   17.2030    5.9490 N.3   229  ASN229     -0.1240
    101  CA        12.7160   16.8290    4.5370 C.3   229  ASN229      0.1653
    102  C         14.0620   16.4830    3.9100 C.2   229  ASN229      0.2266
    103  O         14.9950   17.2860    3.9320 O.2   229  ASN229     -0.2867
    104  CB        12.0630   17.9510    3.7280 C.3   229  ASN229      0.1155
    105  CG        10.5550   17.8530    3.7150 C.2   229  ASN229      0.2627
    106  OD1        9.9490   17.3200    4.6440 O.2   229  ASN229     -0.2716
    107  ND2        9.9380   18.3600    2.6530 N.am  229  ASN229     -0.0877
    108  N          6.8090    7.5410   11.1450 N.3   267  GLN267     -0.1245
    109  CA         7.4460    8.8170   10.8450 C.3   267  GLN267      0.1566
    110  C          8.8010    8.6130   10.1760 C.2   267  GLN267      0.2260
    111  O          9.1930    9.3890    9.3050 O.2   267  GLN267     -0.2867
    112  CB         7.6010    9.6560   12.1160 C.3   267  GLN267      0.0367
    113  CG         6.2950   10.2330   12.6450 C.3   267  GLN267      0.0905
    114  CD         5.6570   11.2330   11.6900 C.2   267  GLN267      0.2608
    115  OE1        6.3170   11.7710   10.7990 O.2   267  GLN267     -0.2717
    116  NE2        4.3670   11.4890   11.8790 N.am  267  GLN267     -0.0878
    117  N          9.7780    9.3800    5.7050 N.3   271  ARG271     -0.1245
    118  CA        10.7850   10.2650    5.1260 C.3   271  ARG271      0.1563
    119  C         10.8670   10.0770    3.6110 C.2   271  ARG271      0.2260
    120  O         11.3420   10.9570    2.8940 O.2   271  ARG271     -0.2867
    121  CB        12.1630   10.0250    5.7530 C.3   271  ARG271      0.0307
    122  CG        12.2840   10.3820    7.2340 C.3   271  ARG271      0.0489
    123  CD        11.6660   11.7350    7.5610 C.3   271  ARG271      0.2205
    124  NE        10.3150   11.5840    8.0950 N.pl3 271  ARG271     -0.0865
    125  CZ         9.3800   12.5270    8.0520 C.cat 271  ARG271      0.5346
    126  NH1        9.6430   13.7030    7.4950 N.pl3 271  ARG271      0.1354
    127  NH2        8.1790   12.2910    8.5620 N.pl3 271  ARG271      0.1354
    128  N          7.4580   10.3500   -0.7660 N.3   274  ARG274     -0.1231
    129  CA         6.7920   11.6500   -0.7620 C.3   274  ARG274      0.1694
    130  C          6.6020   12.2160   -2.1640 C.2   274  ARG274      0.2592
    131  O          5.7170   13.0400   -2.3960 O.2   274  ARG274     -0.2718
    132  CB         7.5860   12.6530    0.0760 C.3   274  ARG274      0.0321
    133  CG         7.9970   12.1490    1.4400 C.3   274  ARG274      0.0489
    134  CD         8.5490   13.2810    2.2940 C.3   274  ARG274      0.2205
    135  NE         7.9810   13.2540    3.6380 N.pl3 274  ARG274     -0.0865
    136  CZ         7.0210   14.0680    4.0650 C.cat 274  ARG274      0.5346
    137  NH1        6.5220   14.9950    3.2580 N.pl3 274  ARG274      0.1354
    138  NH2        6.5670   13.9600    5.3040 N.pl3 274  ARG274      0.1354
    139  N          7.4500   11.7760   -3.0880 N.am  275  ASN275     -0.1961
    140  CA         7.4500   12.2790   -4.4560 C.3   275  ASN275      0.1804
    141  C          6.4450   11.5290   -5.3300 C.2   275  ASN275      0.2463
    142  O          6.6760   10.3750   -5.6900 O.2   275  ASN275     -0.2730
    143  CB         8.8570   12.1680   -5.0420 C.3   275  ASN275      0.1195
    144  CG         9.0880   13.1160   -6.1970 C.2   275  ASN275      0.2630
    145  OD1        8.1690   13.4340   -6.9510 O.2   275  ASN275     -0.2716
    146  ND2       10.3250   13.5760   -6.3420 N.am  275  ASN275     -0.0877
    147  N          5.3290   12.1910   -5.6830 N.am  276  PRO276     -0.2727
    148  CA         4.1920   11.5620   -6.3720 C.3   276  PRO276      0.1402
    149  C          4.5380   10.9710   -7.7400 C.2   276  PRO276      0.2269
    150  O          3.8750   10.0310   -8.1830 O.2   276  PRO276     -0.2865
    151  CB         3.1900   12.7130   -6.5210 C.3   276  PRO276      0.0296
    152  CG         4.0120   13.9480   -6.4390 C.3   276  PRO276      0.0237
    153  CD         5.1160   13.6340   -5.4810 C.3   276  PRO276      0.0939
@<TRIPOS>BOND
     1   150   149    2
     2   149   148    1
     3   145   144    2
     4   151   152    1
     5   151   148    1
     6   152   153    1
     7   148   147    1
     8   146   144   am
     9   144   143    1
    10   142   141    2
    11   147   153    1
    12   147   141   am
    13   141   140    1
    14   143   140    1
    15   140   139    1
    16    91    90    2
    17    90    89    1
    18   139   130   am
    19   131   130    2
    20    92    89    1
    21    92    93    1
    22   130   129    1
    23    89    88    1
    24    93    95   am
    25    93    94    2
    26   128   129    1
    27   129   132    1
    28    64    65    1
    29    64    63    1
    30   132   133    1
    31    65    66    2
    32    63    62    1
    33    67    66    1
    34    66    68    1
    35    21    20    2
    36    62    59    1
    37    25    24    2
    38    10     9   ar
    39    10     8   ar
    40   133   134    1
    41     9     7   ar
    42    50    49    2
    43    59    58    1
    44    59    60    1
    45    56    55    1
    46    24    23    1
    47    24    27   am
    48    20    22   am
    49    20    19    1
    50    23    22    1
    51    23    26    1
    52   134   135    1
    53    53    52    1
    54    53    54    1
    55    49    58   am
    56    49    48    1
    57    28    27    1
    58    28    29    1
    59     8     6   ar
    60    51    52    1
    61    51    48    1
    62    61    60    2
    63   107   105   am
    64    72    71    2
    65     7     6   ar
    66    19    18    1
    67    70    69    1
    68    70    71    1
    69    70    73    1
    70   120   119    2
    71    55    54    2
    72    55    57    1
    73   137   136    1
    74    14    13    2
    75    48    47    1
    76     6     5    1
    77    30    29    2
    78   119   118    1
    79   135   136    2
    80    29    31   am
    81   105   104    1
    82   105   106    2
    83   104   101    1
    84   102   103    2
    85   102   101    1
    86   136   138    1
    87    18    13   am
    88    13    12    1
    89    47    42   am
    90   101   100    1
    91     5     2    1
    92    31    32    1
    93   118   117    1
    94   118   121    1
    95     4     3    2
    96     3     2    1
    97     3    11   am
    98    42    43    2
    99    42    41    1
   100    12    11    1
   101    12    15    1
   102   121   122    1
   103     2     1    1
   104    11    17    1
   105    15    16    1
   106    32    33    1
   107    32    35    1
   108    40    33   am
   109    40    41    1
   110    33    34    2
   111    17    16    1
   112    41    44    1
   113    44    46    1
   114    44    45    1
   115   122   123    1
   116    35    36    1
   117    36    37    1
   118   126   125    1
   119   123   124    1
   120   125   124    2
   121   125   127    1
   122    99    98    2
   123    39    38    1
   124    37    38    1
   125    98    97    1
   126   111   110    2
   127    87    84    1
   128    97    96    1
   129    82    80   ar
   130   110   109    1
   131    84    83    1
   132    84    85    1
   133   115   114    2
   134   109   108    1
   135   109   112    1
   136    80    81   ar
   137    80    79    1
   138    86    85    2
   139   114   116   am
   140   114   113    1
   141   112   113    1
   142    79    78    1
   143    74    75    1
   144    78    75    1
   145    75    76    1
   146    76    77    2
