@<TRIPOS>MOLECULE
tmp/5gjdA00.pdb
 212 201 0 0 0
SMALL
GASTEIGER

@<TRIPOS>ATOM
      1  N        -18.9410  -53.6320  -13.5970 N.3    17  VAL17      -0.1245
      2  CA       -18.7990  -52.9060  -14.8660 C.3    17  VAL17       0.1561
      3  C        -17.6670  -53.5580  -15.6630 C.2    17  VAL17       0.2260
      4  O        -16.5700  -53.0070  -15.7830 O.2    17  VAL17      -0.2867
      5  CB       -18.5360  -51.3940  -14.6440 C.3    17  VAL17       0.0252
      6  CG1      -18.5890  -50.6350  -15.9660 C.3    17  VAL17       0.0019
      7  CG2      -19.5570  -50.8130  -13.6800 C.3    17  VAL17       0.0019
      8  N        -13.8860  -55.6380  -12.2050 N.3    25  VAL25      -0.1245
      9  CA       -14.0710  -54.2120  -11.9530 C.3    25  VAL25       0.1561
     10  C        -15.5180  -53.9790  -11.5290 C.2    25  VAL25       0.2260
     11  O        -16.4380  -54.5560  -12.1150 O.2    25  VAL25      -0.2867
     12  CB       -13.7410  -53.3450  -13.1840 C.3    25  VAL25       0.0252
     13  CG1      -13.7620  -51.8640  -12.8080 C.3    25  VAL25       0.0019
     14  CG2      -12.3860  -53.7300  -13.7670 C.3    25  VAL25       0.0019
     15  N        -14.3040  -46.6250   -9.6260 N.3    36  ALA36      -0.1245
     16  CA       -14.1740  -47.9750  -10.1400 C.3    36  ALA36       0.1562
     17  C        -13.2010  -48.6800   -9.2130 C.2    36  ALA36       0.2260
     18  O        -12.0980  -48.1710   -8.9720 O.2    36  ALA36      -0.2867
     19  CB       -13.6450  -47.9700  -11.5660 C.3    36  ALA36       0.0290
     20  N        -11.1310  -52.3270   -8.6890 N.3    38  LYS38      -0.1245
     21  CA       -10.6960  -53.5820   -9.3020 C.3    38  LYS38       0.1561
     22  C        -10.3050  -54.5610   -8.1930 C.2    38  LYS38       0.2260
     23  O         -9.1590  -54.5590   -7.7360 O.2    38  LYS38      -0.2867
     24  CB        -9.5280  -53.3390  -10.2690 C.3    38  LYS38       0.0271
     25  CG        -9.0400  -54.5930  -10.9880 C.3    38  LYS38       0.0035
     26  CD        -8.0930  -54.2610  -12.1330 C.3    38  LYS38       0.0206
     27  CE        -7.7320  -55.4950  -12.9520 C.3    38  LYS38       0.1093
     28  NZ        -7.0670  -55.1500  -14.2410 N.3    38  LYS38      -0.1314
     29  N          0.9010  -53.6680  -11.1100 N.3    52  GLU52      -0.1245
     30  CA        -0.1490  -52.7140  -11.4730 C.3    52  GLU52       0.1567
     31  C         -0.2630  -51.5720  -10.4620 C.2    52  GLU52       0.2260
     32  O         -0.4050  -50.4180  -10.8530 O.2    52  GLU52      -0.2867
     33  CB        -1.5000  -53.4330  -11.6080 C.3    52  GLU52       0.0388
     34  CG        -2.6300  -52.5640  -12.1460 C.3    52  GLU52       0.1160
     35  CD        -3.8670  -53.3550  -12.5590 C.2    52  GLU52       0.3649
     36  OE1       -4.1310  -54.4270  -11.9760 O.co2  52  GLU52      -0.2457
     37  OE2       -4.5960  -52.8950  -13.4650 O.co2  52  GLU52      -0.2457
     38  N          2.8830  -49.4190  -10.7110 N.3    55  GLN55      -0.1231
     39  CA         2.8090  -48.6110  -11.9430 C.3    55  GLN55       0.1698
     40  C          1.8570  -47.4250  -11.7700 C.2    55  GLN55       0.2592
     41  O          2.2910  -46.2760  -11.8330 O.2    55  GLN55      -0.2718
     42  CB         2.4080  -49.4670  -13.1530 C.3    55  GLN55       0.0381
     43  CG         3.5560  -50.3170  -13.6880 C.3    55  GLN55       0.0905
     44  CD         3.1200  -51.4790  -14.5800 C.2    55  GLN55       0.2608
     45  OE1        1.9820  -51.9570  -14.5110 O.2    55  GLN55      -0.2717
     46  NE2        4.0430  -51.9540  -15.4120 N.am   55  GLN55      -0.0878
     47  N          0.5810  -47.7170  -11.5100 N.am   56  LEU56      -0.1980
     48  CA        -0.4640  -46.6900  -11.2850 C.3    56  LEU56       0.1596
     49  C         -0.1120  -45.5980  -10.2610 C.2    56  LEU56       0.2287
     50  O         -0.6200  -44.4750  -10.3560 O.2    56  LEU56      -0.2864
     51  CB        -1.7880  -47.3420  -10.8460 C.3    56  LEU56       0.0297
     52  CG        -2.6370  -48.0840  -11.8790 C.3    56  LEU56       0.0022
     53  CD1       -3.8670  -48.6680  -11.2040 C.3    56  LEU56       0.0001
     54  CD2       -3.0540  -47.1620  -13.0080 C.3    56  LEU56       0.0001
     55  N          2.3830  -42.9580  -12.1290 N.3    59  VAL59      -0.1245
     56  CA         1.7670  -42.1200  -13.1670 C.3    59  VAL59       0.1561
     57  C          0.7890  -41.1080  -12.5750 C.2    59  VAL59       0.2260
     58  O         -0.0010  -41.4330  -11.6850 O.2    59  VAL59      -0.2867
     59  CB         1.0660  -42.9390  -14.2830 C.3    59  VAL59       0.0252
     60  CG1        2.0250  -43.9630  -14.8820 C.3    59  VAL59       0.0019
     61  CG2       -0.2230  -43.6000  -13.7950 C.3    59  VAL59       0.0019
     62  N         -4.3720  -40.2660  -18.1460 N.3    64  ILE64      -0.1231
     63  CA        -4.1220  -41.6210  -17.6590 C.3    64  ILE64       0.1692
     64  C         -4.9690  -41.7700  -16.4050 C.2    64  ILE64       0.2591
     65  O         -5.0170  -40.8660  -15.5710 O.2    64  ILE64      -0.2718
     66  CB        -2.6330  -41.8740  -17.3370 C.3    64  ILE64       0.0266
     67  CG1       -1.7420  -41.4330  -18.5030 C.3    64  ILE64       0.0019
     68  CG2       -2.3920  -43.3520  -17.0520 C.3    64  ILE64       0.0020
     69  CD1       -0.2630  -41.5380  -18.2170 C.3    64  ILE64       0.0001
     70  N         -5.6360  -42.9080  -16.2780 N.am   65  VAL65      -0.1980
     71  CA        -6.6230  -43.1000  -15.2250 C.3    65  VAL65       0.1595
     72  C         -5.9950  -42.8840  -13.8380 C.2    65  VAL65       0.2287
     73  O         -4.8550  -43.2990  -13.5900 O.2    65  VAL65      -0.2864
     74  CB        -7.3100  -44.4790  -15.3560 C.3    65  VAL65       0.0276
     75  CG1       -6.3490  -45.6190  -15.0260 C.3    65  VAL65       0.0022
     76  CG2       -8.5690  -44.5380  -14.5000 C.3    65  VAL65       0.0022
     77  N         -9.9420  -46.6320   -8.3240 N.3    79  MET79      -0.1230
     78  CA        -9.7210  -45.6220   -9.3580 C.3    79  MET79       0.1702
     79  C        -10.9280  -44.7240   -9.5680 C.2    79  MET79       0.2592
     80  O        -12.0360  -45.0580   -9.1600 O.2    79  MET79      -0.2718
     81  CB        -9.3830  -46.3030  -10.6820 C.3    79  MET79       0.0401
     82  CG        -7.9180  -46.6700  -10.8070 C.3    79  MET79       0.0596
     83  SD        -7.6990  -48.1420  -11.8050 S.3    79  MET79      -0.1393
     84  CE        -8.3980  -49.3680  -10.6990 C.3    79  MET79       0.0692
     85  N        -10.6850  -43.5870  -10.2210 N.am   80  GLU80      -0.1966
     86  CA       -11.7410  -42.6810  -10.6640 C.3    80  GLU80       0.1733
     87  C        -12.5900  -43.3880  -11.7060 C.2    80  GLU80       0.2616
     88  O        -12.0570  -43.9090  -12.6790 O.2    80  GLU80      -0.2715
     89  CB       -11.1530  -41.4020  -11.2720 C.3    80  GLU80       0.0429
     90  CG       -12.2120  -40.4840  -11.7920 C.3    80  GLU80       0.1163
     91  CD       -11.6680  -39.2490  -12.4620 C.2    80  GLU80       0.3649
     92  OE1      -10.4960  -39.1750  -12.9020 O.co2  80  GLU80      -0.2457
     93  OE2      -12.3560  -38.2370  -12.5520 O.co2  80  GLU80      -0.2457
     94  N        -13.9030  -43.4140  -11.4860 N.am   81  TYR81      -0.1960
     95  CA       -14.8310  -44.0440  -12.4160 C.3    81  TYR81       0.1771
     96  C        -14.9660  -43.1960  -13.6710 C.2    81  TYR81       0.2619
     97  O        -15.2330  -41.9920  -13.5880 O.2    81  TYR81      -0.2715
     98  CB       -16.2140  -44.2310  -11.7850 C.3    81  TYR81       0.0574
     99  CG       -17.1650  -45.0320  -12.6530 C.ar   81  TYR81      -0.0198
    100  CD1      -16.8820  -46.3580  -12.9840 C.ar   81  TYR81      -0.0009
    101  CD2      -18.3430  -44.4680  -13.1480 C.ar   81  TYR81      -0.0009
    102  CE1      -17.7380  -47.1040  -13.7800 C.ar   81  TYR81       0.0417
    103  CE2      -19.2110  -45.2080  -13.9450 C.ar   81  TYR81       0.0417
    104  CZ       -18.9010  -46.5260  -14.2590 C.ar   81  TYR81       0.1957
    105  OH       -19.7440  -47.2730  -15.0460 O.3    81  TYR81      -0.2866
    106  N        -14.7650  -43.8340  -14.8220 N.am   82  ALA82      -0.1977
    107  CA       -15.0180  -43.2210  -16.1150 C.3    82  ALA82       0.1597
    108  C        -16.4200  -43.6140  -16.5440 C.2    82  ALA82       0.2287
    109  O        -16.6660  -44.7780  -16.8710 O.2    82  ALA82      -0.2864
    110  CB       -13.9940  -43.6850  -17.1400 C.3    82  ALA82       0.0319
    111  N        -17.4340  -45.1710  -20.4920 N.3    85  GLY85      -0.1225
    112  CA       -17.0400  -46.4830  -20.9930 C.3    85  GLY85       0.1811
    113  C        -15.8480  -46.3740  -21.9260 C.2    85  GLY85       0.2280
    114  O        -15.1860  -45.3320  -21.9860 O.2    85  GLY85      -0.2866
    115  N          4.1440  -41.1790  -20.4420 N.3   119  LEU119     -0.1245
    116  CA         4.7340  -42.4760  -20.0890 C.3   119  LEU119      0.1561
    117  C          6.1530  -42.6090  -20.6410 C.2   119  LEU119      0.2260
    118  O          7.0530  -43.0690  -19.9430 O.2   119  LEU119     -0.2867
    119  CB         3.8890  -43.6400  -20.6180 C.3   119  LEU119      0.0270
    120  CG         2.4610  -43.8170  -20.1090 C.3   119  LEU119      0.0019
    121  CD1        1.8140  -44.9960  -20.8140 C.3   119  LEU119      0.0001
    122  CD2        2.4400  -44.0330  -18.6120 C.3   119  LEU119      0.0001
    123  N          8.4020  -45.7060  -19.2580 N.3   127  LEU127     -0.1231
    124  CA         7.3310  -46.7000  -19.3560 C.3   127  LEU127      0.1693
    125  C          6.8310  -46.8110  -20.7860 C.2   127  LEU127      0.2592
    126  O          6.7790  -45.8190  -21.5140 O.2   127  LEU127     -0.2718
    127  CB         6.1510  -46.3360  -18.4540 C.3   127  LEU127      0.0284
    128  CG         6.3510  -46.5230  -16.9520 C.3   127  LEU127      0.0019
    129  CD1        5.1950  -45.9250  -16.1560 C.3   127  LEU127      0.0001
    130  CD2        6.5250  -48.0000  -16.6170 C.3   127  LEU127      0.0001
    131  N          6.4530  -48.0320  -21.1580 N.am  128  ILE128     -0.1966
    132  CA         5.8950  -48.3640  -22.4620 C.3   128  ILE128      0.1727
    133  C          4.5760  -49.0780  -22.2100 C.2   128  ILE128      0.2616
    134  O          4.5410  -50.0030  -21.4070 O.2   128  ILE128     -0.2715
    135  CB         6.8250  -49.3440  -23.1980 C.3   128  ILE128      0.0290
    136  CG1        8.1820  -48.6820  -23.4800 C.3   128  ILE128      0.0022
    137  CG2        6.1740  -49.8790  -24.4760 C.3   128  ILE128      0.0023
    138  CD1        9.2870  -49.6670  -23.8060 C.3   128  ILE128      0.0001
    139  N          3.5090  -48.6760  -22.9030 N.am  129  HIS129     -0.1959
    140  CA         2.1930  -49.3050  -22.7200 C.3   129  HIS129      0.1787
    141  C          2.1140  -50.7140  -23.3140 C.2   129  HIS129      0.2620
    142  O          1.5960  -51.6280  -22.6840 O.2   129  HIS129     -0.2715
    143  CB         1.0940  -48.4400  -23.3180 C.3   129  HIS129      0.0785
    144  CG        -0.2550  -48.6900  -22.7270 C.ar  129  HIS129      0.0821
    145  ND1       -0.9630  -49.8550  -22.9350 N.ar  129  HIS129     -0.2267
    146  CD2       -1.0320  -47.9170  -21.9350 C.ar  129  HIS129      0.1154
    147  CE1       -2.1160  -49.7910  -22.2960 C.ar  129  HIS129      0.1986
    148  NE2       -2.1830  -48.6240  -21.6820 N.ar  129  HIS129     -0.2212
    149  N          2.5800  -50.8690  -24.5480 N.am  130  ARG130     -0.1977
    150  CA         2.6330  -52.1690  -25.2370 C.3   130  ARG130      0.1597
    151  C          1.2690  -52.8450  -25.4820 C.2   130  ARG130      0.2287
    152  O          1.2050  -54.0010  -25.8800 O.2   130  ARG130     -0.2864
    153  CB         3.5790  -53.1190  -24.4900 C.3   130  ARG130      0.0334
    154  CG         4.2490  -54.1640  -25.3800 C.3   130  ARG130      0.0492
    155  CD         4.6960  -55.3730  -24.5760 C.3   130  ARG130      0.2205
    156  NE         4.5600  -56.6260  -25.3120 N.pl3 130  ARG130     -0.0865
    157  CZ         3.4250  -57.3220  -25.4520 C.cat 130  ARG130      0.5346
    158  NH1        2.2680  -56.9040  -24.9300 N.pl3 130  ARG130      0.1354
    159  NH2        3.4430  -58.4590  -26.1410 N.pl3 130  ARG130      0.1354
    160  N        -10.5790  -45.0890  -22.0150 N.3   138  LEU138     -0.1245
    161  CA       -11.8350  -44.7430  -21.3630 C.3   138  LEU138      0.1561
    162  C        -12.1640  -43.2760  -21.6020 C.2   138  LEU138      0.2260
    163  O        -11.2670  -42.4500  -21.7280 O.2   138  LEU138     -0.2867
    164  CB       -11.7300  -45.0040  -19.8630 C.3   138  LEU138      0.0270
    165  CG       -11.3970  -46.4380  -19.4480 C.3   138  LEU138      0.0019
    166  CD1      -11.1750  -46.4980  -17.9470 C.3   138  LEU138      0.0001
    167  CD2      -12.4870  -47.4140  -19.8660 C.3   138  LEU138      0.0001
    168  N         -6.1030  -43.0230  -20.7480 N.3   148  ILE148     -0.1231
    169  CA        -5.4470  -44.2980  -21.0020 C.3   148  ILE148      0.1692
    170  C         -5.5250  -45.1650  -19.7450 C.2   148  ILE148      0.2592
    171  O         -5.4000  -44.6700  -18.6270 O.2   148  ILE148     -0.2718
    172  CB        -3.9700  -44.1230  -21.3880 C.3   148  ILE148      0.0266
    173  CG1       -3.8370  -43.2410  -22.6300 C.3   148  ILE148      0.0019
    174  CG2       -3.3230  -45.4760  -21.6660 C.3   148  ILE148      0.0020
    175  CD1       -2.4390  -42.6910  -22.8200 C.3   148  ILE148      0.0001
    176  N         -5.7410  -46.4590  -19.9490 N.am  149  CYS149     -0.1956
    177  CA        -5.7270  -47.4450  -18.8770 C.3   149  CYS149      0.1843
    178  C         -5.1460  -48.7430  -19.4290 C.2   149  CYS149      0.2625
    179  O         -4.6260  -48.7620  -20.5430 O.2   149  CYS149     -0.2714
    180  CB        -7.1450  -47.6360  -18.3340 C.3   149  CYS149      0.0997
    181  SG        -8.2330  -48.6840  -19.3240 S.3   149  CYS149     -0.0797
    182  N         -5.2000  -49.8120  -18.6460 N.am  150  ASP150     -0.1957
    183  CA        -4.8310  -51.1430  -19.1310 C.3   150  ASP150      0.1840
    184  C         -5.6020  -52.2030  -18.3480 C.2   150  ASP150      0.2622
    185  O         -5.2970  -52.4780  -17.1880 O.2   150  ASP150     -0.2715
    186  CB        -3.3140  -51.3740  -19.0260 C.3   150  ASP150      0.1450
    187  CG        -2.8410  -52.6250  -19.7800 C.2   150  ASP150      0.3671
    188  OD1       -3.6700  -53.3530  -20.3740 O.co2 150  ASP150     -0.2456
    189  OD2       -1.6190  -52.8860  -19.7830 O.co2 150  ASP150     -0.2456
    190  N         -6.6140  -52.7760  -18.9930 N.am  151  PHE151     -0.1974
    191  CA        -7.3640  -53.9010  -18.4330 C.3   151  PHE151      0.1639
    192  C         -6.5170  -55.1760  -18.3410 C.2   151  PHE151      0.2290
    193  O         -6.8470  -56.0700  -17.5610 O.2   151  PHE151     -0.2864
    194  CB        -8.6370  -54.1760  -19.2540 C.3   151  PHE151      0.0560
    195  CG        -9.7340  -53.1630  -19.0450 C.ar  151  PHE151     -0.0200
    196  CD1      -10.5420  -53.2220  -17.9160 C.ar  151  PHE151     -0.0042
    197  CD2       -9.9740  -52.1610  -19.9800 C.ar  151  PHE151     -0.0042
    198  CE1      -11.5610  -52.3030  -17.7190 C.ar  151  PHE151     -0.0003
    199  CE2      -10.9910  -51.2370  -19.7880 C.ar  151  PHE151     -0.0003
    200  CZ       -11.7870  -51.3080  -18.6570 C.ar  151  PHE151     -0.0000
    201  N         11.4860  -55.0110  -28.9100 N.3   171  TYR171     -0.1241
    202  CA        10.6320  -53.8490  -29.1660 C.3   171  TYR171      0.1605
    203  C         11.1320  -52.6560  -28.3450 C.2   171  TYR171      0.2264
    204  O         12.0110  -52.8000  -27.4950 O.2   171  TYR171     -0.2867
    205  CB         9.1520  -54.1600  -28.8780 C.3   171  TYR171      0.0534
    206  CG         8.8080  -54.4200  -27.4270 C.ar  171  TYR171     -0.0201
    207  CD1        8.7100  -53.3700  -26.5110 C.ar  171  TYR171     -0.0009
    208  CD2        8.5570  -55.7120  -26.9720 C.ar  171  TYR171     -0.0009
    209  CE1        8.3930  -53.5990  -25.1850 C.ar  171  TYR171      0.0417
    210  CE2        8.2330  -55.9520  -25.6430 C.ar  171  TYR171      0.0417
    211  CZ         8.1590  -54.8910  -24.7520 C.ar  171  TYR171      0.1957
    212  OH         7.8410  -55.1080  -23.4280 O.3   171  TYR171     -0.2866
@<TRIPOS>BOND
     1   202   201    1
     2   202   205    1
     3   202   203    1
     4   205   206    1
     5   203   204    2
     6   206   208   ar
     7   206   207   ar
     8   208   210   ar
     9   207   209   ar
    10   159   157    1
    11   152   151    2
    12   210   211   ar
    13   151   150    1
    14   157   156    2
    15   157   158    1
    16   154   155    1
    17   154   153    1
    18   156   155    1
    19   150   149    1
    20   150   153    1
    21   209   211   ar
    22   211   212    1
    23   149   141   am
    24   137   135    1
    25   138   136    1
    26   136   135    1
    27   143   144    1
    28   143   140    1
    29   141   140    1
    30   141   142    2
    31   135   132    1
    32   145   144   ar
    33   145   147   ar
    34   139   140    1
    35   139   133   am
    36   175   173    1
    37   144   146   ar
    38   173   172    1
    39   132   133    1
    40   132   131    1
    41   147   148   ar
    42   133   134    2
    43   160   161    1
    44   114   113    2
    45   146   148   ar
    46   113   112    1
    47   163   162    2
    48   174   172    1
    49   162   161    1
    50   126   125    2
    51   172   169    1
    52   161   164    1
    53   131   125   am
    54   169   168    1
    55   169   170    1
    56   112   111    1
    57   121   120    1
    58   125   124    1
    59   117   116    1
    60   117   118    2
    61   119   120    1
    62   119   116    1
    63   179   178    2
    64   115   116    1
    65   188   187   ar
    66   120   122    1
    67   197   199   ar
    68   197   195   ar
    69   176   170   am
    70   176   177    1
    71   167   165    1
    72   164   165    1
    73   199   200   ar
    74   189   187   ar
    75   187   186    1
    76   170   171    2
    77   165   166    1
    78   178   177    1
    79   178   182   am
    80   124   123    1
    81   124   127    1
    82   181   180    1
    83   194   195    1
    84   194   191    1
    85   183   186    1
    86   183   182    1
    87   183   184    1
    88   195   196   ar
    89   190   191    1
    90   190   184   am
    91   177   180    1
    92   200   198   ar
    93    67    69    1
    94    67    66    1
    95   127   128    1
    96   191   192    1
    97   184   185    2
    98   192   193    2
    99    62    63    1
   100   196   198   ar
   101    63    66    1
   102    63    64    1
   103    66    68    1
   104   110   107    1
   105   128   130    1
   106   128   129    1
   107   109   108    2
   108   108   107    1
   109    64    70   am
   110    64    65    2
   111    70    71    1
   112   107   106    1
   113     6     5    1
   114     4     3    2
   115     3     2    1
   116    46    44   am
   117    74    71    1
   118    74    75    1
   119    74    76    1
   120    71    72    1
   121   105   104    1
   122    60    59    1
   123     2     5    1
   124     2     1    1
   125   106    96   am
   126     5     7    1
   127    44    45    2
   128    44    43    1
   129    59    61    1
   130    59    56    1
   131   104   103   ar
   132   104   102   ar
   133    28    27    1
   134   103   101   ar
   135    72    73    2
   136   102   100   ar
   137    14    12    1
   138    43    42    1
   139    96    97    2
   140    96    95    1
   141    37    35   ar
   142    12    13    1
   143    12     9    1
   144    56    57    1
   145    56    55    1
   146    42    39    1
   147   101    99   ar
   148    54    52    1
   149   100    99   ar
   150    27    26    1
   151    92    91   ar
   152    88    87    2
   153    99    98    1
   154    57    58    2
   155    35    34    1
   156    35    36   ar
   157    93    91   ar
   158    91    90    1
   159    95    98    1
   160    95    94    1
   161     8     9    1
   162    34    33    1
   163    26    25    1
   164    11    10    2
   165     9    10    1
   166    39    40    1
   167    39    38    1
   168    52    53    1
   169    52    51    1
   170    41    40    2
   171    83    82    1
   172    83    84    1
   173    90    89    1
   174    40    47   am
   175    87    94   am
   176    87    86    1
   177    33    30    1
   178    19    16    1
   179    47    48    1
   180    30    29    1
   181    30    31    1
   182    48    51    1
   183    48    49    1
   184    89    86    1
   185    25    24    1
   186    32    31    2
   187    82    81    1
   188    81    78    1
   189    86    85    1
   190    50    49    2
   191    24    21    1
   192    85    79   am
   193    16    15    1
   194    16    17    1
   195    79    78    1
   196    79    80    2
   197    78    77    1
   198    21    20    1
   199    21    22    1
   200    17    18    2
   201    22    23    2
