@<TRIPOS>MOLECULE
tmp/5gjgA00.pdb
 216 204 0 0 0
SMALL
GASTEIGER

@<TRIPOS>ATOM
      1  N        -22.3160  -51.0150   -9.5730 N.3    15  GLU15      -0.1245
      2  CA       -22.2840  -51.9270  -10.7560 C.3    15  GLU15       0.1567
      3  C        -20.9020  -52.4350  -11.2550 C.2    15  GLU15       0.2260
      4  O        -19.8640  -51.7580  -11.0810 O.2    15  GLU15      -0.2867
      5  CB       -23.0040  -51.2200  -11.9290 C.3    15  GLU15       0.0388
      6  CG       -22.2800  -49.9470  -12.3940 C.3    15  GLU15       0.1160
      7  CD       -23.1740  -48.7880  -12.8600 C.2    15  GLU15       0.3649
      8  OE1      -23.3400  -47.8100  -12.0780 O.co2  15  GLU15      -0.2457
      9  OE2      -23.6580  -48.8260  -14.0240 O.co2  15  GLU15      -0.2457
     10  N        -18.7000  -52.6070  -14.5430 N.3    17  VAL17      -0.1231
     11  CA       -18.6400  -51.8280  -15.8110 C.3    17  VAL17       0.1692
     12  C        -17.9110  -52.5030  -16.9990 C.2    17  VAL17       0.2592
     13  O        -18.0170  -52.0200  -18.1310 O.2    17  VAL17      -0.2718
     14  CB       -18.0080  -50.4250  -15.6040 C.3    17  VAL17       0.0266
     15  CG1      -18.8980  -49.5160  -14.7700 C.3    17  VAL17       0.0020
     16  CG2      -16.6110  -50.5130  -15.0090 C.3    17  VAL17       0.0020
     17  N        -17.1600  -53.5780  -16.7400 N.am   18  GLY18      -0.1957
     18  CA       -16.4020  -54.2920  -17.7610 C.3    18  GLY18       0.1869
     19  C        -15.7790  -55.5570  -17.1820 C.2    18  GLY18       0.2309
     20  O        -15.0230  -55.4920  -16.2240 O.2    18  GLY18      -0.2863
     21  N         -8.3920  -58.4830  -18.8090 N.3    22  PHE22      -0.1241
     22  CA        -7.9340  -57.7100  -17.6160 C.3    22  PHE22       0.1605
     23  C         -8.4390  -58.2210  -16.2440 C.2    22  PHE22       0.2264
     24  O         -7.7080  -58.1260  -15.2470 O.2    22  PHE22      -0.2867
     25  CB        -8.2720  -56.1980  -17.7840 C.3    22  PHE22       0.0534
     26  CG        -9.6820  -55.9340  -18.2740 C.ar   22  PHE22      -0.0203
     27  CD1      -10.7590  -55.9430  -17.3890 C.ar   22  PHE22      -0.0042
     28  CD2       -9.9400  -55.7090  -19.6300 C.ar   22  PHE22      -0.0042
     29  CE1      -12.0590  -55.7250  -17.8420 C.ar   22  PHE22      -0.0003
     30  CE2      -11.2340  -55.4910  -20.0880 C.ar   22  PHE22      -0.0003
     31  CZ       -12.2960  -55.4970  -19.1920 C.ar   22  PHE22      -0.0000
     32  N        -13.9200  -55.0410  -13.5570 N.3    25  VAL25      -0.1245
     33  CA       -13.8410  -53.6420  -13.1760 C.3    25  VAL25       0.1561
     34  C        -15.2250  -53.1280  -12.7910 C.2    25  VAL25       0.2260
     35  O        -16.2230  -53.5300  -13.4200 O.2    25  VAL25      -0.2867
     36  CB       -13.2520  -52.8010  -14.3290 C.3    25  VAL25       0.0252
     37  CG1      -13.1200  -51.3290  -13.9370 C.3    25  VAL25       0.0019
     38  CG2      -11.8940  -53.3630  -14.7610 C.3    25  VAL25       0.0019
     39  N        -13.1190  -46.3330  -10.1820 N.3    36  ALA36      -0.1245
     40  CA       -13.1950  -47.6190  -10.7970 C.3    36  ALA36       0.1562
     41  C        -12.2400  -48.4520  -10.0100 C.2    36  ALA36       0.2260
     42  O        -11.1280  -47.9860   -9.6960 O.2    36  ALA36      -0.2867
     43  CB       -12.7200  -47.5380  -12.2180 C.3    36  ALA36       0.0290
     44  N        -10.4740  -52.4980   -9.8390 N.3    38  LYS38      -0.1245
     45  CA       -10.2200  -53.7210  -10.5230 C.3    38  LYS38       0.1561
     46  C         -9.4990  -54.6130   -9.5650 C.2    38  LYS38       0.2260
     47  O         -8.3820  -54.3060   -9.1360 O.2    38  LYS38      -0.2867
     48  CB        -9.3300  -53.4220  -11.7210 C.3    38  LYS38       0.0271
     49  CG        -8.7800  -54.6190  -12.4960 C.3    38  LYS38       0.0035
     50  CD        -7.5600  -54.1840  -13.2990 C.3    38  LYS38       0.0206
     51  CE        -6.7410  -55.3500  -13.8020 C.3    38  LYS38       0.1093
     52  NZ        -5.3440  -54.8870  -13.9950 N.3    38  LYS38      -0.1314
     53  N          0.1610  -60.5320  -12.0170 N.3    45  GLU45      -0.1245
     54  CA         0.0530  -59.0510  -12.1550 C.3    45  GLU45       0.1567
     55  C          0.3110  -58.3790  -10.8010 C.2    45  GLU45       0.2260
     56  O          0.9380  -57.2980  -10.7560 O.2    45  GLU45      -0.2867
     57  CB        -1.3080  -58.6050  -12.7410 C.3    45  GLU45       0.0388
     58  CG        -1.4810  -57.1090  -12.9060 C.3    45  GLU45       0.1160
     59  CD        -0.7680  -56.5500  -14.1200 C.2    45  GLU45       0.3649
     60  OE1       -0.0830  -57.3160  -14.8300 O.co2  45  GLU45      -0.2457
     61  OE2       -0.8950  -55.3330  -14.3730 O.co2  45  GLU45      -0.2457
     62  N          3.0570  -55.0320  -10.9920 N.3    49  PHE49      -0.1241
     63  CA         2.6250  -53.8190  -10.3170 C.3    49  PHE49       0.1605
     64  C          3.6280  -53.4000   -9.2310 C.2    49  PHE49       0.2264
     65  O          4.0130  -52.2260   -9.1380 O.2    49  PHE49      -0.2867
     66  CB         1.2660  -54.0710   -9.6660 C.3    49  PHE49       0.0534
     67  CG         0.8140  -52.9470   -8.8040 C.ar   49  PHE49      -0.0203
     68  CD1        0.4210  -51.7450   -9.3820 C.ar   49  PHE49      -0.0042
     69  CD2        0.8280  -53.0600   -7.4140 C.ar   49  PHE49      -0.0042
     70  CE1        0.0280  -50.6770   -8.5960 C.ar   49  PHE49      -0.0003
     71  CE2        0.4350  -51.9960   -6.6230 C.ar   49  PHE49      -0.0003
     72  CZ         0.0290  -50.8070   -7.2150 C.ar   49  PHE49      -0.0000
     73  N          4.8400  -46.1950  -11.5470 N.3    56  LEU56      -0.1245
     74  CA         3.3790  -45.9120  -11.4380 C.3    56  LEU56       0.1561
     75  C          3.0670  -44.7330  -10.5300 C.2    56  LEU56       0.2260
     76  O          2.1780  -43.9440  -10.8110 O.2    56  LEU56      -0.2867
     77  CB         2.6110  -47.1170  -10.9110 C.3    56  LEU56       0.0270
     78  CG         2.9520  -48.4390  -11.5870 C.3    56  LEU56       0.0019
     79  CD1        2.0510  -49.5310  -11.0460 C.3    56  LEU56       0.0001
     80  CD2        2.9050  -48.3080  -13.1130 C.3    56  LEU56       0.0001
     81  N         -5.1950  -42.1070  -16.9230 N.3    65  VAL65      -0.1245
     82  CA        -6.0850  -42.3410  -15.8150 C.3    65  VAL65       0.1561
     83  C         -5.2990  -42.2540  -14.5440 C.2    65  VAL65       0.2260
     84  O         -4.2690  -42.9030  -14.4330 O.2    65  VAL65      -0.2867
     85  CB        -6.6540  -43.7580  -15.9740 C.3    65  VAL65       0.0252
     86  CG1       -7.2000  -44.3110  -14.6820 C.3    65  VAL65       0.0019
     87  CG2       -7.7430  -43.7110  -17.0240 C.3    65  VAL65       0.0019
     88  N         -4.1140  -43.1520  -11.0370 N.3    67  LEU67      -0.1245
     89  CA        -4.0240  -44.3140  -10.1540 C.3    67  LEU67       0.1561
     90  C         -3.9390  -43.7990   -8.7030 C.2    67  LEU67       0.2260
     91  O         -2.8940  -43.2690   -8.3100 O.2    67  LEU67      -0.2867
     92  CB        -2.7900  -45.1410  -10.5170 C.3    67  LEU67       0.0270
     93  CG        -2.5460  -46.4090   -9.6840 C.3    67  LEU67       0.0019
     94  CD1       -3.7280  -47.3870   -9.6970 C.3    67  LEU67       0.0001
     95  CD2       -1.2680  -47.0730  -10.1790 C.3    67  LEU67       0.0001
     96  N         -6.5730  -52.4180   -7.3890 N.3    77  LEU77      -0.1245
     97  CA        -6.2090  -51.0700   -7.8140 C.3    77  LEU77       0.1561
     98  C         -7.4060  -50.1530   -7.7220 C.2    77  LEU77       0.2260
     99  O         -8.5450  -50.5580   -7.9580 O.2    77  LEU77      -0.2867
    100  CB        -5.7160  -51.0810   -9.2540 C.3    77  LEU77       0.0270
    101  CG        -4.4870  -51.9320   -9.5740 C.3    77  LEU77       0.0019
    102  CD1       -4.4670  -52.2680  -11.0560 C.3    77  LEU77       0.0001
    103  CD2       -3.1940  -51.2380   -9.1780 C.3    77  LEU77       0.0001
    104  N         -8.7300  -46.4010   -9.0300 N.3    79  MET79      -0.1230
    105  CA        -8.4640  -45.6210  -10.2030 C.3    79  MET79       0.1702
    106  C         -9.5490  -44.6310  -10.4720 C.2    79  MET79       0.2592
    107  O        -10.7040  -44.8190  -10.0640 O.2    79  MET79      -0.2718
    108  CB        -8.3580  -46.5640  -11.3750 C.3    79  MET79       0.0401
    109  CG        -6.9570  -47.1130  -11.4670 C.3    79  MET79       0.0596
    110  SD        -6.7440  -48.5090  -12.5520 S.3    79  MET79      -0.1393
    111  CE        -8.1650  -49.5270  -12.0850 C.3    79  MET79       0.0692
    112  N         -9.1430  -43.5790  -11.1830 N.am   80  GLU80      -0.1966
    113  CA       -10.0540  -42.5890  -11.7420 C.3    80  GLU80       0.1733
    114  C        -11.1250  -43.2860  -12.5860 C.2    80  GLU80       0.2616
    115  O        -10.8010  -44.1200  -13.4440 O.2    80  GLU80      -0.2715
    116  CB        -9.2590  -41.5820  -12.5870 C.3    80  GLU80       0.0429
    117  CG       -10.1150  -40.5640  -13.3300 C.3    80  GLU80       0.1163
    118  CD        -9.3040  -39.5750  -14.1610 C.2    80  GLU80       0.3649
    119  OE1       -8.0440  -39.7260  -14.2810 O.co2  80  GLU80      -0.2457
    120  OE2       -9.9740  -38.6480  -14.6960 O.co2  80  GLU80      -0.2457
    121  N        -12.3840  -42.9730  -12.2930 N.am   81  TYR81      -0.1960
    122  CA       -13.5180  -43.4350  -13.0760 C.3    81  TYR81       0.1771
    123  C        -13.7450  -42.5940  -14.3380 C.2    81  TYR81       0.2619
    124  O        -13.8560  -41.3640  -14.2900 O.2    81  TYR81      -0.2715
    125  CB       -14.7940  -43.3800  -12.2310 C.3    81  TYR81       0.0574
    126  CG       -15.9750  -44.0030  -12.9190 C.ar   81  TYR81      -0.0198
    127  CD1      -15.9610  -45.3590  -13.2800 C.ar   81  TYR81      -0.0009
    128  CD2      -17.1090  -43.2490  -13.2340 C.ar   81  TYR81      -0.0009
    129  CE1      -17.0500  -45.9620  -13.9090 C.ar   81  TYR81       0.0417
    130  CE2      -18.2060  -43.8380  -13.8710 C.ar   81  TYR81       0.0417
    131  CZ       -18.1690  -45.1970  -14.2070 C.ar   81  TYR81       0.1957
    132  OH       -19.2470  -45.7830  -14.8550 O.3    81  TYR81      -0.2866
    133  N        -13.9000  -43.2650  -15.4650 N.am   82  ALA82      -0.1963
    134  CA       -14.2190  -42.5560  -16.7120 C.3    82  ALA82       0.1728
    135  C        -15.6470  -42.8850  -17.1410 C.2    82  ALA82       0.2616
    136  O        -15.9060  -43.9500  -17.7080 O.2    82  ALA82      -0.2715
    137  CB       -13.2170  -42.9040  -17.8030 C.3    82  ALA82       0.0334
    138  N        -16.5550  -41.9560  -16.8350 N.am   83  GLU83      -0.1963
    139  CA       -17.9870  -42.1070  -17.1230 C.3    83  GLU83       0.1733
    140  C        -18.2770  -42.5060  -18.5880 C.2    83  GLU83       0.2617
    141  O        -19.0870  -43.3840  -18.8380 O.2    83  GLU83      -0.2715
    142  CB       -18.8220  -40.8810  -16.6110 C.3    83  GLU83       0.0429
    143  CG       -18.7190  -39.5150  -17.3040 C.3    83  GLU83       0.1163
    144  CD       -17.5130  -38.6310  -16.8730 C.2    83  GLU83       0.3649
    145  OE1      -17.4610  -37.4240  -17.3490 O.co2  83  GLU83      -0.2457
    146  OE2      -16.6070  -39.1330  -16.0910 O.co2  83  GLU83      -0.2457
    147  N        -17.5390  -41.9350  -19.5310 N.am   84  GLY84      -0.1940
    148  CA       -17.6530  -42.2780  -20.9530 C.3    84  GLY84       0.2014
    149  C        -17.3390  -43.6810  -21.4730 C.2    84  GLY84       0.2639
    150  O        -17.7150  -44.0070  -22.6230 O.2    84  GLY84      -0.2714
    151  N        -16.6450  -44.5100  -20.6880 N.am   85  GLY85      -0.1939
    152  CA       -16.2290  -45.8480  -21.1490 C.3    85  GLY85       0.2014
    153  C        -15.1860  -45.8460  -22.2730 C.2    85  GLY85       0.2639
    154  O        -14.5160  -44.8360  -22.4980 O.2    85  GLY85      -0.2714
    155  N        -15.0530  -46.9610  -23.0010 N.am   86  SER86      -0.1949
    156  CA       -13.9670  -47.0770  -23.9470 C.3    86  SER86       0.1924
    157  C        -14.2060  -46.3780  -25.3050 C.2    86  SER86       0.2314
    158  O        -15.3060  -46.2750  -25.8010 O.2    86  SER86      -0.2863
    159  CB       -13.6260  -48.5360  -24.1800 C.3    86  SER86       0.2116
    160  OG       -14.4820  -49.1140  -25.1250 O.3    86  SER86      -0.2180
    161  N        -15.8200  -48.8920  -27.6580 N.3    89  ASN89      -0.1240
    162  CA       -17.2210  -48.8560  -27.4980 C.3    89  ASN89       0.1653
    163  C        -17.9270  -47.7130  -28.1540 C.2    89  ASN89       0.2266
    164  O        -18.9820  -47.9090  -28.7270 O.2    89  ASN89      -0.2867
    165  CB       -17.5240  -48.7480  -26.0300 C.3    89  ASN89       0.1155
    166  CG       -18.5980  -49.6500  -25.6590 C.2    89  ASN89       0.2627
    167  OD1      -19.7200  -49.2030  -25.4030 O.2    89  ASN89      -0.2716
    168  ND2      -18.3010  -50.9610  -25.7390 N.am   89  ASN89      -0.0877
    169  N         -9.8020  -50.1970  -26.9180 N.3   135  PRO135     -0.2102
    170  CA       -10.3850  -50.6700  -25.6530 C.3   135  PRO135      0.1504
    171  C         -9.6820  -50.1790  -24.3980 C.2   135  PRO135      0.2575
    172  O        -10.2950  -50.1990  -23.3480 O.2   135  PRO135     -0.2718
    173  CB       -10.3050  -52.1600  -25.7660 C.3   135  PRO135      0.0282
    174  CG       -10.3280  -52.4430  -27.2420 C.3   135  PRO135      0.0208
    175  CD        -9.4480  -51.3320  -27.7830 C.3   135  PRO135      0.0893
    176  N         -8.4700  -49.6420  -24.5070 N.am  136  ASN136     -0.1975
    177  CA        -7.7950  -49.0660  -23.3460 C.3   136  ASN136      0.1688
    178  C         -7.8230  -47.5830  -23.3410 C.2   136  ASN136      0.2292
    179  O         -7.0770  -46.9610  -22.5970 O.2   136  ASN136     -0.2864
    180  CB        -6.3400  -49.4370  -23.3780 C.3   136  ASN136      0.1181
    181  CG        -6.1370  -50.9100  -23.4460 C.2   136  ASN136      0.2629
    182  OD1       -6.9510  -51.6820  -22.9540 O.2   136  ASN136     -0.2716
    183  ND2       -5.0450  -51.3170  -24.0540 N.am  136  ASN136     -0.0877
    184  N        -10.1400  -44.4140  -22.7070 N.3   138  LEU138     -0.1245
    185  CA       -11.3770  -44.1310  -22.0540 C.3   138  LEU138      0.1561
    186  C        -11.6700  -42.6680  -22.2190 C.2   138  LEU138      0.2260
    187  O        -10.7690  -41.8350  -22.3430 O.2   138  LEU138     -0.2867
    188  CB       -11.2520  -44.4500  -20.5550 C.3   138  LEU138      0.0270
    189  CG       -10.7900  -45.8630  -20.1390 C.3   138  LEU138      0.0019
    190  CD1      -10.9260  -46.1230  -18.6390 C.3   138  LEU138      0.0001
    191  CD2      -11.5760  -46.9210  -20.8280 C.3   138  LEU138      0.0001
    192  N         -5.7700  -45.9490  -20.0540 N.3   149  CYS149     -0.1221
    193  CA        -5.5350  -46.8140  -18.8910 C.3   149  CYS149      0.1808
    194  C         -4.7240  -48.0230  -19.3190 C.2   149  CYS149      0.2601
    195  O         -4.4610  -48.2540  -20.5280 O.2   149  CYS149     -0.2717
    196  CB        -6.8390  -47.2630  -18.2620 C.3   149  CYS149      0.0970
    197  SG        -7.7830  -48.3060  -19.3620 S.3   149  CYS149     -0.0800
    198  N         -4.3140  -48.7790  -18.3080 N.am  150  ASP150     -0.1959
    199  CA        -3.5320  -50.0350  -18.4590 C.3   150  ASP150      0.1840
    200  C         -2.1270  -49.7470  -18.9780 C.2   150  ASP150      0.2622
    201  O         -1.5820  -50.5110  -19.7850 O.2   150  ASP150     -0.2715
    202  CB        -4.2600  -51.1080  -19.3000 C.3   150  ASP150      0.1450
    203  CG        -3.9850  -52.5310  -18.7990 C.2   150  ASP150      0.3671
    204  OD1       -2.8070  -52.8550  -18.5300 O.co2 150  ASP150     -0.2456
    205  OD2       -4.9490  -53.3240  -18.6580 O.co2 150  ASP150     -0.2456
    206  N         -1.5780  -48.6200  -18.5050 N.am  151  PHE151     -0.1974
    207  CA        -0.1600  -48.3160  -18.6230 C.3   151  PHE151      0.1639
    208  C          0.5970  -49.1810  -17.6400 C.2   151  PHE151      0.2290
    209  O          1.7760  -48.9640  -17.4500 O.2   151  PHE151     -0.2864
    210  CB         0.1500  -46.8220  -18.3840 C.3   151  PHE151      0.0560
    211  CG        -0.2210  -46.3030  -17.0110 C.ar  151  PHE151     -0.0200
    212  CD1        0.6870  -46.3340  -15.9660 C.ar  151  PHE151     -0.0042
    213  CD2       -1.4820  -45.7340  -16.7660 C.ar  151  PHE151     -0.0042
    214  CE1        0.3390  -45.8480  -14.6920 C.ar  151  PHE151     -0.0003
    215  CE2       -1.8310  -45.2390  -15.4970 C.ar  151  PHE151     -0.0003
    216  CZ        -0.9140  -45.2910  -14.4550 C.ar  151  PHE151     -0.0000
@<TRIPOS>BOND
     1   164   163    2
     2   163   162    1
     3   175   174    1
     4   175   169    1
     5   161   162    1
     6   162   165    1
     7   174   173    1
     8   169   170    1
     9   165   166    1
    10   158   157    2
    11   173   170    1
    12   168   166   am
    13   166   167    2
    14   170   171    1
    15   157   156    1
    16   160   159    1
    17   176   171   am
    18   176   177    1
    19   171   172    2
    20   159   156    1
    21   183   181   am
    22   156   155    1
    23   181   180    1
    24   181   182    2
    25   180   177    1
    26   177   178    1
    27   178   179    2
    28   155   153   am
    29   184   185    1
    30   150   149    2
    31   154   153    2
    32   187   186    2
    33   153   152    1
    34   186   185    1
    35   185   188    1
    36   149   148    1
    37   149   151   am
    38   152   151    1
    39   148   147    1
    40   191   189    1
    41   188   189    1
    42   195   194    2
    43   189   190    1
    44    30    28   ar
    45    30    31   ar
    46   192   193    1
    47   201   200    2
    48    28    26   ar
    49   147   140   am
    50   197   196    1
    51   194   193    1
    52   194   198   am
    53   202   203    1
    54   202   199    1
    55    31    29   ar
    56   200   206   am
    57   200   199    1
    58   193   196    1
    59   141   140    2
    60    21    22    1
    61   203   205   ar
    62   203   204   ar
    63   207   206    1
    64   207   210    1
    65   207   208    1
    66   140   139    1
    67   199   198    1
    68   210   211    1
    69    26    25    1
    70    26    27   ar
    71    13    12    2
    72    29    27   ar
    73   137   134    1
    74    25    22    1
    75    18    19    1
    76    18    17    1
    77   136   135    2
    78   208   209    2
    79    22    23    1
    80   145   144   ar
    81   143   144    1
    82   143   142    1
    83    19    20    2
    84   135   138   am
    85   135   134    1
    86   139   138    1
    87   139   142    1
    88    87    85    1
    89   211   213   ar
    90   211   212   ar
    91    12    17   am
    92    12    11    1
    93    81    82    1
    94   144   146   ar
    95   213   215   ar
    96   134   133    1
    97    23    24    2
    98    85    82    1
    99    85    86    1
   100   212   214   ar
   101    82    83    1
   102    11    14    1
   103    11    10    1
   104    14    16    1
   105    14    15    1
   106   215   216   ar
   107   133   123   am
   108   132   131    1
   109    60    59   ar
   110    38    36    1
   111   120   118   ar
   112   214   216   ar
   113    83    84    2
   114    61    59   ar
   115   123   124    2
   116   123   122    1
   117    36    37    1
   118    36    33    1
   119   119   118   ar
   120   131   129   ar
   121   131   130   ar
   122   118   117    1
   123    59    58    1
   124     9     7   ar
   125    52    51    1
   126   129   127   ar
   127   130   128   ar
   128    51    50    1
   129    32    33    1
   130   115   114    2
   131    35    34    2
   132   117   116    1
   133    50    49    1
   134   127   126   ar
   135   128   126   ar
   136    33    34    1
   137    80    78    1
   138   122   121    1
   139   122   125    1
   140   126   125    1
   141    58    57    1
   142     7     6    1
   143     7     8   ar
   144    57    54    1
   145   116   113    1
   146   114   121   am
   147   114   113    1
   148   110   111    1
   149   110   109    1
   150    49    48    1
   151     6     5    1
   152    43    40    1
   153    54    53    1
   154    54    55    1
   155     5     2    1
   156   113   112    1
   157    48    45    1
   158    78    79    1
   159    78    77    1
   160    73    74    1
   161   109   108    1
   162    74    77    1
   163    74    75    1
   164   108   105    1
   165     3     4    2
   166     3     2    1
   167   112   106   am
   168   102   101    1
   169    88    89    1
   170    62    63    1
   171    76    75    2
   172    55    56    2
   173    40    39    1
   174    40    41    1
   175     2     1    1
   176    45    44    1
   177    45    46    1
   178    92    89    1
   179    92    93    1
   180   106   105    1
   181   106   107    2
   182    63    66    1
   183    63    64    1
   184   105   104    1
   185    95    93    1
   186    89    90    1
   187    41    42    2
   188    94    93    1
   189    66    67    1
   190   101   100    1
   191   101   103    1
   192    46    47    2
   193    68    67   ar
   194    68    70   ar
   195   100    97    1
   196    64    65    2
   197    67    69   ar
   198    90    91    2
   199    70    72   ar
   200    99    98    2
   201    97    98    1
   202    97    96    1
   203    69    71   ar
   204    72    71   ar
