@<TRIPOS>MOLECULE
tmp/5gjiA00.pdb
 152 145 0 0 0
SMALL
GASTEIGER

@<TRIPOS>ATOM
      1  N          1.6340  -12.8560   -0.1850 N.3    17  ARG17      -0.1245
      2  CA         1.6100  -12.2520   -1.5040 C.3    17  ARG17       0.1563
      3  C          0.5360  -12.9140   -2.3960 C.2    17  ARG17       0.2260
      4  O         -0.1550  -12.2260   -3.1570 O.2    17  ARG17      -0.2867
      5  CB         2.9990  -12.3410   -2.1430 C.3    17  ARG17       0.0307
      6  CG         3.0880  -11.6830   -3.5060 C.3    17  ARG17       0.0489
      7  CD         4.4710  -11.8290   -4.1250 C.3    17  ARG17       0.2205
      8  NE         5.5140  -11.1710   -3.3390 N.pl3  17  ARG17      -0.0865
      9  CZ         6.7180  -10.8620   -3.8150 C.cat  17  ARG17       0.5346
     10  NH1        7.0140  -11.1460   -5.0730 N.pl3  17  ARG17       0.1354
     11  NH2        7.6210  -10.2550   -3.0440 N.pl3  17  ARG17       0.1354
     12  N         -0.2290   -5.2560    3.7790 N.3    35  ARG35      -0.1245
     13  CA        -0.0160   -6.4610    4.5780 C.3    35  ARG35       0.1563
     14  C          1.3020   -6.3510    5.3210 C.2    35  ARG35       0.2260
     15  O          2.1140   -5.4670    5.0620 O.2    35  ARG35      -0.2867
     16  CB        -0.0240   -7.7220    3.7050 C.3    35  ARG35       0.0307
     17  CG         1.0390   -7.7210    2.6170 C.3    35  ARG35       0.0489
     18  CD         1.2360   -9.1150    2.0040 C.3    35  ARG35       0.2205
     19  NE         2.0470   -9.0330    0.7950 N.pl3  35  ARG35      -0.0865
     20  CZ         3.3760   -8.9800    0.7770 C.cat  35  ARG35       0.5346
     21  NH1        4.0070   -8.8650   -0.3870 N.pl3  35  ARG35       0.1354
     22  NH2        4.0790   -9.0420    1.9020 N.pl3  35  ARG35       0.1354
     23  N          5.0820   -7.1440    6.0530 N.3    37  ALA37      -0.1231
     24  CA         6.2060   -7.5050    5.1930 C.3    37  ALA37       0.1694
     25  C          6.5440   -8.9900    5.3600 C.2    37  ALA37       0.2593
     26  O          6.4040   -9.5510    6.4510 O.2    37  ALA37      -0.2718
     27  CB         7.4190   -6.6340    5.4950 C.3    37  ALA37       0.0304
     28  N          7.0070   -9.6150    4.2810 N.am   38  SER38      -0.1938
     29  CA         7.2030  -11.0620    4.2630 C.3    38  SER38       0.2055
     30  C          8.3210  -11.5040    5.2040 C.2    38  SER38       0.2643
     31  O          8.3470  -12.6450    5.6500 O.2    38  SER38      -0.2714
     32  CB         7.5140  -11.5420    2.8480 C.3    38  SER38       0.2130
     33  OG         8.8110  -11.1300    2.4670 O.3    38  SER38      -0.2179
     34  N          9.2430  -10.5830    5.4820 N.am   39  THR39      -0.1950
     35  CA        10.3930  -10.7710    6.3650 C.3    39  THR39       0.1897
     36  C         10.0000  -10.7460    7.8310 C.2    39  THR39       0.2313
     37  O         10.7600  -11.1880    8.6980 O.2    39  THR39      -0.2863
     38  CB        11.4250   -9.6470    6.1770 C.3    39  THR39       0.1794
     39  OG1       10.8440   -8.4110    6.6160 O.3    39  THR39      -0.2208
     40  CG2       11.8380   -9.5200    4.7240 C.3    39  THR39       0.0378
     41  N          4.0550   -3.8500    3.7630 N.3    46  THR46      -0.1218
     42  CA         4.1480   -3.8440    2.3120 C.3    46  THR46       0.1862
     43  C          2.8230   -3.3770    1.7250 C.2    46  THR46       0.2287
     44  O          1.7660   -3.9640    1.9940 O.2    46  THR46      -0.2866
     45  CB         4.5050   -5.2210    1.7660 C.3    46  THR46       0.1770
     46  OG1        5.7760   -5.5470    2.3250 O.3    46  THR46      -0.2211
     47  CG2        4.5480   -5.2030    0.2450 C.3    46  THR46       0.0375
     48  N          1.8580   -3.7540   -8.0040 N.3    56  LYS56      -0.1231
     49  CA         3.1240   -3.0940   -7.7000 C.3    56  LYS56       0.1693
     50  C          3.3950   -3.1890   -6.2030 C.2    56  LYS56       0.2592
     51  O          2.5650   -2.7660   -5.3920 O.2    56  LYS56      -0.2718
     52  CB         3.0770   -1.6310   -8.1480 C.3    56  LYS56       0.0285
     53  CG         2.5720   -1.3950   -9.5750 C.3    56  LYS56       0.0035
     54  CD         3.4220   -2.0940  -10.6490 C.3    56  LYS56       0.0206
     55  CE         2.8750   -1.7840  -12.0240 C.3    56  LYS56       0.1093
     56  NZ         3.7090   -2.3750  -13.1010 N.3    56  LYS56      -0.1314
     57  N          4.5530   -3.7360   -5.8580 N.am   57  LEU57      -0.1966
     58  CA         4.9830   -3.9590   -4.4810 C.3    57  LEU57       0.1728
     59  C          5.8100   -2.7810   -4.0000 C.2    57  LEU57       0.2616
     60  O          6.8250   -2.4550   -4.6160 O.2    57  LEU57      -0.2715
     61  CB         5.8320   -5.2250   -4.3910 C.3    57  LEU57       0.0311
     62  CG         5.1520   -6.5530   -4.7020 C.3    57  LEU57       0.0022
     63  CD1        6.1820   -7.5980   -5.1010 C.3    57  LEU57       0.0001
     64  CD2        4.3690   -7.0030   -3.4960 C.3    57  LEU57       0.0001
     65  N          5.4010   -2.1790   -2.8890 N.am   58  ILE58      -0.1963
     66  CA         6.0290   -0.9740   -2.3670 C.3    58  ILE58       0.1727
     67  C          6.2910   -1.1700   -0.8680 C.2    58  ILE58       0.2616
     68  O          5.3670   -1.3280   -0.0680 O.2    58  ILE58      -0.2715
     69  CB         5.1420    0.2530   -2.6210 C.3    58  ILE58       0.0290
     70  CG1        4.9650    0.4910   -4.1280 C.3    58  ILE58       0.0022
     71  CG2        5.6970    1.4790   -1.9150 C.3    58  ILE58       0.0023
     72  CD1        3.7840    1.3410   -4.4590 C.3    58  ILE58       0.0001
     73  N          7.5640   -1.1860   -0.4930 N.am   59  LYS59      -0.1977
     74  CA         7.9390   -1.2900    0.9110 C.3    59  LYS59       0.1596
     75  C          7.5080   -0.0360    1.6770 C.2    59  LYS59       0.2287
     76  O          7.7130    1.0800    1.2120 O.2    59  LYS59      -0.2864
     77  CB         9.4590   -1.4930    1.0540 C.3    59  LYS59       0.0298
     78  CG         9.9790   -1.4200    2.4860 C.3    59  LYS59       0.0038
     79  CD        11.4830   -1.6560    2.5920 C.3    59  LYS59       0.0206
     80  CE        11.9790   -1.5370    4.0310 C.3    59  LYS59       0.1093
     81  NZ        11.4920   -2.6380    4.8980 N.3    59  LYS59      -0.1314
     82  N          8.0430    5.6810    1.9670 N.3    69  PHE69      -0.1227
     83  CA         8.4060    4.7900    0.8620 C.3    69  PHE69       0.1736
     84  C          9.8890    4.8930    0.4920 C.2    69  PHE69       0.2596
     85  O         10.4100    4.0430   -0.2350 O.2    69  PHE69      -0.2718
     86  CB         7.5870    5.1070   -0.3880 C.3    69  PHE69       0.0547
     87  CG         6.0880    5.0230   -0.2220 C.ar   69  PHE69      -0.0202
     88  CD1        5.4810    4.0030    0.4860 C.ar   69  PHE69      -0.0042
     89  CD2        5.2870    5.9730   -0.8480 C.ar   69  PHE69      -0.0042
     90  CE1        4.0920    3.9340    0.5690 C.ar   69  PHE69      -0.0003
     91  CE2        3.9140    5.9120   -0.7660 C.ar   69  PHE69      -0.0003
     92  CZ         3.3110    4.8990   -0.0590 C.ar   69  PHE69      -0.0000
     93  N         10.5470    5.9610    0.9380 N.am   70  SER70      -0.1952
     94  CA        11.9720    6.1640    0.7000 C.3    70  SER70       0.1924
     95  C         12.4730    7.1180    1.7610 C.2    70  SER70       0.2314
     96  O         11.6960    7.8330    2.3810 O.2    70  SER70      -0.2863
     97  CB        12.2390    6.7220   -0.6980 C.3    70  SER70       0.2116
     98  OG        11.7250    8.0370   -0.7970 O.3    70  SER70      -0.2180
     99  N          1.6080    8.8620   -6.5800 N.3    90  LEU90      -0.1245
    100  CA         2.9340    8.3630   -6.1920 C.3    90  LEU90       0.1561
    101  C          4.0290    8.6360   -7.2390 C.2    90  LEU90       0.2260
    102  O          5.1520    8.1580   -7.1000 O.2    90  LEU90      -0.2867
    103  CB         2.8830    6.8620   -5.8800 C.3    90  LEU90       0.0270
    104  CG         2.2800    6.4510   -4.5310 C.3    90  LEU90       0.0019
    105  CD1        0.7570    6.6020   -4.4920 C.3    90  LEU90       0.0001
    106  CD2        2.6860    5.0350   -4.1820 C.3    90  LEU90       0.0001
    107  N          6.1050   10.9670   -7.9430 N.3    92  GLN92      -0.1231
    108  CA         7.4100   11.5520   -7.6230 C.3    92  GLN92       0.1698
    109  C          8.4300   10.5050   -7.2160 C.2    92  GLN92       0.2592
    110  O          9.6320   10.7370   -7.3210 O.2    92  GLN92      -0.2718
    111  CB         7.3040   12.6060   -6.5230 C.3    92  GLN92       0.0381
    112  CG         6.3010   13.7020   -6.8110 C.3    92  GLN92       0.0905
    113  CD         6.4430   14.3010   -8.1900 C.2    92  GLN92       0.2608
    114  OE1        7.5280   14.7000   -8.6080 O.2    92  GLN92      -0.2717
    115  NE2        5.3350   14.3570   -8.9150 N.am   92  GLN92      -0.0878
    116  N          7.9740    9.3550   -6.7320 N.am   93  TYR93      -0.1962
    117  CA         8.8820    8.2810   -6.3540 C.3    93  TYR93       0.1771
    118  C          9.3380    7.4670   -7.5610 C.2    93  TYR93       0.2619
    119  O         10.4030    6.8680   -7.5310 O.2    93  TYR93      -0.2715
    120  CB         8.2160    7.3360   -5.3590 C.3    93  TYR93       0.0574
    121  CG         7.8250    8.0080   -4.0730 C.ar   93  TYR93      -0.0198
    122  CD1        8.7560    8.1920   -3.0520 C.ar   93  TYR93      -0.0009
    123  CD2        6.5330    8.4690   -3.8790 C.ar   93  TYR93      -0.0009
    124  CE1        8.4050    8.8170   -1.8610 C.ar   93  TYR93       0.0417
    125  CE2        6.1740    9.1070   -2.7030 C.ar   93  TYR93       0.0417
    126  CZ         7.1160    9.2730   -1.6940 C.ar   93  TYR93       0.1957
    127  OH         6.7800    9.8920   -0.5160 O.3    93  TYR93      -0.2866
    128  N          8.4960    7.4060   -8.5870 N.am   94  ASN94      -0.1972
    129  CA         8.7470    6.5690   -9.7480 C.3    94  ASN94       0.1688
    130  C          7.7060    6.9490  -10.7830 C.2    94  ASN94       0.2292
    131  O          6.5240    6.8580  -10.4900 O.2    94  ASN94      -0.2864
    132  CB         8.6330    5.0900   -9.3710 C.3    94  ASN94       0.1181
    133  CG         9.0950    4.1740  -10.4890 C.2    94  ASN94       0.2629
    134  OD1        8.7380    4.3720  -11.6510 O.2    94  ASN94      -0.2716
    135  ND2        9.9100    3.2000  -10.1570 N.am   94  ASN94      -0.0877
    136  N          6.4680    5.4630  -13.1400 N.3    96  LYS96      -0.1231
    137  CA         5.5710    4.3460  -13.4350 C.3    96  LYS96       0.1693
    138  C          4.4200    4.2180  -12.4300 C.2    96  LYS96       0.2591
    139  O          3.5430    3.3650  -12.5900 O.2    96  LYS96      -0.2718
    140  CB         6.3550    3.0380  -13.4550 C.3    96  LYS96       0.0285
    141  CG         7.4440    2.9780  -14.5010 C.3    96  LYS96       0.0035
    142  CD         8.3720    1.7940  -14.2490 C.3    96  LYS96       0.0206
    143  CE         9.5540    1.8410  -15.1830 C.3    96  LYS96       0.1093
    144  NZ        10.4830    0.7650  -14.8120 N.3    96  LYS96      -0.1314
    145  N          4.4360    5.0470  -11.3890 N.am   97  LEU97      -0.1980
    146  CA         3.4160    4.9980  -10.3390 C.3    97  LEU97       0.1596
    147  C          2.5720    6.2710  -10.3310 C.2    97  LEU97       0.2287
    148  O          2.3050    6.8540   -9.2730 O.2    97  LEU97      -0.2864
    149  CB         4.0680    4.7660   -8.9710 C.3    97  LEU97       0.0297
    150  CG         4.8270    3.4500   -8.8290 C.3    97  LEU97       0.0022
    151  CD1        5.5100    3.4010   -7.4650 C.3    97  LEU97       0.0001
    152  CD2        3.9390    2.2330   -9.0410 C.3    97  LEU97       0.0001
@<TRIPOS>BOND
     1   143   144    1
     2   143   142    1
     3   141   142    1
     4   141   140    1
     5   140   137    1
     6   137   136    1
     7   137   138    1
     8    56    55    1
     9   139   138    2
    10   138   145   am
    11    55    54    1
    12   134   133    2
    13   145   146    1
    14   130   131    2
    15   130   129    1
    16    54    53    1
    17   133   135   am
    18   133   132    1
    19   146   147    1
    20   146   149    1
    21   147   148    2
    22   129   132    1
    23   129   128    1
    24    53    52    1
    25   152   150    1
    26   149   150    1
    27   115   113   am
    28   150   151    1
    29   114   113    2
    30   128   118   am
    31   113   112    1
    32    52    49    1
    33    48    49    1
    34   107   108    1
    35    49    50    1
    36   108   109    1
    37   108   111    1
    38   118   119    2
    39   118   117    1
    40   110   109    2
    41   101   102    2
    42   101   100    1
    43   109   116   am
    44   112   111    1
    45   116   117    1
    46    99   100    1
    47   117   120    1
    48    50    57   am
    49    50    51    2
    50   100   103    1
    51   103   104    1
    52    57    58    1
    53   120   121    1
    54    63    62    1
    55    10     9    1
    56    62    61    1
    57    62    64    1
    58    60    59    2
    59   104   105    1
    60   104   106    1
    61    58    61    1
    62    58    59    1
    63    72    70    1
    64    70    69    1
    65     7     6    1
    66     7     8    1
    67   121   123   ar
    68   121   122   ar
    69    59    65   am
    70   123   125   ar
    71     9     8    2
    72     9    11    1
    73     6     5    1
    74     4     3    2
    75   122   124   ar
    76    65    66    1
    77   125   126   ar
    78    69    66    1
    79    69    71    1
    80     3     2    1
    81    66    67    1
    82     5     2    1
    83   124   126   ar
    84   126   127    1
    85     2     1    1
    86    67    73   am
    87    67    68    2
    88    89    91   ar
    89    89    87   ar
    90    98    97    1
    91    91    92   ar
    92    97    94    1
    93    73    74    1
    94    86    87    1
    95    86    83    1
    96    21    20    1
    97    85    84    2
    98    87    88   ar
    99    92    90   ar
   100    47    45    1
   101    88    90   ar
   102    84    83    1
   103    84    93   am
   104    94    93    1
   105    94    95    1
   106    20    19    2
   107    20    22    1
   108    19    18    1
   109    83    82    1
   110    74    77    1
   111    74    75    1
   112    77    78    1
   113    76    75    2
   114    43    44    2
   115    43    42    1
   116    95    96    2
   117    45    42    1
   118    45    46    1
   119    18    17    1
   120    42    41    1
   121    33    32    1
   122    78    79    1
   123    79    80    1
   124    17    16    1
   125    32    29    1
   126    16    13    1
   127    12    13    1
   128    80    81    1
   129    29    28    1
   130    29    30    1
   131    28    25   am
   132    13    14    1
   133    40    38    1
   134    15    14    2
   135    24    25    1
   136    24    27    1
   137    24    23    1
   138    30    34   am
   139    30    31    2
   140    25    26    2
   141    34    35    1
   142    38    35    1
   143    38    39    1
   144    35    36    1
   145    36    37    2
