@<TRIPOS>MOLECULE
tmp/5gjnA00.pdb
 97 95 0 0 0
SMALL
GASTEIGER

@<TRIPOS>ATOM
      1  N         35.4380   -8.6860    7.7690 N.3    38  ARG38      -0.1245
      2  CA        35.5730   -9.8240    8.6750 C.3    38  ARG38       0.1563
      3  C         36.9910  -10.3910    8.6780 C.2    38  ARG38       0.2260
      4  O         37.5180  -10.7510    9.7040 O.2    38  ARG38      -0.2867
      5  CB        34.5570  -10.9090    8.3530 C.3    38  ARG38       0.0307
      6  CG        33.1180  -10.4950    8.5480 C.3    38  ARG38       0.0489
      7  CD        32.5590  -11.0260    9.8470 C.3    38  ARG38       0.2205
      8  NE        33.1290  -10.3260   10.9740 N.pl3  38  ARG38      -0.0865
      9  CZ        33.7060  -10.9060   12.0110 C.cat  38  ARG38       0.5346
     10  NH1       33.7810  -12.2140   12.0930 N.pl3  38  ARG38       0.1354
     11  NH2       34.2030  -10.1670   12.9720 N.pl3  38  ARG38       0.1354
     12  N         38.6870   -8.7550   12.2650 N.3    42  PRO42      -0.2102
     13  CA        37.9110   -9.8370   12.8640 C.3    42  PRO42       0.1504
     14  C         37.3290   -9.4910   14.2270 C.2    42  PRO42       0.2575
     15  O         36.2770   -9.9870   14.5470 O.2    42  PRO42      -0.2718
     16  CB        38.9310  -10.9630   12.9970 C.3    42  PRO42       0.0282
     17  CG        40.2350  -10.2880   12.9920 C.3    42  PRO42       0.0208
     18  CD        40.0640   -9.1800   12.0160 C.3    42  PRO42       0.0893
     19  N         38.0390   -8.7180   15.0280 N.am   43  ARG43      -0.1980
     20  CA        37.6030   -8.3910   16.3720 C.3    43  ARG43       0.1597
     21  C         36.2740   -7.6380   16.4180 C.2    43  ARG43       0.2287
     22  O         35.5530   -7.7480   17.3680 O.2    43  ARG43      -0.2864
     23  CB        38.6820   -7.6120   17.1150 C.3    43  ARG43       0.0334
     24  CG        39.8050   -8.4640   17.6750 C.3    43  ARG43       0.0492
     25  CD        39.2930   -9.5890   18.5550 C.3    43  ARG43       0.2205
     26  NE        38.3330   -9.1340   19.5410 N.pl3  43  ARG43      -0.0865
     27  CZ        38.6440   -8.4980   20.6590 C.cat  43  ARG43       0.5346
     28  NH1       39.8940   -8.2390   20.9640 N.pl3  43  ARG43       0.1354
     29  NH2       37.6920   -8.1200   21.4770 N.pl3  43  ARG43       0.1354
     30  N         32.5210   -6.8580   15.7230 N.3    45  GLY45      -0.1225
     31  CA        31.2140   -7.2450   15.2310 C.3    45  GLY45       0.1811
     32  C         30.6460   -6.0960   14.4360 C.2    45  GLY45       0.2280
     33  O         31.0040   -4.9670   14.6610 O.2    45  GLY45      -0.2866
     34  N         31.2490   -3.7170   26.2430 N.3   204  ASP204     -0.1239
     35  CA        31.1350   -3.5130   24.8500 C.3   204  ASP204      0.1674
     36  C         31.6550   -2.1280   24.4340 C.2   204  ASP204      0.2266
     37  O         31.4360   -1.1060   25.1310 O.2   204  ASP204     -0.2867
     38  CB        29.6660   -3.5860   24.4430 C.3   204  ASP204      0.1410
     39  CG        29.1060   -5.0180   24.4630 C.2   204  ASP204      0.3668
     40  OD1       28.9410   -5.4850   25.5680 O.co2 204  ASP204     -0.2456
     41  OD2       28.8980   -5.6010   23.3740 O.co2 204  ASP204     -0.2456
     42  N         43.0330   -5.8590   19.7750 N.3   233  ASP233     -0.1239
     43  CA        43.4190   -7.1370   20.4580 C.3   233  ASP233      0.1674
     44  C         44.3580   -6.8720   21.5910 C.2   233  ASP233      0.2266
     45  O         44.2890   -7.5480   22.6030 O.2   233  ASP233     -0.2867
     46  CB        44.0760   -8.1490   19.5300 C.3   233  ASP233      0.1410
     47  CG        43.2010   -9.3600   19.2430 C.2   233  ASP233      0.3668
     48  OD1       42.2870   -9.6790   19.9890 O.co2 233  ASP233     -0.2456
     49  OD2       43.4330  -10.0220   18.1980 O.co2 233  ASP233     -0.2456
     50  N         41.3220   -7.1330   25.0120 N.3   237  PRO237     -0.2102
     51  CA        41.2890   -8.5840   24.8400 C.3   237  PRO237      0.1504
     52  C         39.9770   -9.2190   25.2610 C.2   237  PRO237      0.2576
     53  O         39.5580  -10.1700   24.6490 O.2   237  PRO237     -0.2718
     54  CB        42.4300   -9.0710   25.7220 C.3   237  PRO237      0.0282
     55  CG        42.6540   -7.9770   26.6860 C.3   237  PRO237      0.0208
     56  CD        42.3900   -6.7260   25.9240 C.3   237  PRO237      0.0893
     57  N         39.3660   -8.7250   26.3170 N.am  238  ASP238     -0.1960
     58  CA        38.1510   -9.3280   26.8320 C.3   238  ASP238      0.1840
     59  C         36.8690   -8.5100   26.6420 C.2   238  ASP238      0.2623
     60  O         35.8610   -8.7680   27.2720 O.2   238  ASP238     -0.2715
     61  CB        38.3600   -9.7460   28.2790 C.3   238  ASP238      0.1450
     62  CG        39.6050  -10.5820   28.4530 C.2   238  ASP238      0.3671
     63  OD1       39.8070  -11.5130   27.6670 O.co2 238  ASP238     -0.2456
     64  OD2       40.3960  -10.2930   29.3550 O.co2 238  ASP238     -0.2456
     65  N         36.9210   -7.5210   25.7690 N.am  239  THR239     -0.1937
     66  CA        35.7760   -6.6730   25.5070 C.3   239  THR239      0.2028
     67  C         35.1730   -6.9770   24.1410 C.2   239  THR239      0.2642
     68  O         35.8830   -7.2370   23.1980 O.2   239  THR239     -0.2714
     69  CB        36.1740   -5.1890   25.5830 C.3   239  THR239      0.1808
     70  OG1       36.5170   -4.8530   26.9240 O.3   239  THR239     -0.2208
     71  CG2       35.0550   -4.3020   25.1280 C.3   239  THR239      0.0379
     72  N         33.8550   -6.9520   24.0450 N.am  240  ALA240     -0.1963
     73  CA        33.2080   -7.0850   22.7560 C.3   240  ALA240      0.1728
     74  C         33.2510   -5.7520   22.0250 C.2   240  ALA240      0.2616
     75  O         32.7560   -4.7610   22.5090 O.2   240  ALA240     -0.2715
     76  CB        31.7790   -7.5350   22.9300 C.3   240  ALA240      0.0334
     77  N         33.8250   -5.7590   20.8370 N.am  241  VAL241     -0.1963
     78  CA        34.0470   -4.5600   20.0530 C.3   241  VAL241      0.1727
     79  C         33.2220   -4.6590   18.7990 C.2   241  VAL241      0.2616
     80  O         32.9300   -5.7590   18.3060 O.2   241  VAL241     -0.2715
     81  CB        35.5690   -4.4000   19.7510 C.3   241  VAL241      0.0290
     82  CG1       35.8580   -3.0910   19.0250 C.3   241  VAL241      0.0023
     83  CG2       36.3430   -4.4490   21.0730 C.3   241  VAL241      0.0023
     84  N         32.7720   -3.4950   18.3520 N.am  242  TRP242     -0.1974
     85  CA        31.8190   -3.3460   17.2760 C.3   242  TRP242      0.1640
     86  C         32.2090   -2.1670   16.4000 C.2   242  TRP242      0.2290
     87  O         32.8990   -1.2720   16.8290 O.2   242  TRP242     -0.2864
     88  CB        30.4130   -3.0940   17.8160 C.3   242  TRP242      0.0576
     89  CG        29.8950   -4.0970   18.7640 C.ar  242  TRP242      0.0006
     90  CD1       30.0650   -4.1090   20.0920 C.ar  242  TRP242      0.0946
     91  CD2       29.1040   -5.2370   18.4490 C.ar  242  TRP242      0.0152
     92  NE1       29.4400   -5.1870   20.6410 N.ar  242  TRP242     -0.2442
     93  CE2       28.8400   -5.8990   19.6450 C.ar  242  TRP242      0.0810
     94  CE3       28.5920   -5.7610   17.2680 C.ar  242  TRP242      0.0012
     95  CZ2       28.0960   -7.0580   19.6980 C.ar  242  TRP242      0.0191
     96  CZ3       27.8530   -6.9050   17.3270 C.ar  242  TRP242      0.0001
     97  CH2       27.6160   -7.5430   18.5260 C.ar  242  TRP242      0.0015
@<TRIPOS>BOND
     1     1     2    1
     2     5     6    1
     3     5     2    1
     4     6     7    1
     5     2     3    1
     6     3     4    2
     7     7     8    1
     8     8     9    2
     9     9    10    1
    10     9    11    1
    11    18    12    1
    12    18    17    1
    13    12    13    1
    14    13    16    1
    15    13    14    1
    16    17    16    1
    17    14    15    2
    18    14    19   am
    19    32    33    2
    20    32    31    1
    21    19    20    1
    22    31    30    1
    23    20    21    1
    24    20    23    1
    25    86    87    2
    26    86    85    1
    27    21    22    2
    28    23    24    1
    29    94    96   ar
    30    94    91   ar
    31    85    88    1
    32    85    84    1
    33    96    97   ar
    34    24    25    1
    35    88    89    1
    36    49    47   ar
    37    80    79    2
    38    84    79   am
    39    91    89   ar
    40    91    93   ar
    41    97    95   ar
    42    25    26    1
    43    89    90   ar
    44    79    78    1
    45    82    81    1
    46    47    46    1
    47    47    48   ar
    48    46    43    1
    49    26    27    2
    50    93    95   ar
    51    93    92   ar
    52    81    78    1
    53    81    83    1
    54    42    43    1
    55    78    77    1
    56    90    92   ar
    57    43    44    1
    58    27    28    1
    59    27    29    1
    60    77    74   am
    61    44    45    2
    62    74    75    2
    63    74    73    1
    64    73    76    1
    65    73    72    1
    66    68    67    2
    67    41    39   ar
    68    72    67   am
    69    67    66    1
    70    36    35    1
    71    36    37    2
    72    38    39    1
    73    38    35    1
    74    39    40   ar
    75    53    52    2
    76    51    50    1
    77    51    52    1
    78    51    54    1
    79    35    34    1
    80    50    56    1
    81    71    69    1
    82    52    57   am
    83    66    69    1
    84    66    65    1
    85    69    70    1
    86    54    55    1
    87    65    59   am
    88    56    55    1
    89    57    58    1
    90    59    58    1
    91    59    60    2
    92    58    61    1
    93    63    62   ar
    94    61    62    1
    95    62    64   ar
