@<TRIPOS>MOLECULE
tmp/5gjoA00.pdb
 156 150 0 0 0
SMALL
GASTEIGER

@<TRIPOS>ATOM
      1  N        -24.1910  -12.2640   -8.1020 N.3    50  ALA50      -0.1245
      2  CA       -24.2380  -11.1730   -7.1220 C.3    50  ALA50       0.1562
      3  C        -23.7930  -11.6790   -5.7570 C.2    50  ALA50       0.2260
      4  O        -24.5250  -12.1280   -4.9320 O.2    50  ALA50      -0.2867
      5  CB       -25.6110  -10.4080   -7.1000 C.3    50  ALA50       0.0290
      6  N        -22.8500  -10.4520   -3.1580 N.3    52  LYS52      -0.1245
      7  CA       -23.3790   -9.8050   -1.9630 C.3    52  LYS52       0.1561
      8  C        -24.3180  -10.7750   -1.2070 C.2    52  LYS52       0.2260
      9  O        -24.4310  -10.7080   -0.0110 O.2    52  LYS52      -0.2867
     10  CB       -24.1810   -8.5470   -2.3460 C.3    52  LYS52       0.0271
     11  CG       -25.1930   -8.7820   -3.4530 C.3    52  LYS52       0.0035
     12  CD       -25.9680   -7.5420   -3.8880 C.3    52  LYS52       0.0206
     13  CE       -25.0560   -6.3910   -4.2880 C.3    52  LYS52       0.1093
     14  NZ       -24.3610   -6.5840   -5.5800 N.3    52  LYS52      -0.1314
     15  N        -20.8240   -9.9920  -10.0790 N.3    71  ASP71      -0.1239
     16  CA       -21.2790   -8.6360   -9.8070 C.3    71  ASP71       0.1674
     17  C        -20.7270   -8.2940   -8.4320 C.2    71  ASP71       0.2266
     18  O        -20.9840   -8.9990   -7.4270 O.2    71  ASP71      -0.2867
     19  CB       -22.8040   -8.6100   -9.7820 C.3    71  ASP71       0.1410
     20  CG       -23.3640   -7.4840   -8.9100 C.2    71  ASP71       0.3668
     21  OD1      -22.7270   -6.4260   -8.7760 O.co2  71  ASP71      -0.2456
     22  OD2      -24.4330   -7.6440   -8.3200 O.co2  71  ASP71      -0.2456
     23  N        -21.3260   -3.1140  -10.1590 N.3    94  ALA94      -0.1245
     24  CA       -22.7140   -2.6760  -10.3270 C.3    94  ALA94       0.1562
     25  C        -23.3170   -1.9490   -9.1250 C.2    94  ALA94       0.2260
     26  O        -24.5640   -1.8970   -8.9880 O.2    94  ALA94      -0.2867
     27  CB       -23.5680   -3.8570  -10.6540 C.3    94  ALA94       0.0290
     28  N        -28.6110    2.3550  -15.5660 N.3   137  ARG137     -0.1245
     29  CA       -29.6580    1.5860  -14.8570 C.3   137  ARG137      0.1563
     30  C        -30.9110    2.4440  -14.8620 C.2   137  ARG137      0.2260
     31  O        -30.8710    3.5970  -14.3260 O.2   137  ARG137     -0.2867
     32  CB       -29.2590    1.4030  -13.4200 C.3   137  ARG137      0.0307
     33  CG       -30.2590    0.5160  -12.6640 C.3   137  ARG137      0.0489
     34  CD       -29.6820    0.1830  -11.3160 C.3   137  ARG137      0.2205
     35  NE       -30.6530   -0.4180  -10.4220 N.pl3 137  ARG137     -0.0865
     36  CZ       -30.3040   -0.9260   -9.2330 C.cat 137  ARG137      0.5346
     37  NH1      -29.0240   -1.0960   -8.8960 N.pl3 137  ARG137      0.1354
     38  NH2      -31.2700   -1.3780   -8.4010 N.pl3 137  ARG137      0.1354
     39  N        -35.9700   -1.8620   -5.2840 N.3   149  LEU149     -0.1245
     40  CA       -34.6580   -1.5080   -5.7670 C.3   149  LEU149      0.1561
     41  C        -34.7680   -0.4150   -6.8310 C.2   149  LEU149      0.2260
     42  O        -33.9150   -0.3280   -7.7330 O.2   149  LEU149     -0.2867
     43  CB       -33.8870   -2.7310   -6.2250 C.3   149  LEU149      0.0270
     44  CG       -33.5500   -3.7090   -5.0790 C.3   149  LEU149      0.0019
     45  CD1      -32.7970   -4.8830   -5.7250 C.3   149  LEU149      0.0001
     46  CD2      -32.7350   -3.0390   -3.9590 C.3   149  LEU149      0.0001
     47  N        -32.3230    3.6700   -6.3810 N.3   153  PHE153     -0.1241
     48  CA       -31.5720    3.3500   -7.6190 C.3   153  PHE153      0.1605
     49  C        -32.4220    3.5530   -8.8330 C.2   153  PHE153      0.2264
     50  O        -33.6770    3.4450   -8.7530 O.2   153  PHE153     -0.2867
     51  CB       -31.1570    1.8540   -7.5580 C.3   153  PHE153      0.0534
     52  CG       -30.5630    1.4410   -6.2290 C.ar  153  PHE153     -0.0203
     53  CD1      -29.2790    1.7800   -5.8830 C.ar  153  PHE153     -0.0042
     54  CD2      -31.3430    0.7940   -5.2610 C.ar  153  PHE153     -0.0042
     55  CE1      -28.7610    1.4070   -4.6560 C.ar  153  PHE153     -0.0003
     56  CE2      -30.8320    0.4660   -3.9870 C.ar  153  PHE153     -0.0003
     57  CZ       -29.5150    0.7380   -3.7350 C.ar  153  PHE153     -0.0000
     58  N        -32.9810   -3.5860  -12.3130 N.3   180  HIS180     -0.1241
     59  CA       -33.2170   -4.6480  -11.2810 C.3   180  HIS180      0.1621
     60  C        -34.6720   -4.4290  -10.8660 C.2   180  HIS180      0.2264
     61  O        -35.0470   -3.3190  -10.4510 O.2   180  HIS180     -0.2867
     62  CB       -32.2690   -4.5430  -10.1440 C.3   180  HIS180      0.0745
     63  CG       -32.1810   -5.7840   -9.3230 C.ar  180  HIS180      0.0817
     64  ND1      -33.3060   -6.4080   -8.8520 N.ar  180  HIS180     -0.2268
     65  CD2      -31.1300   -6.5130   -8.8830 C.ar  180  HIS180      0.1154
     66  CE1      -32.9660   -7.4490   -8.0970 C.ar  180  HIS180      0.1986
     67  NE2      -31.6520   -7.5450   -8.1030 N.ar  180  HIS180     -0.2212
     68  N        -35.7260   -7.2430   -5.1700 N.3   183  SER183     -0.1202
     69  CA       -35.3860   -8.5440   -4.6030 C.3   183  SER183      0.2020
     70  C        -36.5970   -9.3690   -4.1800 C.2   183  SER183      0.2618
     71  O        -37.5860   -8.8380   -3.7450 O.2   183  SER183     -0.2717
     72  CB       -34.3700   -8.4410   -3.4700 C.3   183  SER183      0.2103
     73  OG       -33.7230   -9.6680   -3.2570 O.3   183  SER183     -0.2182
     74  N        -36.4710  -10.6830   -4.3120 N.am  184  GLN184     -0.1979
     75  CA       -37.5610  -11.5830   -4.0400 C.3   184  GLN184      0.1601
     76  C        -38.7850  -11.1670   -4.8290 C.2   184  GLN184      0.2287
     77  O        -39.7660  -10.7900   -4.2710 O.2   184  GLN184     -0.2864
     78  CB       -37.8690  -11.7070   -2.5470 C.3   184  GLN184      0.0394
     79  CG       -38.9290  -12.7470   -2.2350 C.3   184  GLN184      0.0908
     80  CD       -38.4110  -14.1810   -2.2770 C.2   184  GLN184      0.2608
     81  OE1      -37.3070  -14.4350   -2.6840 O.2   184  GLN184     -0.2717
     82  NE2      -39.2510  -15.1160   -1.8540 N.am  184  GLN184     -0.0878
     83  N        -31.2420   -9.1370  -10.9350 N.3   219  GLY219     -0.1210
     84  CA       -31.5590  -10.3840  -10.2600 C.3   219  GLY219      0.1956
     85  C        -33.0080  -10.4560   -9.9140 C.2   219  GLY219      0.2612
     86  O        -33.8790  -10.0370  -10.7020 O.2   219  GLY219     -0.2717
     87  N        -33.2790  -10.8460   -8.6530 N.am  220  GLY220     -0.1942
     88  CA       -34.6100  -10.8640   -8.0770 C.3   220  GLY220      0.2014
     89  C        -35.3340  -12.1880   -8.0960 C.2   220  GLY220      0.2638
     90  O        -36.4180  -12.2940   -7.5690 O.2   220  GLY220     -0.2714
     91  N        -34.7140  -13.1810   -8.7150 N.am  221  PHE221     -0.1973
     92  CA       -35.3070  -14.4940   -8.7300 C.3   221  PHE221      0.1639
     93  C        -35.5310  -14.9400   -7.2320 C.2   221  PHE221      0.2290
     94  O        -34.6270  -14.8050   -6.4330 O.2   221  PHE221     -0.2864
     95  CB       -34.3940  -15.4730   -9.4540 C.3   221  PHE221      0.0560
     96  CG       -33.9610  -14.9850  -10.8120 C.ar  221  PHE221     -0.0200
     97  CD1      -34.8070  -15.0420  -11.8400 C.ar  221  PHE221     -0.0042
     98  CD2      -32.7520  -14.3500  -10.9560 C.ar  221  PHE221     -0.0042
     99  CE1      -34.4180  -14.5710  -13.1060 C.ar  221  PHE221     -0.0003
    100  CE2      -32.3670  -13.8280  -12.1790 C.ar  221  PHE221     -0.0003
    101  CZ       -33.1870  -13.9680  -13.2380 C.ar  221  PHE221     -0.0000
    102  N        -27.9150  -10.8940  -13.0740 N.3   256  GLU256     -0.1231
    103  CA       -27.1890  -10.6900  -11.8440 C.3   256  GLU256      0.1684
    104  C        -27.9170  -11.3760  -10.6690 C.2   256  GLU256      0.2434
    105  O        -28.2490  -10.7240   -9.6700 O.2   256  GLU256     -0.2733
    106  CB       -26.9580   -9.1740  -11.5260 C.3   256  GLU256      0.0402
    107  CG       -26.1510   -8.4450  -12.5770 C.3   256  GLU256      0.1161
    108  CD       -25.8710   -6.9720  -12.2690 C.2   256  GLU256      0.3649
    109  OE1      -26.0980   -6.6010  -11.0970 O.co2 256  GLU256     -0.2457
    110  OE2      -25.4030   -6.2110  -13.2070 O.co2 256  GLU256     -0.2457
    111  N        -28.1610  -12.6790  -10.7370 N.am  257  PRO257     -0.2718
    112  CA       -28.7940  -13.3450   -9.6010 C.3   257  PRO257      0.1535
    113  C        -27.8860  -13.3470   -8.3670 C.2   257  PRO257      0.2599
    114  O        -26.6740  -13.6850   -8.4560 O.2   257  PRO257     -0.2715
    115  CB       -28.9870  -14.7910  -10.0990 C.3   257  PRO257      0.0310
    116  CG       -27.7710  -14.9500  -11.0250 C.3   257  PRO257      0.0237
    117  CD       -27.8920  -13.6430  -11.7990 C.3   257  PRO257      0.0939
    118  N        -28.4470  -12.9820   -7.1990 N.am  258  GLY258     -0.1941
    119  CA       -27.8040  -13.1490   -5.9090 C.3   258  GLY258      0.2014
    120  C        -28.5400  -14.2520   -5.1070 C.2   258  GLY258      0.2639
    121  O        -28.0600  -15.3780   -5.0120 O.2   258  GLY258     -0.2714
    122  N        -29.7030  -13.8940   -4.5480 N.am  259  ARG259     -0.1963
    123  CA       -30.4530  -14.7610   -3.6080 C.3   259  ARG259      0.1729
    124  C        -30.6050  -16.1880   -4.0800 C.2   259  ARG259      0.2616
    125  O        -30.4520  -17.1500   -3.3160 O.2   259  ARG259     -0.2715
    126  CB       -31.8530  -14.1620   -3.3580 C.3   259  ARG259      0.0348
    127  CG       -32.5470  -14.7670   -2.1510 C.3   259  ARG259      0.0492
    128  CD       -33.9750  -14.2430   -2.1190 C.3   259  ARG259      0.2205
    129  NE       -34.0520  -12.8110   -1.8840 N.pl3 259  ARG259     -0.0865
    130  CZ       -33.9240  -12.2010   -0.7250 C.cat 259  ARG259      0.5346
    131  NH1      -33.7390  -12.8670    0.4050 N.pl3 259  ARG259      0.1354
    132  NH2      -34.0610  -10.8710   -0.6850 N.pl3 259  ARG259      0.1354
    133  N        -30.9390  -16.3150   -5.3400 N.am  260  TYR260     -0.1974
    134  CA       -31.3090  -17.5960   -5.9100 C.3   260  TYR260      0.1639
    135  C        -30.1440  -18.6060   -5.8840 C.2   260  TYR260      0.2290
    136  O        -30.3580  -19.7700   -5.7060 O.2   260  TYR260     -0.2864
    137  CB       -31.8810  -17.4150   -7.3380 C.3   260  TYR260      0.0560
    138  CG       -31.8270  -18.6670   -8.1770 C.ar  260  TYR260     -0.0198
    139  CD1      -32.8200  -19.6140   -8.1250 C.ar  260  TYR260     -0.0009
    140  CD2      -30.7250  -18.9350   -8.9510 C.ar  260  TYR260     -0.0009
    141  CE1      -32.7310  -20.7810   -8.8670 C.ar  260  TYR260      0.0417
    142  CE2      -30.6280  -20.0990   -9.6910 C.ar  260  TYR260      0.0417
    143  CZ       -31.6360  -21.0170   -9.6500 C.ar  260  TYR260      0.1957
    144  OH       -31.5210  -22.1670  -10.3730 O.3   260  TYR260     -0.2866
    145  N        -28.3230  -13.5570    2.1080 N.3   353  TYR353     -0.1241
    146  CA       -28.6410  -12.4000    2.9680 C.3   353  TYR353      0.1605
    147  C        -28.8640  -12.7840    4.4550 C.2   353  TYR353      0.2264
    148  O        -29.7730  -12.3140    5.1160 O.2   353  TYR353     -0.2867
    149  CB       -29.7590  -11.5430    2.4120 C.3   353  TYR353      0.0534
    150  CG       -29.4880  -11.1130    0.9620 C.ar  353  TYR353     -0.0201
    151  CD1      -28.4860  -10.1980    0.6530 C.ar  353  TYR353     -0.0009
    152  CD2      -30.2090  -11.6480   -0.0760 C.ar  353  TYR353     -0.0009
    153  CE1      -28.2720   -9.8450   -0.6470 C.ar  353  TYR353      0.0417
    154  CE2      -30.0060  -11.3110   -1.4110 C.ar  353  TYR353      0.0417
    155  CZ       -28.9890  -10.3990   -1.7020 C.ar  353  TYR353      0.1957
    156  OH       -28.7180  -10.0060   -3.0090 O.3   353  TYR353     -0.2866
@<TRIPOS>BOND
     1    28    29    1
     2    30    29    1
     3    30    31    2
     4    29    32    1
     5    32    33    1
     6   101    99   ar
     7   101   100   ar
     8   110   108   ar
     9    99    97   ar
    10   102   103    1
    11    33    34    1
    12   107   108    1
    13   107   106    1
    14    58    59    1
    15   108   109   ar
    16   100    98   ar
    17   103   106    1
    18   103   104    1
    19    97    96   ar
    20   117   116    1
    21   117   111    1
    22    34    35    1
    23    59    60    1
    24    59    62    1
    25   116   115    1
    26    98    96   ar
    27    83    84    1
    28    60    61    2
    29    96    95    1
    30   111   104   am
    31   111   112    1
    32    86    85    2
    33   104   105    2
    34    27    24    1
    35    35    36    2
    36   144   143    1
    37    24    23    1
    38    24    25    1
    39    84    85    1
    40    62    63    1
    41   115   112    1
    42    15    16    1
    43    85    87   am
    44    16    19    1
    45    16    17    1
    46    19    20    1
    47   142   143   ar
    48   142   140   ar
    49   143   141   ar
    50   112   113    1
    51    95    92    1
    52    63    65   ar
    53    63    64   ar
    54    36    37    1
    55    36    38    1
    56    25    26    2
    57   140   138   ar
    58    20    21   ar
    59    20    22   ar
    60    65    67   ar
    61   141   139   ar
    62    64    66   ar
    63    49    50    2
    64    49    48    1
    65    92    91    1
    66    92    93    1
    67    91    89   am
    68    87    88    1
    69   114   113    2
    70    17    18    2
    71   113   118   am
    72   138   139   ar
    73   138   137    1
    74    67    66   ar
    75     1     2    1
    76    89    88    1
    77    89    90    2
    78    42    41    2
    79    48    51    1
    80    48    47    1
    81    51    52    1
    82   137   134    1
    83    93    94    2
    84   118   119    1
    85     2     5    1
    86     2     3    1
    87    41    40    1
    88    52    53   ar
    89    52    54   ar
    90    43    40    1
    91    43    44    1
    92   134   135    1
    93   134   133    1
    94   119   120    1
    95   135   136    2
    96    53    55   ar
    97    40    39    1
    98     3     4    2
    99    45    44    1
   100    14    13    1
   101   133   124   am
   102    54    56   ar
   103    68    69    1
   104   120   121    2
   105   120   122   am
   106    44    46    1
   107    76    77    2
   108    76    75    1
   109    55    57   ar
   110    69    70    1
   111    69    72    1
   112   122   123    1
   113    74    70   am
   114    74    75    1
   115    13    12    1
   116    70    71    2
   117   124   123    1
   118   124   125    2
   119    75    78    1
   120    56    57   ar
   121    12    11    1
   122   123   126    1
   123    72    73    1
   124    11    10    1
   125   126   127    1
   126     6     7    1
   127   156   155    1
   128    81    80    2
   129    78    79    1
   130    10     7    1
   131    80    79    1
   132    80    82   am
   133   127   128    1
   134   128   129    1
   135     7     8    1
   136   129   130    2
   137   155   154   ar
   138   155   153   ar
   139   154   152   ar
   140     8     9    2
   141   130   132    1
   142   130   131    1
   143   153   151   ar
   144   152   150   ar
   145   151   150   ar
   146   150   149    1
   147   145   146    1
   148   149   146    1
   149   146   147    1
   150   147   148    2
