@<TRIPOS>MOLECULE
tmp/5gjpA02.pdb
 118 113 0 0 0
SMALL
GASTEIGER

@<TRIPOS>ATOM
      1  N        -38.3880  -18.9930   21.7600 N.3     1  MET1       -0.1230
      2  CA       -37.0600  -18.3520   21.4500 C.3     1  MET1        0.1702
      3  C        -35.7740  -19.1380   21.8820 C.2     1  MET1        0.2592
      4  O        -34.6550  -18.6700   21.6370 O.2     1  MET1       -0.2718
      5  CB       -37.0260  -16.9180   22.0330 C.3     1  MET1        0.0401
      6  CG       -38.0640  -15.9430   21.4700 C.3     1  MET1        0.0596
      7  SD       -37.6230  -15.2600   19.8520 S.3     1  MET1       -0.1393
      8  CE       -38.5500  -13.7160   19.8170 C.3     1  MET1        0.0692
      9  N        -35.9160  -20.3080   22.5070 N.am    2  LYS2       -0.1966
     10  CA       -34.7630  -21.1580   22.8560 C.3     2  LYS2        0.1728
     11  C        -34.2190  -21.8840   21.6370 C.2     2  LYS2        0.2616
     12  O        -34.9870  -22.3810   20.8540 O.2     2  LYS2       -0.2715
     13  CB       -35.1630  -22.2430   23.8760 C.3     2  LYS2        0.0311
     14  CG       -35.0900  -21.8350   25.3340 C.3     2  LYS2        0.0038
     15  CD       -35.5820  -22.9690   26.2220 C.3     2  LYS2        0.0206
     16  CE       -35.5200  -22.5940   27.6930 C.3     2  LYS2        0.1093
     17  NZ       -36.4830  -23.4030   28.4840 N.3     2  LYS2       -0.1314
     18  N        -32.9060  -21.9860   21.5170 N.am    3  ASN3       -0.1972
     19  CA       -32.2790  -22.9500   20.6110 C.3     3  ASN3        0.1688
     20  C        -32.2280  -24.3200   21.2620 C.2     3  ASN3        0.2292
     21  O        -31.9310  -24.4350   22.4570 O.2     3  ASN3       -0.2864
     22  CB       -30.8400  -22.5720   20.2900 C.3     3  ASN3        0.1181
     23  CG       -30.7130  -21.2000   19.6860 C.2     3  ASN3        0.2629
     24  OD1      -29.7020  -20.5360   19.8770 O.2     3  ASN3       -0.2716
     25  ND2      -31.7320  -20.7580   18.9700 N.am    3  ASN3       -0.0877
     26  N        -38.5920  -28.6340   18.0040 N.3    29  LYS29      -0.1245
     27  CA       -38.0420  -27.3340   17.6330 C.3    29  LYS29       0.1561
     28  C        -38.4080  -27.0340   16.1750 C.2    29  LYS29       0.2260
     29  O        -38.7560  -25.9020   15.8500 O.2    29  LYS29      -0.2867
     30  CB       -36.5320  -27.2690   17.8850 C.3    29  LYS29       0.0271
     31  CG       -35.8650  -25.9710   17.4970 C.3    29  LYS29       0.0035
     32  CD       -35.9670  -24.8590   18.5440 C.3    29  LYS29       0.0206
     33  CE       -36.1000  -23.4960   17.8700 C.3    29  LYS29       0.1093
     34  NZ       -35.5840  -22.2820   18.5320 N.3    29  LYS29      -0.1314
     35  N        -41.9250  -25.8530   16.4010 N.3    32  GLU32      -0.1231
     36  CA       -41.9250  -24.5200   16.9850 C.3    32  GLU32       0.1699
     37  C        -41.4790  -23.4210   16.0050 C.2    32  GLU32       0.2592
     38  O        -42.1540  -22.4150   15.8670 O.2    32  GLU32      -0.2718
     39  CB       -41.1480  -24.5140   18.3220 C.3    32  GLU32       0.0402
     40  CG       -42.0200  -25.0610   19.4780 C.3    32  GLU32       0.1161
     41  CD       -41.2940  -25.8030   20.6250 C.2    32  GLU32       0.3649
     42  OE1      -40.1070  -25.5030   20.9220 O.co2  32  GLU32      -0.2457
     43  OE2      -41.9540  -26.6850   21.2590 O.co2  32  GLU32      -0.2457
     44  N        -40.3920  -23.6460   15.2870 N.am   33  ASN33      -0.1974
     45  CA       -39.9820  -22.7740   14.1970 C.3    33  ASN33       0.1688
     46  C        -41.0350  -22.5920   13.1110 C.2    33  ASN33       0.2292
     47  O        -41.2730  -21.5030   12.6660 O.2    33  ASN33      -0.2864
     48  CB       -38.6890  -23.2950   13.5380 C.3    33  ASN33       0.1181
     49  CG       -37.4990  -23.1770   14.4470 C.2    33  ASN33       0.2629
     50  OD1      -37.5840  -22.5500   15.4930 O.2    33  ASN33      -0.2716
     51  ND2      -36.3930  -23.8120   14.0750 N.am   33  ASN33      -0.0877
     52  N        -44.0370  -20.5550   14.7500 N.3    36  PHE36      -0.1241
     53  CA       -43.6030  -19.1940   14.9790 C.3    36  PHE36       0.1605
     54  C        -43.7080  -18.3740   13.6790 C.2    36  PHE36       0.2264
     55  O        -44.2700  -17.2820   13.6820 O.2    36  PHE36      -0.2867
     56  CB       -42.1780  -19.2590   15.5210 C.3    36  PHE36       0.0534
     57  CG       -41.5910  -17.9410   15.8940 C.ar   36  PHE36      -0.0203
     58  CD1      -40.9380  -17.1750   14.9490 C.ar   36  PHE36      -0.0042
     59  CD2      -41.6560  -17.5010   17.1930 C.ar   36  PHE36      -0.0042
     60  CE1      -40.3760  -15.9730   15.2930 C.ar   36  PHE36      -0.0003
     61  CE2      -41.1040  -16.3000   17.5530 C.ar   36  PHE36      -0.0003
     62  CZ       -40.4630  -15.5240   16.6020 C.ar   36  PHE36      -0.0000
     63  N        -32.5570  -15.2900    9.1050 N.3   213  PRO213     -0.2102
     64  CA       -31.3070  -15.6730    9.7670 C.3   213  PRO213      0.1504
     65  C        -31.4220  -16.7520   10.8670 C.2   213  PRO213      0.2576
     66  O        -32.4930  -16.9920   11.4050 O.2   213  PRO213     -0.2718
     67  CB       -30.8470  -14.3520   10.3800 C.3   213  PRO213      0.0282
     68  CG       -32.1340  -13.6990   10.7690 C.3   213  PRO213      0.0208
     69  CD       -33.0550  -13.9970    9.6100 C.3   213  PRO213      0.0893
     70  N        -30.2770  -17.3500   11.1580 N.am  214  VAL214     -0.1967
     71  CA       -30.0860  -18.2850   12.2470 C.3   214  VAL214      0.1712
     72  C        -28.8630  -17.8410   13.0430 C.2   214  VAL214      0.2458
     73  O        -27.9070  -17.3250   12.4800 O.2   214  VAL214     -0.2730
     74  CB       -29.8820  -19.7130   11.7170 C.3   214  VAL214      0.0289
     75  CG1      -29.3450  -20.6410   12.7910 C.3   214  VAL214      0.0023
     76  CG2      -31.1860  -20.2560   11.1850 C.3   214  VAL214      0.0023
     77  N        -28.8610  -18.0920   14.3380 N.am  215  PRO215     -0.2727
     78  CA       -27.7090  -17.7380   15.1590 C.3   215  PRO215      0.1402
     79  C        -26.4520  -18.5270   14.7990 C.2   215  PRO215      0.2269
     80  O        -26.5150  -19.7250   14.5810 O.2   215  PRO215     -0.2865
     81  CB       -28.1760  -18.1200   16.5550 C.3   215  PRO215      0.0296
     82  CG       -29.6510  -17.9360   16.5180 C.3   215  PRO215      0.0237
     83  CD       -30.1130  -17.9800   15.0910 C.3   215  PRO215      0.0939
     84  N        -27.2110  -14.1780   17.4560 N.3   220  LEU220     -0.1245
     85  CA       -28.1130  -13.4390   16.5790 C.3   220  LEU220      0.1561
     86  C        -28.4140  -11.9880   16.9950 C.2   220  LEU220      0.2260
     87  O        -28.9870  -11.7220   18.0470 O.2   220  LEU220     -0.2867
     88  CB       -29.4220  -14.2090   16.4340 C.3   220  LEU220      0.0270
     89  CG       -30.2970  -13.9180   15.2220 C.3   220  LEU220      0.0019
     90  CD1      -29.5220  -14.1450   13.9430 C.3   220  LEU220      0.0001
     91  CD2      -31.5100  -14.8160   15.2620 C.3   220  LEU220      0.0001
     92  N        -36.4270  -11.8250   15.4860 N.3   224  LEU224     -0.1245
     93  CA       -37.1560  -12.4220   14.3770 C.3   224  LEU224      0.1561
     94  C        -38.6550  -12.0950   14.3710 C.2   224  LEU224      0.2260
     95  O        -39.2080  -11.8980   13.2910 O.2   224  LEU224     -0.2867
     96  CB       -36.9510  -13.9420   14.3360 C.3   224  LEU224      0.0270
     97  CG       -35.6050  -14.4350   13.8170 C.3   224  LEU224      0.0019
     98  CD1      -35.4910  -15.9270   14.0360 C.3   224  LEU224      0.0001
     99  CD2      -35.4180  -14.1190   12.3450 C.3   224  LEU224      0.0001
    100  N        -33.6440  -21.3130    8.3970 N.3   251  TYR251     -0.1241
    101  CA       -34.4400  -20.9890    9.5730 C.3   251  TYR251      0.1605
    102  C        -35.1660  -22.1630   10.1700 C.2   251  TYR251      0.2264
    103  O        -35.2010  -22.2910   11.3950 O.2   251  TYR251     -0.2867
    104  CB       -35.4800  -19.9140    9.2040 C.3   251  TYR251      0.0534
    105  CG       -36.5860  -19.7720   10.2020 C.ar  251  TYR251     -0.0201
    106  CD1      -36.3810  -19.0670   11.3780 C.ar  251  TYR251     -0.0009
    107  CD2      -37.8050  -20.3970   10.0010 C.ar  251  TYR251     -0.0009
    108  CE1      -37.3910  -18.9610   12.3180 C.ar  251  TYR251      0.0417
    109  CE2      -38.8300  -20.3060   10.9320 C.ar  251  TYR251      0.0417
    110  CZ       -38.6330  -19.5790   12.0960 C.ar  251  TYR251      0.1957
    111  OH       -39.6320  -19.4650   13.0610 O.3   251  TYR251     -0.2866
    112  N        -31.5920  -24.2210   14.0810 N.3   255  THR255     -0.1218
    113  CA       -31.5390  -24.1920   15.5370 C.3   255  THR255      0.1862
    114  C        -32.1550  -25.4370   16.1710 C.2   255  THR255      0.2287
    115  O        -32.5270  -25.4180   17.3580 O.2   255  THR255     -0.2866
    116  CB       -32.3150  -22.9760   16.0430 C.3   255  THR255      0.1770
    117  OG1      -33.6050  -22.9730   15.4420 O.3   255  THR255     -0.2211
    118  CG2      -31.5770  -21.6590   15.6510 C.3   255  THR255      0.0375
@<TRIPOS>BOND
     1   100   101    1
     2    63    69    1
     3    63    64    1
     4   104   101    1
     5   104   105    1
     6   101   102    1
     7    69    68    1
     8    64    67    1
     9    64    65    1
    10   107   105   ar
    11   107   109   ar
    12   102   103    2
    13   105   106   ar
    14    67    68    1
    15    65    70   am
    16    65    66    2
    17   109   110   ar
    18    70    71    1
    19    76    74    1
    20   106   108   ar
    21    74    71    1
    22    74    75    1
    23   110   108   ar
    24   110   111    1
    25    71    72    1
    26    99    97    1
    27    73    72    2
    28    47    46    2
    29    72    77   am
    30    46    45    1
    31    95    94    2
    32    48    45    1
    33    48    49    1
    34    54    55    2
    35    54    53    1
    36    97    98    1
    37    97    96    1
    38    90    89    1
    39    51    49   am
    40   112   113    1
    41    45    44    1
    42    96    93    1
    43    77    83    1
    44    77    78    1
    45    94    93    1
    46    93    92    1
    47    49    50    2
    48    80    79    2
    49    52    53    1
    50    79    78    1
    51    58    60   ar
    52    58    57   ar
    53    53    56    1
    54    83    82    1
    55    78    81    1
    56    89    91    1
    57    89    88    1
    58    44    37   am
    59    60    62   ar
    60   117   116    1
    61    56    57    1
    62   113   116    1
    63   113   114    1
    64   118   116    1
    65    29    28    2
    66    38    37    2
    67    57    59   ar
    68    37    36    1
    69   114   115    2
    70    28    27    1
    71    35    36    1
    72    88    85    1
    73    82    81    1
    74    85    86    1
    75    85    84    1
    76    62    61   ar
    77    36    39    1
    78    86    87    2
    79    59    61   ar
    80    31    30    1
    81    31    32    1
    82    27    30    1
    83    27    26    1
    84    33    34    1
    85    33    32    1
    86    39    40    1
    87    25    23   am
    88    40    41    1
    89    23    24    2
    90    23    22    1
    91     8     7    1
    92     7     6    1
    93    22    19    1
    94    19    20    1
    95    19    18    1
    96    41    42   ar
    97    41    43   ar
    98    12    11    2
    99    20    21    2
   100     2     1    1
   101     2     3    1
   102     2     5    1
   103     6     5    1
   104    18    11   am
   105     4     3    2
   106    11    10    1
   107     3     9   am
   108     9    10    1
   109    10    13    1
   110    13    14    1
   111    14    15    1
   112    15    16    1
   113    16    17    1
