@<TRIPOS>MOLECULE
tmp/5gjpA00.pdb
 85 80 0 0 0
SMALL
GASTEIGER

@<TRIPOS>ATOM
      1  N        -33.5230  -28.1970    0.6610 N.3    51  LYS51      -0.1245
      2  CA       -32.1200  -28.3440    0.3510 C.3    51  LYS51       0.1561
      3  C        -31.2770  -28.1510    1.6020 C.2    51  LYS51       0.2260
      4  O        -30.2170  -28.7100    1.7190 O.2    51  LYS51      -0.2867
      5  CB       -31.7030  -27.4080   -0.7740 C.3    51  LYS51       0.0271
      6  CG       -31.3480  -26.0110   -0.3410 C.3    51  LYS51       0.0035
      7  CD       -32.1680  -24.9840   -1.0860 C.3    51  LYS51       0.0206
      8  CE       -32.1400  -25.2380   -2.5790 C.3    51  LYS51       0.1093
      9  NZ       -33.4820  -25.0610   -3.1850 N.3    51  LYS51      -0.1314
     10  N        -35.0910  -13.8240   -4.1940 N.3   171  HIS171     -0.1241
     11  CA       -34.3680  -14.2460   -3.0310 C.3   171  HIS171      0.1621
     12  C        -33.2990  -13.2110   -2.6840 C.2   171  HIS171      0.2264
     13  O        -32.3840  -12.9610   -3.4390 O.2   171  HIS171     -0.2867
     14  CB       -33.7370  -15.6160   -3.2670 C.3   171  HIS171      0.0745
     15  CG       -33.3800  -16.3370   -2.0120 C.ar  171  HIS171      0.0817
     16  ND1      -32.2320  -16.0770   -1.3080 N.ar  171  HIS171     -0.2268
     17  CD2      -33.9980  -17.3350   -1.3520 C.ar  171  HIS171      0.1154
     18  CE1      -32.1560  -16.8720   -0.2600 C.ar  171  HIS171      0.1986
     19  NE2      -33.2250  -17.6410   -0.2540 N.ar  171  HIS171     -0.2212
     20  N        -28.9050  -15.4720    1.4520 N.3   174  SER174     -0.1217
     21  CA       -28.9460  -16.2210    2.7010 C.3   174  SER174      0.1889
     22  C        -28.4070  -15.4630    3.8960 C.2   174  SER174      0.2288
     23  O        -27.5490  -14.6170    3.7560 O.2   174  SER174     -0.2866
     24  CB       -28.2280  -17.5600    2.5440 C.3   174  SER174      0.2089
     25  OG       -29.0120  -18.6220    3.0380 O.3   174  SER174     -0.2183
     26  N        -32.8620  -22.3860    5.9840 N.3   250  ARG250     -0.1245
     27  CA       -31.9390  -22.3720    7.1010 C.3   250  ARG250      0.1563
     28  C        -32.6750  -22.2030    8.4060 C.2   250  ARG250      0.2260
     29  O        -32.4020  -22.8730    9.3740 O.2   250  ARG250     -0.2867
     30  CB       -30.9440  -21.2280    6.8970 C.3   250  ARG250      0.0307
     31  CG       -29.7980  -21.1520    7.8860 C.3   250  ARG250      0.0489
     32  CD       -28.9960  -19.8730    7.7230 C.3   250  ARG250      0.2205
     33  NE       -28.5480  -19.6780    6.3560 N.pl3 250  ARG250     -0.0865
     34  CZ       -27.4230  -20.1620    5.8610 C.cat 250  ARG250      0.5346
     35  NH1      -26.6190  -20.8730    6.6130 N.pl3 250  ARG250      0.1354
     36  NH2      -27.1150  -19.9490    4.6030 N.pl3 250  ARG250      0.1354
     37  N        -19.8070  -26.7670    5.9380 N.3   287  GLY287     -0.1225
     38  CA       -20.3960  -25.4460    5.8540 C.3   287  GLY287      0.1811
     39  C        -19.4130  -24.3120    6.0530 C.2   287  GLY287      0.2280
     40  O        -19.6360  -23.2380    5.5330 O.2   287  GLY287     -0.2866
     41  N        -18.4630  -24.1080    2.1080 N.3   290  TYR290     -0.1227
     42  CA       -19.5120  -23.8260    1.1440 C.3   290  TYR290      0.1736
     43  C        -20.5330  -22.7920    1.5890 C.2   290  TYR290      0.2595
     44  O        -21.2900  -22.2790    0.7710 O.2   290  TYR290     -0.2718
     45  CB       -20.2860  -25.1210    0.8780 C.3   290  TYR290      0.0548
     46  CG       -19.5910  -26.1450    0.0320 C.ar  290  TYR290     -0.0200
     47  CD1      -19.4760  -25.9730   -1.3440 C.ar  290  TYR290     -0.0009
     48  CD2      -19.1090  -27.3320    0.5900 C.ar  290  TYR290     -0.0009
     49  CE1      -18.8720  -26.9410   -2.1300 C.ar  290  TYR290      0.0417
     50  CE2      -18.5130  -28.3070   -0.1980 C.ar  290  TYR290      0.0417
     51  CZ       -18.3970  -28.0920   -1.5520 C.ar  290  TYR290      0.1957
     52  OH       -17.8020  -29.0150   -2.3360 O.3   290  TYR290     -0.2866
     53  N        -20.6030  -22.5560    2.8930 N.am  291  ASP291     -0.1974
     54  CA       -21.5890  -21.6780    3.5270 C.3   291  ASP291      0.1709
     55  C        -20.9300  -20.5160    4.3400 C.2   291  ASP291      0.2293
     56  O        -21.6220  -19.7980    5.0400 O.2   291  ASP291     -0.2864
     57  CB       -22.4780  -22.5750    4.4310 C.3   291  ASP291      0.1436
     58  CG       -23.8310  -21.9410    4.7920 C.2   291  ASP291      0.3671
     59  OD1      -24.4470  -21.2980    3.9240 O.co2 291  ASP291     -0.2456
     60  OD2      -24.2810  -22.0700    5.9660 O.co2 291  ASP291     -0.2456
     61  N        -27.4070  -26.8390    6.0180 N.3   344  TYR344     -0.1241
     62  CA       -26.2190  -26.7530    5.1470 C.3   344  TYR344      0.1605
     63  C        -25.0230  -27.3680    5.8440 C.2   344  TYR344      0.2264
     64  O        -23.8790  -26.9140    5.7050 O.2   344  TYR344     -0.2867
     65  CB       -25.9780  -25.2950    4.7000 C.3   344  TYR344      0.0534
     66  CG       -27.2000  -24.7160    4.0030 C.ar  344  TYR344     -0.0201
     67  CD1      -27.6310  -25.2270    2.7820 C.ar  344  TYR344     -0.0009
     68  CD2      -27.9380  -23.7300    4.5720 C.ar  344  TYR344     -0.0009
     69  CE1      -28.7490  -24.7390    2.1270 C.ar  344  TYR344      0.0417
     70  CE2      -29.0540  -23.2350    3.9430 C.ar  344  TYR344      0.0417
     71  CZ       -29.4530  -23.7380    2.7210 C.ar  344  TYR344      0.1957
     72  OH       -30.5680  -23.2190    2.0880 O.3   344  TYR344     -0.2866
     73  N        -26.0700  -32.0900    4.6920 N.3   347  VAL347     -0.1231
     74  CA       -26.3210  -32.0730    3.2490 C.3   347  VAL347      0.1692
     75  C        -25.1250  -31.8750    2.3740 C.2   347  VAL347      0.2592
     76  O        -25.2300  -32.2170    1.1890 O.2   347  VAL347     -0.2718
     77  CB       -27.3940  -31.0320    2.8110 C.3   347  VAL347      0.0266
     78  CG1      -28.7100  -31.3710    3.4580 C.3   347  VAL347      0.0020
     79  CG2      -27.0500  -29.6050    3.1610 C.3   347  VAL347      0.0020
     80  N        -24.0210  -31.2990    2.9050 N.am  348  SER348     -0.1952
     81  CA       -22.7300  -31.3090    2.1730 C.3   348  SER348      0.1924
     82  C        -21.6260  -32.2770    2.7220 C.2   348  SER348      0.2314
     83  O        -20.4930  -32.2780    2.2150 O.2   348  SER348     -0.2863
     84  CB       -22.1880  -29.8830    1.9300 C.3   348  SER348      0.2116
     85  OG       -22.1330  -29.0830    3.0950 O.3   348  SER348     -0.2180
@<TRIPOS>BOND
     1    10    11    1
     2    13    12    2
     3    14    11    1
     4    14    15    1
     5     9     8    1
     6    11    12    1
     7     8     7    1
     8    52    51    1
     9    49    51   ar
    10    49    47   ar
    11    15    17   ar
    12    15    16   ar
    13    51    50   ar
    14    17    19   ar
    15    47    46   ar
    16    16    18   ar
    17     7     6    1
    18     5     6    1
    19     5     2    1
    20    18    19   ar
    21    50    48   ar
    22    46    48   ar
    23    46    45    1
    24     2     1    1
    25     2     3    1
    26    44    43    2
    27    45    42    1
    28    42    43    1
    29    42    41    1
    30    76    75    2
    31    20    21    1
    32    43    53   am
    33     3     4    2
    34    84    81    1
    35    84    85    1
    36    72    71    1
    37    69    71   ar
    38    69    67   ar
    39    81    82    1
    40    81    80    1
    41    83    82    2
    42    75    80   am
    43    75    74    1
    44    24    21    1
    45    24    25    1
    46    21    22    1
    47    71    70   ar
    48    67    66   ar
    49    77    79    1
    50    77    74    1
    51    77    78    1
    52    53    54    1
    53    74    73    1
    54    54    55    1
    55    54    57    1
    56    23    22    2
    57    59    58   ar
    58    70    68   ar
    59    66    68   ar
    60    66    65    1
    61    55    56    2
    62    57    58    1
    63    36    34    1
    64    65    62    1
    65    58    60   ar
    66    62    63    1
    67    62    61    1
    68    40    39    2
    69    64    63    2
    70    38    37    1
    71    38    39    1
    72    34    33    2
    73    34    35    1
    74    26    27    1
    75    33    32    1
    76    30    27    1
    77    30    31    1
    78    27    28    1
    79    32    31    1
    80    28    29    2
