@<TRIPOS>MOLECULE
tmp/5gjuA00.pdb
 111 107 0 0 0
SMALL
GASTEIGER

@<TRIPOS>ATOM
      1  N         42.2900   22.3330    6.5160 N.3     3  PHE3       -0.1241
      2  CA        41.5680   22.1630    7.7760 C.3     3  PHE3        0.1605
      3  C         42.4290   22.5520    8.9630 C.2     3  PHE3        0.2264
      4  O         41.9190   23.1210    9.9340 O.2     3  PHE3       -0.2867
      5  CB        41.0560   20.7330    7.9150 C.3     3  PHE3        0.0534
      6  CG        39.8120   20.4640    7.1120 C.ar    3  PHE3       -0.0203
      7  CD1       38.5810   20.9980    7.4920 C.ar    3  PHE3       -0.0042
      8  CD2       39.8730   19.7020    5.9690 C.ar    3  PHE3       -0.0042
      9  CE1       37.4390   20.7440    6.7620 C.ar    3  PHE3       -0.0003
     10  CE2       38.7150   19.4360    5.2370 C.ar    3  PHE3       -0.0003
     11  CZ        37.5140   19.9710    5.6330 C.ar    3  PHE3       -0.0000
     12  N         38.5650   11.0030    3.7800 N.3    20  GLY20      -0.1210
     13  CA        38.9220   11.4240    2.4570 C.3    20  GLY20       0.1956
     14  C         38.5840   12.8590    2.1540 C.2    20  GLY20       0.2612
     15  O         38.5080   13.2210    0.9790 O.2    20  GLY20      -0.2717
     16  N         38.3580   13.6910    3.1730 N.am   21  TYR21      -0.1962
     17  CA        38.1620   15.1190    2.9450 C.3    21  TYR21       0.1771
     18  C         39.5170   15.7690    2.7390 C.2    21  TYR21       0.2619
     19  O         40.3410   15.8040    3.6570 O.2    21  TYR21      -0.2715
     20  CB        37.4710   15.8230    4.1080 C.3    21  TYR21       0.0574
     21  CG        36.0410   15.4290    4.4120 C.ar   21  TYR21      -0.0198
     22  CD1       35.4500   14.3460    3.7860 C.ar   21  TYR21      -0.0009
     23  CD2       35.2850   16.1490    5.3240 C.ar   21  TYR21      -0.0009
     24  CE1       34.1700   13.9890    4.0620 C.ar   21  TYR21       0.0417
     25  CE2       33.9850   15.7880    5.6090 C.ar   21  TYR21       0.0417
     26  CZ        33.4440   14.7020    4.9820 C.ar   21  TYR21       0.1957
     27  OH        32.1590   14.3220    5.2540 O.3    21  TYR21      -0.2866
     28  N         39.7250   16.3280    1.5580 N.am   22  GLU22      -0.1963
     29  CA        41.0030   16.9090    1.2220 C.3    22  GLU22       0.1733
     30  C         41.0920   18.3760    1.6030 C.2    22  GLU22       0.2616
     31  O         42.1340   18.8230    2.0930 O.2    22  GLU22      -0.2715
     32  CB        41.2540   16.7350   -0.2750 C.3    22  GLU22       0.0429
     33  CG        41.3130   15.2720   -0.7450 C.3    22  GLU22       0.1163
     34  CD        42.6880   14.6500   -0.6330 C.2    22  GLU22       0.3649
     35  OE1       43.6400   15.3470   -0.2210 O.co2  22  GLU22      -0.2457
     36  OE2       42.8190   13.4520   -0.9680 O.co2  22  GLU22      -0.2457
     37  N         40.0590   19.1590    1.3370 N.am   23  LYS23      -0.1977
     38  CA        40.1100   20.5660    1.6910 C.3    23  LYS23       0.1596
     39  C         38.7580   21.0600    2.1670 C.2    23  LYS23       0.2287
     40  O         37.7160   20.5090    1.7970 O.2    23  LYS23      -0.2864
     41  CB        40.5520   21.4260    0.5110 C.3    23  LYS23       0.0298
     42  CG        39.6630   21.3170   -0.6600 C.3    23  LYS23       0.0038
     43  CD        40.1860   22.1710   -1.8180 C.3    23  LYS23       0.0206
     44  CE        39.7500   23.6070   -1.6740 C.3    23  LYS23       0.1093
     45  NZ        40.3560   24.4700   -2.7160 N.3    23  LYS23      -0.1314
     46  N         35.3050   23.0490    2.3870 N.3    25  SER25      -0.1217
     47  CA        34.3580   23.7480    1.5400 C.3    25  SER25       0.1889
     48  C         34.2510   25.1940    1.9910 C.2    25  SER25       0.2288
     49  O         34.6340   25.5290    3.1120 O.2    25  SER25      -0.2866
     50  CB        32.9860   23.1010    1.6100 C.3    25  SER25       0.2089
     51  OG        32.4020   23.2880    2.8690 O.3    25  SER25      -0.2183
     52  N         32.5860   25.7360    5.3330 N.3    28  GLN28      -0.1245
     53  CA        33.4460   25.2520    6.4070 C.3    28  GLN28       0.1566
     54  C         34.5480   26.2600    6.7170 C.2    28  GLN28       0.2260
     55  O         34.8210   26.5690    7.8880 O.2    28  GLN28      -0.2867
     56  CB        34.0250   23.8960    5.9860 C.3    28  GLN28       0.0367
     57  CG        33.0020   22.7830    6.0190 C.3    28  GLN28       0.0905
     58  CD        33.3600   21.5650    5.1950 C.2    28  GLN28       0.2608
     59  OE1       34.4790   21.4430    4.6790 O.2    28  GLN28      -0.2717
     60  NE2       32.4030   20.6380    5.1010 N.am   28  GLN28      -0.0878
     61  N         22.1070   21.4400    1.8900 N.3    47  THR47      -0.1203
     62  CA        22.8380   20.1850    1.8190 C.3    47  THR47       0.1994
     63  C         23.6980   20.2000    0.5680 C.2    47  THR47       0.2618
     64  O         23.3260   20.7550   -0.4740 O.2    47  THR47      -0.2717
     65  CB        21.8920   18.9770    1.8180 C.3    47  THR47       0.1784
     66  OG1       21.2670   18.8640    3.1080 O.3    47  THR47      -0.2211
     67  CG2       22.6560   17.6610    1.5240 C.3    47  THR47       0.0376
     68  N         24.8590   19.5990    0.6850 N.am   48  GLY48      -0.1942
     69  CA        25.8150   19.6080   -0.3670 C.3    48  GLY48       0.2014
     70  C         26.9210   20.6110   -0.1410 C.2    48  GLY48       0.2640
     71  O         28.0270   20.3950   -0.6110 O.2    48  GLY48      -0.2714
     72  N         26.6520   21.6740    0.6340 N.am   49  SER49      -0.1935
     73  CA        27.6430   22.6990    0.9220 C.3    49  SER49       0.2055
     74  C         28.7300   22.2070    1.8760 C.2    49  SER49       0.2644
     75  O         29.8110   22.7940    1.9170 O.2    49  SER49      -0.2714
     76  CB        26.9730   23.9400    1.5400 C.3    49  SER49       0.2130
     77  OG        26.3610   23.5910    2.7810 O.3    49  SER49      -0.2179
     78  N         28.4360   21.2010    2.6890 N.am   50  GLY50      -0.1939
     79  CA        29.3050   20.7960    3.7550 C.3    50  GLY50       0.2014
     80  C         28.9270   21.3960    5.0890 C.2    50  GLY50       0.2639
     81  O         29.7900   21.5190    5.9570 O.2    50  GLY50      -0.2714
     82  N         27.6580   21.7420    5.2800 N.am   51  LYS51      -0.1963
     83  CA        27.2440   22.4050    6.5060 C.3    51  LYS51       0.1728
     84  C         27.3760   21.4970    7.7190 C.2    51  LYS51       0.2617
     85  O         27.6370   21.9810    8.8190 O.2    51  LYS51      -0.2715
     86  CB        25.8080   22.9100    6.3720 C.3    51  LYS51       0.0311
     87  CG        24.8350   21.8580    5.9540 C.3    51  LYS51       0.0038
     88  CD        23.4370   22.3870    5.9240 C.3    51  LYS51       0.0206
     89  CE        22.5060   21.3340    5.3650 C.3    51  LYS51       0.1093
     90  NZ        21.4400   21.0640    6.2800 N.3    51  LYS51      -0.1314
     91  N         27.2320   20.1790    7.5510 N.am   52  THR52      -0.1937
     92  CA        27.3320   19.2990    8.7160 C.3    52  THR52       0.2028
     93  C         28.7050   19.4020    9.3800 C.2    52  THR52       0.2642
     94  O         28.8110   19.5810   10.6030 O.2    52  THR52      -0.2714
     95  CB        27.0360   17.8450    8.3260 C.3    52  THR52       0.1808
     96  OG1       25.7670   17.7610    7.6890 O.3    52  THR52      -0.2208
     97  CG2       26.9850   16.9760    9.5520 C.3    52  THR52       0.0379
     98  N         29.7800   19.2860    8.6070 N.am   53  ALA53      -0.1977
     99  CA        31.1080   19.4380    9.1910 C.3    53  ALA53       0.1597
    100  C         31.3420   20.8690    9.6810 C.2    53  ALA53       0.2287
    101  O         32.0600   21.0690   10.6760 O.2    53  ALA53      -0.2864
    102  CB        32.1750   19.0280    8.1790 C.3    53  ALA53       0.0319
    103  N         21.6810   10.8110    9.7320 N.3    84  GLN84      -0.1245
    104  CA        22.8450   11.1620    8.9110 C.3    84  GLN84       0.1566
    105  C         23.8330   12.0210    9.6900 C.2    84  GLN84       0.2260
    106  O         25.0570   11.8310    9.5970 O.2    84  GLN84      -0.2867
    107  CB        22.4070   11.9090    7.6410 C.3    84  GLN84       0.0367
    108  CG        23.5750   12.4130    6.7440 C.3    84  GLN84       0.0905
    109  CD        23.5940   13.9590    6.4940 C.2    84  GLN84       0.2608
    110  OE1       22.7780   14.4920    5.7190 O.2    84  GLN84      -0.2717
    111  NE2       24.5540   14.6680    7.1310 N.am   84  GLN84      -0.0878
@<TRIPOS>BOND
     1    45    44    1
     2    43    44    1
     3    43    42    1
     4    36    34   ar
     5    33    34    1
     6    33    32    1
     7    42    41    1
     8    34    35   ar
     9    71    70    2
    10    64    63    2
    11    69    70    1
    12    69    68    1
    13    32    29    1
    14    70    72   am
    15    41    38    1
    16    63    68   am
    17    63    62    1
    18    72    73    1
    19    73    76    1
    20    73    74    1
    21    15    14    2
    22    29    28    1
    23    29    30    1
    24    37    30   am
    25    37    38    1
    26    67    65    1
    27    47    50    1
    28    47    48    1
    29    47    46    1
    30    76    77    1
    31    28    18   am
    32    30    31    2
    33    50    51    1
    34    38    39    1
    35    40    39    2
    36    65    62    1
    37    65    66    1
    38    62    61    1
    39    74    75    2
    40    74    78   am
    41    48    49    2
    42    14    13    1
    43    14    16   am
    44    13    12    1
    45    78    79    1
    46    18    17    1
    47    18    19    2
    48    17    16    1
    49    17    20    1
    50    79    80    1
    51    22    24   ar
    52    22    21   ar
    53    24    26   ar
    54    20    21    1
    55    21    23   ar
    56    59    58    2
    57    26    27    1
    58    26    25   ar
    59    80    82   am
    60    80    81    2
    61    60    58   am
    62    58    57    1
    63    10    11   ar
    64    10     8   ar
    65    82    83    1
    66    23    25   ar
    67    52    53    1
    68    89    88    1
    69    89    90    1
    70    11     9   ar
    71   110   109    2
    72    88    87    1
    73    87    86    1
    74     8     6   ar
    75    56    57    1
    76    56    53    1
    77    86    83    1
    78    53    54    1
    79   109   108    1
    80   109   111   am
    81    83    84    1
    82     1     2    1
    83    54    55    2
    84   108   107    1
    85     9     7   ar
    86     6     7   ar
    87     6     5    1
    88    91    84   am
    89    91    92    1
    90   107   104    1
    91    96    95    1
    92    84    85    2
    93     2     5    1
    94     2     3    1
    95   102    99    1
    96    95    92    1
    97    95    97    1
    98    98    99    1
    99    98    93   am
   100    92    93    1
   101   104   105    1
   102   104   103    1
   103     3     4    2
   104    99   100    1
   105    93    94    2
   106   106   105    2
   107   100   101    2
