@<TRIPOS>MOLECULE
tmp/5gjvE00.pdb
 78 70 0 0 0
SMALL
GASTEIGER

@<TRIPOS>ATOM
      1  N        230.0330  115.8080  200.3830 N.3    13  LYS13      -0.1245
      2  CA       231.1610  116.5900  199.9020 C.3    13  LYS13       0.1561
      3  C        230.7560  118.0420  199.6860 C.2    13  LYS13       0.2260
      4  O        231.5020  118.9630  200.0320 O.2    13  LYS13      -0.2867
      5  CB       231.7070  115.9770  198.6130 C.3    13  LYS13       0.0271
      6  CG       232.9390  116.6690  198.0710 C.3    13  LYS13       0.0035
      7  CD       234.0840  116.5920  199.0650 C.3    13  LYS13       0.0206
      8  CE       234.5510  115.1580  199.2870 C.3    13  LYS13       0.1093
      9  NZ       235.2050  114.5730  198.0850 N.3    13  LYS13      -0.1314
     10  N        231.8200  121.6240  201.8390 N.3    17  ASP17      -0.1239
     11  CA       232.3400  122.7890  201.1390 C.3    17  ASP17       0.1674
     12  C        231.7250  124.0700  201.6760 C.2    17  ASP17       0.2266
     13  O        232.4320  124.9430  202.1900 O.2    17  ASP17      -0.2867
     14  CB       232.0810  122.6560  199.6460 C.3    17  ASP17       0.1410
     15  CG       232.9000  121.5610  199.0210 C.2    17  ASP17       0.3668
     16  OD1      234.0020  121.2840  199.5460 O.co2  17  ASP17      -0.2456
     17  OD2      232.4460  120.9780  198.0130 O.co2  17  ASP17      -0.2456
     18  N        233.6200  126.8340  204.0340 N.3    21  LEU21      -0.1245
     19  CA       233.8420  128.1300  203.4090 C.3    21  LEU21       0.1561
     20  C        233.1510  129.2290  204.2040 C.2    21  LEU21       0.2260
     21  O        233.6280  130.3670  204.2470 O.2    21  LEU21      -0.2867
     22  CB       233.3510  128.0970  201.9620 C.3    21  LEU21       0.0270
     23  CG       233.6930  129.2010  200.9520 C.3    21  LEU21       0.0019
     24  CD1      233.6580  128.6140  199.5560 C.3    21  LEU21       0.0001
     25  CD2      232.7820  130.3960  200.9980 C.3    21  LEU21       0.0001
     26  N        240.2690  136.7120  199.5590 N.3   672  ILE672     -0.1231
     27  CA       240.1450  135.2630  199.4090 C.3   672  ILE672      0.1692
     28  C        239.6950  134.8880  197.9960 C.2   672  ILE672      0.2592
     29  O        238.9230  135.6210  197.3660 O.2   672  ILE672     -0.2718
     30  CB       239.1700  134.7350  200.4870 C.3   672  ILE672      0.0266
     31  CG1      239.7160  135.0610  201.8710 C.3   672  ILE672      0.0019
     32  CG2      238.9330  133.2380  200.4140 C.3   672  ILE672      0.0020
     33  CD1      241.0460  134.4200  202.1300 C.3   672  ILE672      0.0001
     34  N        240.2140  133.7500  197.4940 N.am  673  LYS673     -0.1966
     35  CA       239.9260  133.1390  196.1920 C.3   673  LYS673      0.1728
     36  C        238.4480  133.1200  195.8140 C.2   673  LYS673      0.2616
     37  O        238.1130  133.2980  194.6400 O.2   673  LYS673     -0.2715
     38  CB       240.4590  131.7010  196.2110 C.3   673  LYS673      0.0311
     39  CG       240.3560  130.9230  194.9110 C.3   673  LYS673      0.0038
     40  CD       240.8810  129.5010  195.0790 C.3   673  LYS673      0.0206
     41  CE       242.3860  129.4690  195.2520 C.3   673  LYS673      0.1093
     42  NZ       243.0830  129.9060  194.0140 N.3   673  LYS673     -0.1314
     43  N        237.5920  132.8090  196.7790 N.am  674  GLY674     -0.1955
     44  CA       236.1900  132.5860  196.5020 C.3   674  GLY674      0.1869
     45  C        235.3290  133.7260  196.9780 C.2   674  GLY674      0.2309
     46  O        235.6070  134.8860  196.6910 O.2   674  GLY674     -0.2863
     47  N        232.4770  130.7260  190.8910 N.3   766  SER766     -0.1217
     48  CA       233.4040  129.7840  191.5030 C.3   766  SER766      0.1889
     49  C        232.6760  128.5830  192.0830 C.2   766  SER766      0.2288
     50  O        233.2320  127.4810  192.1280 O.2   766  SER766     -0.2866
     51  CB       234.2270  130.4840  192.5850 C.3   766  SER766      0.2089
     52  OG       233.4130  130.8940  193.6670 O.3   766  SER766     -0.2183
     53  N        233.3670  124.3300  191.3410 N.3   770  ASN770     -0.1240
     54  CA       233.4270  123.1400  192.1790 C.3   770  ASN770      0.1653
     55  C        232.3450  122.1450  191.7990 C.2   770  ASN770      0.2266
     56  O        232.6170  120.9450  191.7100 O.2   770  ASN770     -0.2867
     57  CB       233.3130  123.4610  193.6710 C.3   770  ASN770      0.1155
     58  CG       234.6150  123.9410  194.2920 C.2   770  ASN770      0.2627
     59  OD1      235.6890  123.5950  193.8100 O.2   770  ASN770     -0.2716
     60  ND2      234.5090  124.6470  195.4370 N.am  770  ASN770     -0.0877
     61  N        233.3690  118.3680  190.7780 N.3   774  THR774     -0.1218
     62  CA       233.0220  117.2770  191.6820 C.3   774  THR774      0.1862
     63  C        232.2590  116.1610  190.9840 C.2   774  THR774      0.2287
     64  O        232.2020  115.0470  191.5140 O.2   774  THR774     -0.2866
     65  CB       232.2020  117.7800  192.8750 C.3   774  THR774      0.1770
     66  OG1      231.0520  118.5020  192.4110 O.3   774  THR774     -0.2211
     67  CG2      233.0420  118.6050  193.8540 C.3   774  THR774      0.0375
     68  N        234.6930  113.5850  189.1790 N.3   777  ARG777     -0.1245
     69  CA       235.5310  112.8310  190.1010 C.3   777  ARG777      0.1563
     70  C        234.7000  111.7980  190.8520 C.2   777  ARG777      0.2260
     71  O        235.2200  110.7750  191.2930 O.2   777  ARG777     -0.2867
     72  CB       236.2290  113.7630  191.0940 C.3   777  ARG777      0.0307
     73  CG       237.2260  114.7140  190.4620 C.3   777  ARG777      0.0489
     74  CD       238.0790  115.3920  191.5190 C.3   777  ARG777      0.2205
     75  NE       237.3090  116.2120  192.4500 N.pl3 777  ARG777     -0.0865
     76  CZ       237.0280  117.4960  192.2620 C.cat 777  ARG777      0.5346
     77  NH1      237.4460  118.1110  191.1660 N.pl3 777  ARG777      0.1354
     78  NH2      236.3290  118.1640  193.1670 N.pl3 777  ARG777      0.1354
@<TRIPOS>BOND
     1    68    69    1
     2    69    70    1
     3    69    72    1
     4    73    72    1
     5    73    74    1
     6    61    62    1
     7    70    71    2
     8    47    48    1
     9    63    64    2
    10    63    62    1
    11    77    76    1
    12    53    54    1
    13    48    49    1
    14    48    51    1
    15    74    75    1
    16    62    65    1
    17    56    55    2
    18    55    54    1
    19    49    50    2
    20    54    57    1
    21    76    75    2
    22    76    78    1
    23    66    65    1
    24    51    52    1
    25    65    67    1
    26    57    58    1
    27    59    58    2
    28    42    41    1
    29    58    60   am
    30    37    36    2
    31    39    40    1
    32    39    38    1
    33    40    41    1
    34    36    35    1
    35    36    43   am
    36    35    38    1
    37    35    34    1
    38    44    43    1
    39    44    45    1
    40    46    45    2
    41    29    28    2
    42    34    28   am
    43    28    27    1
    44    17    15   ar
    45     6     5    1
    46     6     7    1
    47     9     8    1
    48     5     2    1
    49    15    16   ar
    50    15    14    1
    51     7     8    1
    52    27    26    1
    53    27    30    1
    54    24    23    1
    55    14    11    1
    56     3     2    1
    57     3     4    2
    58     2     1    1
    59    32    30    1
    60    30    31    1
    61    23    25    1
    62    23    22    1
    63    11    12    1
    64    11    10    1
    65    12    13    2
    66    31    33    1
    67    22    19    1
    68    19    18    1
    69    19    20    1
    70    20    21    2
