@<TRIPOS>MOLECULE
tmp/5gjvE02.pdb
 112 108 0 0 0
SMALL
GASTEIGER

@<TRIPOS>ATOM
      1  N        178.0000  179.3400  224.0010 N.3    82  GLN82      -0.1245
      2  CA       176.7700  179.1690  223.2380 C.3    82  GLN82       0.1566
      3  C        175.5460  179.7300  223.9490 C.2    82  GLN82       0.2260
      4  O        174.5980  180.1720  223.2880 O.2    82  GLN82      -0.2867
      5  CB       176.6000  177.6880  222.9180 C.3    82  GLN82       0.0367
      6  CG       175.3020  177.2760  222.2820 C.3    82  GLN82       0.0905
      7  CD       175.0150  177.9920  221.0090 C.2    82  GLN82       0.2608
      8  OE1      175.8970  178.2260  220.2030 O.2    82  GLN82      -0.2717
      9  NE2      173.7600  178.3350  220.8100 N.am   82  GLN82      -0.0878
     10  N        174.3100  184.2920  223.2530 N.3    85  HIS85      -0.1241
     11  CA       174.5050  184.4930  221.8300 C.3    85  HIS85       0.1621
     12  C        173.5590  185.4830  221.1590 C.2    85  HIS85       0.2264
     13  O        173.9780  186.2370  220.2750 O.2    85  HIS85      -0.2867
     14  CB       174.3970  183.1610  221.1320 C.3    85  HIS85       0.0745
     15  CG       174.6180  183.2710  219.6750 C.ar   85  HIS85       0.0817
     16  ND1      175.8590  183.5280  219.1490 N.ar   85  HIS85      -0.2268
     17  CD2      173.7660  183.2120  218.6340 C.ar   85  HIS85       0.1154
     18  CE1      175.7640  183.5980  217.8370 C.ar   85  HIS85       0.1986
     19  NE2      174.5030  183.4090  217.4990 N.ar   85  HIS85      -0.2212
     20  N        171.4650  185.6800  218.8010 N.3    87  TRP87      -0.1241
     21  CA       171.0180  185.4950  217.4150 C.3    87  TRP87       0.1605
     22  C        171.0250  186.7800  216.5890 C.2    87  TRP87       0.2264
     23  O        169.9770  187.3930  216.3930 O.2    87  TRP87      -0.2867
     24  CB       169.6210  184.8540  217.3610 C.3    87  TRP87       0.0550
     25  CG       169.1930  184.4820  215.9580 C.ar   87  TRP87       0.0003
     26  CD1      168.3990  185.2060  215.1310 C.ar   87  TRP87       0.0946
     27  CD2      169.5190  183.2880  215.2410 C.ar   87  TRP87       0.0152
     28  NE1      168.2380  184.5670  213.9360 N.ar   87  TRP87      -0.2442
     29  CE2      168.9100  183.3790  213.9820 C.ar   87  TRP87       0.0810
     30  CE3      170.2610  182.1480  215.5460 C.ar   87  TRP87       0.0012
     31  CZ2      169.0270  182.3820  213.0270 C.ar   87  TRP87       0.0191
     32  CZ3      170.3900  181.1710  214.5910 C.ar   87  TRP87       0.0001
     33  CH2      169.7720  181.2890  213.3510 C.ar   87  TRP87       0.0015
     34  N        177.1550  181.1220  212.9850 N.3   141  GLU141     -0.1245
     35  CA       177.8480  180.1220  213.7840 C.3   141  GLU141      0.1567
     36  C        179.3540  180.3360  213.7100 C.2   141  GLU141      0.2260
     37  O        180.1190  179.7300  214.4620 O.2   141  GLU141     -0.2867
     38  CB       177.4230  178.7340  213.3260 C.3   141  GLU141      0.0388
     39  CG       177.7670  177.6080  214.2570 C.3   141  GLU141      0.1160
     40  CD       177.1890  176.3010  213.7950 C.2   141  GLU141      0.3649
     41  OE1      176.6150  176.2680  212.6920 O.co2 141  GLU141     -0.2457
     42  OE2      177.2600  175.3160  214.5530 O.co2 141  GLU141     -0.2457
     43  N        179.8340  182.6280  217.4650 N.3   144  TRP144     -0.1241
     44  CA       180.0790  182.1160  218.8110 C.3   144  TRP144      0.1605
     45  C        181.2070  181.1030  218.8440 C.2   144  TRP144      0.2264
     46  O        181.7800  180.8560  219.9020 O.2   144  TRP144     -0.2867
     47  CB       178.8200  181.4940  219.4000 C.3   144  TRP144      0.0550
     48  CG       178.3310  180.3510  218.6580 C.ar  144  TRP144      0.0003
     49  CD1      177.4640  180.3770  217.6340 C.ar  144  TRP144      0.0946
     50  CD2      178.6640  178.9830  218.8720 C.ar  144  TRP144      0.0152
     51  NE1      177.2290  179.1120  217.1790 N.ar  144  TRP144     -0.2442
     52  CE2      177.9790  178.2380  217.9170 C.ar  144  TRP144      0.0810
     53  CE3      179.5080  178.3220  219.7580 C.ar  144  TRP144      0.0012
     54  CZ2      178.0800  176.8680  217.8390 C.ar  144  TRP144      0.0191
     55  CZ3      179.6090  176.9620  219.6770 C.ar  144  TRP144      0.0001
     56  CH2      178.9000  176.2500  218.7320 C.ar  144  TRP144      0.0015
     57  N        173.3590  171.4920  223.3100 N.3   420  ASN420     -0.1240
     58  CA       172.8230  172.8480  223.2720 C.3   420  ASN420      0.1653
     59  C        172.1960  173.1500  224.6330 C.2   420  ASN420      0.2266
     60  O        171.1150  172.6800  224.9820 O.2   420  ASN420     -0.2867
     61  CB       171.8380  172.9640  222.1170 C.3   420  ASN420      0.1155
     62  CG       171.3660  174.3640  221.8780 C.2   420  ASN420      0.2627
     63  OD1      171.7120  175.2910  222.5970 O.2   420  ASN420     -0.2716
     64  ND2      170.5670  174.5360  220.8410 N.am  420  ASN420     -0.0877
     65  N        170.8320  176.1530  226.7440 N.3   422  THR422     -0.1218
     66  CA       170.4340  177.5370  226.5410 C.3   422  THR422      0.1862
     67  C        169.2870  177.9310  227.4580 C.2   422  THR422      0.2287
     68  O        168.8160  179.0690  227.4140 O.2   422  THR422     -0.2866
     69  CB       170.0530  177.7540  225.0820 C.3   422  THR422      0.1770
     70  OG1      169.8170  179.1430  224.8420 O.3   422  THR422     -0.2211
     71  CG2      168.8060  176.9770  224.7700 C.3   422  THR422      0.0375
     72  N        161.9100  175.5220  226.8340 N.3   430  ASN430     -0.1225
     73  CA       162.8510  174.4740  226.3790 C.3   430  ASN430      0.1785
     74  C        162.4740  173.8880  225.0210 C.2   430  ASN430      0.2597
     75  O        162.0970  172.7200  224.9110 O.2   430  ASN430     -0.2718
     76  CB       163.0140  173.3590  227.4140 C.3   430  ASN430      0.1169
     77  CG       163.8390  173.7900  228.6030 C.2   430  ASN430      0.2627
     78  OD1      164.8590  174.4640  228.4490 O.2   430  ASN430     -0.2716
     79  ND2      163.4070  173.4010  229.7990 N.am  430  ASN430     -0.0877
     80  N        162.6030  174.7010  223.9780 N.am  431  LEU431     -0.1966
     81  CA       161.9380  174.4110  222.7170 C.3   431  LEU431      0.1728
     82  C        162.6590  173.3210  221.9290 C.2   431  LEU431      0.2616
     83  O        162.1580  172.2000  221.7980 O.2   431  LEU431     -0.2715
     84  CB       161.8540  175.7100  221.9170 C.3   431  LEU431      0.0311
     85  CG       161.1220  175.8290  220.5910 C.3   431  LEU431      0.0022
     86  CD1      159.6470  175.5250  220.7900 C.3   431  LEU431      0.0001
     87  CD2      161.3170  177.2420  220.0810 C.3   431  LEU431      0.0001
     88  N        163.8440  173.6480  221.4170 N.am  432  LYS432     -0.1963
     89  CA       164.6060  172.7230  220.5770 C.3   432  LYS432      0.1728
     90  C        165.9570  172.3050  221.1680 C.2   432  LYS432      0.2616
     91  O        166.9350  172.1390  220.4390 O.2   432  LYS432     -0.2715
     92  CB       164.8100  173.3190  219.1820 C.3   432  LYS432      0.0311
     93  CG       165.4530  172.3650  218.1880 C.3   432  LYS432      0.0038
     94  CD       166.0220  173.1140  216.9940 C.3   432  LYS432      0.0206
     95  CE       167.5330  173.2500  217.0950 C.3   432  LYS432      0.1093
     96  NZ       168.0990  174.0220  215.9550 N.3   432  LYS432     -0.1314
     97  N        166.0000  172.1300  222.4840 N.am  433  ASN433     -0.1972
     98  CA       167.1810  171.6350  223.1670 C.3   433  ASN433      0.1688
     99  C        167.5200  170.1960  222.8130 C.2   433  ASN433      0.2292
    100  O        168.5410  169.6950  223.2760 O.2   433  ASN433     -0.2864
    101  CB       166.9990  171.7810  224.6830 C.3   433  ASN433      0.1181
    102  CG       165.7500  171.0570  225.2220 C.2   433  ASN433      0.2629
    103  OD1      165.0320  170.3680  224.4970 O.2   433  ASN433     -0.2716
    104  ND2      165.5000  171.2200  226.5180 N.am  433  ASN433     -0.0877
    105  N        175.0590  170.1090  219.0050 N.3   437  LEU437     -0.1245
    106  CA       175.7100  171.0910  218.1560 C.3   437  LEU437      0.1561
    107  C        176.7130  170.4400  217.2260 C.2   437  LEU437      0.2260
    108  O        176.6920  170.6630  216.0160 O.2   437  LEU437     -0.2867
    109  CB       176.4330  172.1360  218.9890 C.3   437  LEU437      0.0270
    110  CG       175.5580  172.9670  219.8820 C.3   437  LEU437      0.0019
    111  CD1      176.4090  173.9740  220.6100 C.3   437  LEU437      0.0001
    112  CD2      174.5350  173.6140  219.0490 C.3   437  LEU437      0.0001
@<TRIPOS>BOND
     1    41    40   ar
     2    34    35    1
     3    31    33   ar
     4    31    29   ar
     5    38    35    1
     6    38    39    1
     7    33    32   ar
     8    36    35    1
     9    36    37    2
    10    40    39    1
    11    40    42   ar
    12    28    29   ar
    13    28    26   ar
    14    29    27   ar
    15    32    30   ar
    16    26    25   ar
    17    27    30   ar
    18    27    25   ar
    19    96    95    1
    20    25    24    1
    21   108   107    2
    22    23    22    2
    23    22    21    1
    24    94    95    1
    25    94    93    1
    26    51    49   ar
    27    51    52   ar
    28   107   106    1
    29    24    21    1
    30    21    20    1
    31    43    44    1
    32    19    18   ar
    33    19    17   ar
    34    49    48   ar
    35    18    16   ar
    36    54    52   ar
    37    54    56   ar
    38    52    50   ar
    39   106   109    1
    40   106   105    1
    41    93    92    1
    42    17    15   ar
    43    48    50   ar
    44    48    47    1
    45    56    55   ar
    46    44    45    1
    47    44    47    1
    48    45    46    2
    49    50    53   ar
    50   109   110    1
    51   112   110    1
    52    16    15   ar
    53    92    89    1
    54    15    14    1
    55    55    53   ar
    56   110   111    1
    57    87    85    1
    58     8     7    2
    59    13    12    2
    60    91    90    2
    61    89    90    1
    62    89    88    1
    63    85    86    1
    64    85    84    1
    65     9     7   am
    66    64    62   am
    67     7     6    1
    68    14    11    1
    69    12    11    1
    70    90    97   am
    71    88    82   am
    72    83    82    2
    73    11    10    1
    74    62    61    1
    75    62    63    2
    76    84    81    1
    77    82    81    1
    78    61    58    1
    79     6     5    1
    80    97    98    1
    81    81    80    1
    82    99    98    1
    83    99   100    2
    84     5     2    1
    85    98   101    1
    86     2     3    1
    87     2     1    1
    88    58    57    1
    89    58    59    1
    90     4     3    2
    91    80    74   am
    92   103   102    2
    93    59    60    2
    94   101   102    1
    95    71    69    1
    96    70    69    1
    97    75    74    2
    98    74    73    1
    99    69    66    1
   100   102   104   am
   101    73    72    1
   102    73    76    1
   103    66    65    1
   104    66    67    1
   105    68    67    2
   106    76    77    1
   107    78    77    2
   108    77    79   am
