@<TRIPOS>MOLECULE
tmp/5gjvE01.pdb
 90 86 0 0 0
SMALL
GASTEIGER

@<TRIPOS>ATOM
      1  N        179.8760  179.4950  225.9850 N.3    81  VAL81      -0.1245
      2  CA       179.7990  180.6000  225.0350 C.3    81  VAL81       0.1561
      3  C        178.4990  180.5430  224.2470 C.2    81  VAL81       0.2260
      4  O        177.9150  181.5740  223.9020 O.2    81  VAL81      -0.2867
      5  CB       181.0400  180.5660  224.1290 C.3    81  VAL81       0.0252
      6  CG1      180.9530  181.5540  223.0140 C.3    81  VAL81       0.0019
      7  CG2      182.2660  180.8580  224.9450 C.3    81  VAL81       0.0019
      8  N        175.2770  182.5660  225.6260 N.3    84  ALA84      -0.1231
      9  CA       175.1820  184.0180  225.4990 C.3    84  ALA84       0.1694
     10  C        175.3830  184.3610  224.0310 C.2    84  ALA84       0.2592
     11  O        176.4930  184.6810  223.5990 O.2    84  ALA84      -0.2718
     12  CB       176.2050  184.7090  226.3820 C.3    84  ALA84       0.0304
     13  N        174.3100  184.2920  223.2530 N.am   85  HIS85      -0.1976
     14  CA       174.5050  184.4930  221.8300 C.3    85  HIS85       0.1656
     15  C        173.5590  185.4830  221.1590 C.2    85  HIS85       0.2291
     16  O        173.9780  186.2370  220.2750 O.2    85  HIS85      -0.2864
     17  CB       174.3970  183.1610  221.1320 C.3    85  HIS85       0.0771
     18  CG       174.6180  183.2710  219.6750 C.ar   85  HIS85       0.0820
     19  ND1      175.8590  183.5280  219.1490 N.ar   85  HIS85      -0.2267
     20  CD2      173.7660  183.2120  218.6340 C.ar   85  HIS85       0.1154
     21  CE1      175.7640  183.5980  217.8370 C.ar   85  HIS85       0.1986
     22  NE2      174.5030  183.4090  217.4990 N.ar   85  HIS85      -0.2212
     23  N        172.1910  187.2870  216.2310 N.3    88  ARG88      -0.1245
     24  CA       172.2720  188.4590  215.3700 C.3    88  ARG88       0.1563
     25  C        171.7330  188.1090  213.9930 C.2    88  ARG88       0.2260
     26  O        171.9730  187.0140  213.4880 O.2    88  ARG88      -0.2867
     27  CB       173.7050  188.9630  215.2770 C.3    88  ARG88       0.0307
     28  CG       174.1890  189.4760  216.6000 C.3    88  ARG88       0.0489
     29  CD       175.5720  190.0380  216.5250 C.3    88  ARG88       0.2205
     30  NE       176.0110  190.4460  217.8520 N.pl3  88  ARG88      -0.0865
     31  CZ       175.7730  191.6430  218.3810 C.cat  88  ARG88       0.5346
     32  NH1      175.0920  192.5530  217.6980 N.pl3  88  ARG88       0.1354
     33  NH2      176.2150  191.9330  219.5990 N.pl3  88  ARG88       0.1354
     34  N        174.4160  191.6840  209.5700 N.3    91  PHE91      -0.1241
     35  CA       175.8520  191.5370  209.7670 C.3    91  PHE91       0.1605
     36  C        176.6260  192.6780  209.1120 C.2    91  PHE91       0.2264
     37  O        177.5430  192.4830  208.3220 O.2    91  PHE91      -0.2867
     38  CB       176.3150  190.1610  209.2970 C.3    91  PHE91       0.0534
     39  CG       175.8990  189.0690  210.2180 C.ar   91  PHE91      -0.0203
     40  CD1      176.6460  188.8050  211.3520 C.ar   91  PHE91      -0.0042
     41  CD2      174.7430  188.3560  209.9960 C.ar   91  PHE91      -0.0042
     42  CE1      176.2680  187.8300  212.2240 C.ar   91  PHE91      -0.0003
     43  CE2      174.3580  187.3820  210.8720 C.ar   91  PHE91      -0.0003
     44  CZ       175.1210  187.1230  211.9840 C.ar   91  PHE91      -0.0000
     45  N        178.5870  194.4120  210.8510 N.3    93  SER93      -0.1217
     46  CA       179.7200  194.5950  211.7500 C.3    93  SER93       0.1889
     47  C        180.9230  193.7950  211.2440 C.2    93  SER93       0.2288
     48  O        180.9310  192.5660  211.2910 O.2    93  SER93      -0.2866
     49  CB       179.3690  194.1690  213.1790 C.3    93  SER93       0.2089
     50  OG       179.1600  192.7700  213.2590 O.3    93  SER93      -0.2183
     51  N        183.3480  187.2950  212.6220 N.3    94  VAL94      -0.1245
     52  CA       182.9630  187.7590  211.3060 C.3    94  VAL94       0.1561
     53  C        184.1670  187.5680  210.4010 C.2    94  VAL94       0.2260
     54  O        184.0360  187.3430  209.1990 O.2    94  VAL94      -0.2867
     55  CB       182.5280  189.2370  211.3480 C.3    94  VAL94       0.0252
     56  CG1      182.0380  189.7290  209.9860 C.3    94  VAL94       0.0019
     57  CG2      181.5130  189.4680  212.4390 C.3    94  VAL94       0.0019
     58  N        180.2360  183.2170  214.5720 N.3   143  ASN143     -0.1225
     59  CA       180.2940  184.2020  215.6400 C.3   143  ASN143      0.1785
     60  C        180.6670  183.5480  216.9650 C.2   143  ASN143      0.2597
     61  O        181.6970  183.8820  217.5550 O.2   143  ASN143     -0.2718
     62  CB       178.9420  184.8960  215.7170 C.3   143  ASN143      0.1169
     63  CG       178.9450  186.2080  216.4520 C.2   143  ASN143      0.2627
     64  OD1      177.9820  186.9560  216.3180 O.2   143  ASN143     -0.2716
     65  ND2      179.9730  186.5100  217.2140 N.am  143  ASN143     -0.0877
     66  N        179.8340  182.6280  217.4650 N.am  144  TRP144     -0.1976
     67  CA       180.0790  182.1160  218.8110 C.3   144  TRP144      0.1640
     68  C        181.2070  181.1030  218.8440 C.2   144  TRP144      0.2290
     69  O        181.7800  180.8560  219.9020 O.2   144  TRP144     -0.2864
     70  CB       178.8200  181.4940  219.4000 C.3   144  TRP144      0.0576
     71  CG       178.3310  180.3510  218.6580 C.ar  144  TRP144      0.0006
     72  CD1      177.4640  180.3770  217.6340 C.ar  144  TRP144      0.0946
     73  CD2      178.6640  178.9830  218.8720 C.ar  144  TRP144      0.0152
     74  NE1      177.2290  179.1120  217.1790 N.ar  144  TRP144     -0.2442
     75  CE2      177.9790  178.2380  217.9170 C.ar  144  TRP144      0.0810
     76  CE3      179.5080  178.3220  219.7580 C.ar  144  TRP144      0.0012
     77  CZ2      178.0800  176.8680  217.8390 C.ar  144  TRP144      0.0191
     78  CZ3      179.6090  176.9620  219.6770 C.ar  144  TRP144      0.0001
     79  CH2      178.9000  176.2500  218.7320 C.ar  144  TRP144      0.0015
     80  N        183.9910  181.5010  217.4320 N.3   146  SER146     -0.1202
     81  CA       185.2400  182.2520  217.4530 C.3   146  SER146      0.2020
     82  C        185.8290  182.3040  218.8590 C.2   146  SER146      0.2618
     83  O        187.0010  182.6360  219.0400 O.2   146  SER146     -0.2717
     84  CB       185.0220  183.6710  216.9230 C.3   146  SER146      0.2103
     85  OG       184.1360  184.3970  217.7580 O.3   146  SER146     -0.2182
     86  N        185.0100  181.9730  219.8510 N.am  147  ALA147     -0.1979
     87  CA       185.4470  181.9810  221.2420 C.3   147  ALA147      0.1597
     88  C        186.3860  180.8150  221.5330 C.2   147  ALA147      0.2287
     89  O        187.3000  180.9300  222.3490 O.2   147  ALA147     -0.2864
     90  CB       184.2470  181.9450  222.1760 C.3   147  ALA147      0.0319
@<TRIPOS>BOND
     1    37    36    2
     2    36    35    1
     3    54    53    2
     4    38    35    1
     5    38    39    1
     6    34    35    1
     7    56    55    1
     8    41    39   ar
     9    41    43   ar
    10    39    40   ar
    11    53    52    1
    12    45    46    1
    13    43    44   ar
    14    47    48    2
    15    47    46    1
    16    52    55    1
    17    52    51    1
    18    55    57    1
    19    40    42   ar
    20    46    49    1
    21    44    42   ar
    22    49    50    1
    23    26    25    2
    24    25    24    1
    25    58    59    1
    26    27    24    1
    27    27    28    1
    28    24    23    1
    29    59    62    1
    30    59    60    1
    31    62    63    1
    32    64    63    2
    33    63    65   am
    34    29    28    1
    35    29    30    1
    36    84    81    1
    37    84    85    1
    38    60    66   am
    39    60    61    2
    40    74    72   ar
    41    74    75   ar
    42    80    81    1
    43    81    82    1
    44    66    67    1
    45    22    21   ar
    46    22    20   ar
    47    72    71   ar
    48    32    31    1
    49    21    19   ar
    50    77    75   ar
    51    77    79   ar
    52    30    31    2
    53    75    73   ar
    54    31    33    1
    55    20    18   ar
    56    71    73   ar
    57    71    70    1
    58    79    78   ar
    59    67    68    1
    60    67    70    1
    61    68    69    2
    62    82    83    2
    63    82    86   am
    64    73    76   ar
    65    19    18   ar
    66    18    17    1
    67    78    76   ar
    68    86    87    1
    69    16    15    2
    70    17    14    1
    71    15    14    1
    72    87    88    1
    73    87    90    1
    74    88    89    2
    75    14    13    1
    76     6     5    1
    77    13    10   am
    78    11    10    2
    79     4     3    2
    80    10     9    1
    81     5     7    1
    82     5     2    1
    83     3     2    1
    84     2     1    1
    85     9     8    1
    86     9    12    1
