@<TRIPOS>MOLECULE
tmp/5gk1A00.pdb
 139 130 0 0 0
SMALL
GASTEIGER

@<TRIPOS>ATOM
      1  N         25.5410    2.5970   47.2990 N.3   122  ALA122     -0.1231
      2  CA        24.0960    2.5740   47.1240 C.3   122  ALA122      0.1694
      3  C         23.4620    1.7100   48.2220 C.2   122  ALA122      0.2592
      4  O         23.6140    1.9980   49.4110 O.2   122  ALA122     -0.2718
      5  CB        23.7360    2.0740   45.7480 C.3   122  ALA122      0.0304
      6  N         22.7720    0.6490   47.8320 N.am  123  CYS123     -0.1970
      7  CA        21.9970   -0.1510   48.8010 C.3   123  CYS123      0.1712
      8  C         22.8260   -0.6770   49.9500 C.2   123  CYS123      0.2296
      9  O         22.3030   -0.6850   51.0800 O.2   123  CYS123     -0.2864
     10  CB        21.3610   -1.3550   48.1460 C.3   123  CYS123      0.0983
     11  SG        19.8310   -0.9390   47.2700 S.3   123  CYS123     -0.0798
     12  N         14.1730    3.9840   33.5640 N.3   185  PHE185     -0.1227
     13  CA        13.8930    2.7530   34.3090 C.3   185  PHE185      0.1736
     14  C         13.7450    2.9950   35.8110 C.2   185  PHE185      0.2595
     15  O         12.7310    2.6410   36.4200 O.2   185  PHE185     -0.2718
     16  CB        15.0120    1.7370   34.0270 C.3   185  PHE185      0.0547
     17  CG        14.9090    0.4630   34.8210 C.ar  185  PHE185     -0.0202
     18  CD1       13.8280   -0.3690   34.6790 C.ar  185  PHE185     -0.0042
     19  CD2       15.9190    0.0880   35.6800 C.ar  185  PHE185     -0.0042
     20  CE1       13.7450   -1.5550   35.3990 C.ar  185  PHE185     -0.0003
     21  CE2       15.8330   -1.0890   36.4080 C.ar  185  PHE185     -0.0003
     22  CZ        14.7450   -1.9070   36.2620 C.ar  185  PHE185     -0.0000
     23  N         14.7560    3.5990   36.4240 N.am  186  LEU186     -0.1980
     24  CA        14.7790    3.7090   37.8720 C.3   186  LEU186      0.1596
     25  C         13.7660    4.7070   38.4000 C.2   186  LEU186      0.2287
     26  O         13.5100    4.7150   39.6030 O.2   186  LEU186     -0.2864
     27  CB        16.1890    4.0710   38.3360 C.3   186  LEU186      0.0297
     28  CG        17.1910    2.9270   38.1040 C.3   186  LEU186      0.0022
     29  CD1       18.6200    3.3800   38.3870 C.3   186  LEU186      0.0001
     30  CD2       16.8480    1.6840   38.9300 C.3   186  LEU186      0.0001
     31  N         11.2810    2.6290   39.9020 N.3   189  MET189     -0.1230
     32  CA        11.8340    1.6370   40.8230 C.3   189  MET189      0.1702
     33  C         12.1480    2.2180   42.1950 C.2   189  MET189      0.2592
     34  O         11.7180    1.6680   43.2050 O.2   189  MET189     -0.2718
     35  CB        13.1030    1.0070   40.2340 C.3   189  MET189      0.0401
     36  CG        12.9460    0.3300   38.8770 C.3   189  MET189      0.0596
     37  SD        12.0870   -1.2720   38.9380 S.3   189  MET189     -0.1393
     38  CE        13.2750   -2.2370   39.8600 C.3   189  MET189      0.0692
     39  N         12.8840    3.3270   42.2530 N.am  190  LEU190     -0.1980
     40  CA        13.4140    3.8490   43.5070 C.3   190  LEU190      0.1596
     41  C         12.4950    4.9060   44.1150 C.2   190  LEU190      0.2287
     42  O         11.8570    5.6810   43.4020 O.2   190  LEU190     -0.2864
     43  CB        14.7940    4.4500   43.2680 C.3   190  LEU190      0.0297
     44  CG        15.8010    3.5450   42.5550 C.3   190  LEU190      0.0022
     45  CD1       17.0250    4.3360   42.1530 C.3   190  LEU190      0.0001
     46  CD2       16.1990    2.4010   43.4730 C.3   190  LEU190      0.0001
     47  N         24.7970    0.0120   38.2390 N.3   228  MET228     -0.1245
     48  CA        24.0010    1.1850   38.5790 C.3   228  MET228      0.1570
     49  C         24.9660    2.3390   38.7940 C.2   228  MET228      0.2261
     50  O         25.9610    2.1830   39.5130 O.2   228  MET228     -0.2867
     51  CB        23.1680    0.9560   39.8380 C.3   228  MET228      0.0387
     52  CG        22.0750    2.0200   40.0400 C.3   228  MET228      0.0595
     53  SD        21.2970    2.0130   41.6750 S.3   228  MET228     -0.1393
     54  CE        19.9640    0.9110   41.3800 C.3   228  MET228      0.0692
     55  N         20.8220    2.5330   35.0630 N.3   261  GLN261     -0.1245
     56  CA        20.9400    1.1020   35.2950 C.3   261  GLN261      0.1566
     57  C         21.2580    0.4530   33.9600 C.2   261  GLN261      0.2260
     58  O         20.6180    0.7800   32.9540 O.2   261  GLN261     -0.2867
     59  CB        19.6370    0.5170   35.8540 C.3   261  GLN261      0.0367
     60  CG        19.7350   -0.9570   36.2840 C.3   261  GLN261      0.0905
     61  CD        19.9960   -1.0890   37.7630 C.2   261  GLN261      0.2608
     62  OE1       19.1630   -0.7030   38.5690 O.2   261  GLN261     -0.2717
     63  NE2       21.1660   -1.6060   38.1300 N.am  261  GLN261     -0.0878
     64  N         22.1830   -6.1620   34.7820 N.3   266  LEU266     -0.1245
     65  CA        21.5150   -6.4180   36.0480 C.3   266  LEU266      0.1561
     66  C         20.7730   -7.7490   36.0330 C.2   266  LEU266      0.2260
     67  O         20.9490   -8.5820   36.9330 O.2   266  LEU266     -0.2867
     68  CB        20.5410   -5.2880   36.3350 C.3   266  LEU266      0.0270
     69  CG        19.6090   -5.5570   37.5090 C.3   266  LEU266      0.0019
     70  CD1       20.4100   -5.4220   38.7980 C.3   266  LEU266      0.0001
     71  CD2       18.4300   -4.6110   37.5050 C.3   266  LEU266      0.0001
     72  N         22.7010  -10.1950   38.6380 N.3   270  VAL270     -0.1245
     73  CA        22.4680   -9.7170   40.0000 C.3   270  VAL270      0.1561
     74  C         22.3070  -10.8830   40.9830 C.2   270  VAL270      0.2260
     75  O         22.7710  -10.8090   42.1300 O.2   270  VAL270     -0.2867
     76  CB        21.2710   -8.7450   40.0490 C.3   270  VAL270      0.0252
     77  CG1       19.9580   -9.4790   39.9740 C.3   270  VAL270      0.0019
     78  CG2       21.3240   -7.9170   41.3190 C.3   270  VAL270      0.0019
     79  N         16.3580   -7.7880   50.7980 N.3   299  HIS299     -0.1241
     80  CA        15.9690   -6.6270   50.0100 C.3   299  HIS299      0.1621
     81  C         16.0670   -6.9920   48.5260 C.2   299  HIS299      0.2264
     82  O         17.1010   -6.8230   47.8840 O.2   299  HIS299     -0.2867
     83  CB        16.8270   -5.4230   50.3630 C.3   299  HIS299      0.0745
     84  CG        16.5780   -4.2650   49.4650 C.ar  299  HIS299      0.0817
     85  ND1       17.5630   -3.7040   48.6820 N.ar  299  HIS299     -0.2268
     86  CD2       15.4340   -3.6150   49.1630 C.ar  299  HIS299      0.1154
     87  CE1       17.0400   -2.7240   47.9700 C.ar  299  HIS299      0.1986
     88  NE2       15.7510   -2.6470   48.2480 N.ar  299  HIS299     -0.2212
     89  N         14.1050   -5.7650   45.9920 N.3   301  SER301     -0.1217
     90  CA        13.8740   -4.6090   45.1170 C.3   301  SER301      0.1889
     91  C         12.6640   -4.7190   44.2070 C.2   301  SER301      0.2288
     92  O         11.9930   -3.7100   43.9680 O.2   301  SER301     -0.2866
     93  CB        15.1030   -4.3210   44.2410 C.3   301  SER301      0.2089
     94  OG        16.1510   -3.7500   45.0110 O.3   301  SER301     -0.2183
     95  N         12.4490  -10.2090   40.7520 N.3   305  PHE305     -0.1241
     96  CA        13.6290  -10.9150   41.2390 C.3   305  PHE305      0.1605
     97  C         13.3530  -11.7950   42.4490 C.2   305  PHE305      0.2264
     98  O         14.2430  -12.5490   42.8520 O.2   305  PHE305     -0.2867
     99  CB        14.7450   -9.9220   41.5880 C.3   305  PHE305      0.0534
    100  CG        15.4000   -9.3090   40.3940 C.ar  305  PHE305     -0.0203
    101  CD1       16.1290  -10.0820   39.5230 C.ar  305  PHE305     -0.0042
    102  CD2       15.3020   -7.9520   40.1550 C.ar  305  PHE305     -0.0042
    103  CE1       16.7320   -9.5160   38.4220 C.ar  305  PHE305     -0.0003
    104  CE2       15.9120   -7.3830   39.0560 C.ar  305  PHE305     -0.0003
    105  CZ        16.6200   -8.1680   38.1910 C.ar  305  PHE305     -0.0000
    106  N         10.7530    0.5900   47.1840 N.3   334  ASN334     -0.1240
    107  CA        12.1840    0.2610   47.2060 C.3   334  ASN334      0.1653
    108  C         12.9470    1.5060   47.6440 C.2   334  ASN334      0.2266
    109  O         13.2520    2.3840   46.8270 O.2   334  ASN334     -0.2867
    110  CB        12.6400   -0.2330   45.8340 C.3   334  ASN334      0.1155
    111  CG        14.1430   -0.4870   45.7570 C.2   334  ASN334      0.2627
    112  OD1       14.8510   -0.4280   46.7540 O.2   334  ASN334     -0.2716
    113  ND2       14.6270   -0.7830   44.5580 N.am  334  ASN334     -0.0877
    114  N         16.0140    1.5210   48.7360 N.3   336  GLY336     -0.1225
    115  CA        17.4510    1.3250   48.6150 C.3   336  GLY336      0.1811
    116  C         18.0740    0.8980   49.9300 C.2   336  GLY336      0.2280
    117  O         17.6690   -0.1080   50.5340 O.2   336  GLY336     -0.2866
    118  N         21.5050   -6.8330   48.7650 N.3   364  PRO364     -0.2102
    119  CA        22.3390   -6.7350   47.5630 C.3   364  PRO364      0.1504
    120  C         22.5180   -5.2880   47.1110 C.2   364  PRO364      0.2576
    121  O         21.6970   -4.4160   47.3770 O.2   364  PRO364     -0.2718
    122  CB        21.5240   -7.5290   46.5300 C.3   364  PRO364      0.0282
    123  CG        20.1060   -7.2840   46.9230 C.3   364  PRO364      0.0208
    124  CD        20.1290   -7.2580   48.4480 C.3   364  PRO364      0.0893
    125  N         23.6020   -5.0410   46.3940 N.am  365  GLU365     -0.1966
    126  CA        23.8090   -3.7440   45.7610 C.3   365  GLU365      0.1733
    127  C         24.2250   -3.9970   44.3240 C.2   365  GLU365      0.2617
    128  O         25.3270   -4.4940   44.0730 O.2   365  GLU365     -0.2715
    129  CB        24.8730   -2.9240   46.4970 C.3   365  GLU365      0.0429
    130  CG        25.2550   -1.6020   45.8160 C.3   365  GLU365      0.1163
    131  CD        26.2740   -0.8260   46.6330 C.2   365  GLU365      0.3649
    132  OE1       27.4760   -0.8240   46.2910 O.co2 365  GLU365     -0.2457
    133  OE2       25.8830   -0.2230   47.6630 O.co2 365  GLU365     -0.2457
    134  N         23.3670   -3.6390   43.3750 N.am  366  SER366     -0.1950
    135  CA        23.7310   -3.8780   41.9870 C.3   366  SER366      0.1924
    136  C         24.8010   -2.9180   41.4840 C.2   366  SER366      0.2314
    137  O         25.4450   -3.2340   40.4850 O.2   366  SER366     -0.2863
    138  CB        22.5080   -3.7860   41.1020 C.3   366  SER366      0.2116
    139  OG        22.0590   -2.4530   41.0680 O.3   366  SER366     -0.2180
@<TRIPOS>BOND
     1    58    57    2
     2    12    13    1
     3    57    56    1
     4    16    13    1
     5    16    17    1
     6    13    14    1
     7    18    17   ar
     8    18    20   ar
     9    64    65    1
    10    17    19   ar
    11    55    56    1
    12    56    59    1
    13    20    22   ar
    14    19    21   ar
    15    14    15    2
    16    14    23   am
    17    59    60    1
    18    66    65    1
    19    66    67    2
    20    65    68    1
    21    22    21   ar
    22    60    61    1
    23    68    69    1
    24    23    24    1
    25    71    69    1
    26    69    70    1
    27    61    63   am
    28    61    62    2
    29    24    27    1
    30    24    25    1
    31    28    27    1
    32    28    29    1
    33    28    30    1
    34   105   103   ar
    35   105   104   ar
    36    47    48    1
    37    25    26    2
    38   103   101   ar
    39    48    49    1
    40    48    51    1
    41    72    73    1
    42    49    50    2
    43    36    37    1
    44    36    35    1
    45    37    38    1
    46   104   102   ar
    47   101   100   ar
    48    51    52    1
    49    31    32    1
    50    77    76    1
    51    73    76    1
    52    73    74    1
    53    52    53    1
    54    76    78    1
    55   102   100   ar
    56    35    32    1
    57   100    99    1
    58   137   136    2
    59    95    96    1
    60    32    33    1
    61    74    75    2
    62   139   138    1
    63   138   135    1
    64    96    99    1
    65    96    97    1
    66    54    53    1
    67   136   135    1
    68   135   134    1
    69    45    44    1
    70    33    39   am
    71    33    34    2
    72    39    40    1
    73    97    98    2
    74    44    43    1
    75    44    46    1
    76    43    40    1
    77   134   127   am
    78    42    41    2
    79    40    41    1
    80    92    91    2
    81   128   127    2
    82    91    90    1
    83    93    94    1
    84    93    90    1
    85   127   126    1
    86   113   111   am
    87    90    89    1
    88     5     2    1
    89   111   110    1
    90   111   112    2
    91   126   125    1
    92   126   129    1
    93   130   129    1
    94   130   131    1
    95   110   107    1
    96   132   131   ar
    97   125   120   am
    98   122   123    1
    99   122   119    1
   100   131   133   ar
   101   109   108    2
   102   123   124    1
   103   120   121    2
   104   120   119    1
   105     2     1    1
   106     2     3    1
   107   106   107    1
   108   107   108    1
   109    11    10    1
   110   119   118    1
   111     6     3   am
   112     6     7    1
   113    82    81    2
   114    87    88   ar
   115    87    85   ar
   116    10     7    1
   117     3     4    2
   118    88    86   ar
   119   124   118    1
   120    81    80    1
   121   115   114    1
   122   115   116    1
   123    85    84   ar
   124     7     8    1
   125    86    84   ar
   126    84    83    1
   127   116   117    2
   128     8     9    2
   129    80    83    1
   130    80    79    1
