@<TRIPOS>MOLECULE
tmp/5gkqA01.pdb
 91 83 0 0 0
SMALL
GASTEIGER

@<TRIPOS>ATOM
      1  N         27.0220   22.7250  220.8140 N.3   180  ASN180     -0.1240
      2  CA        28.1480   22.1120  221.4860 C.3   180  ASN180      0.1653
      3  C         28.0540   22.4040  222.9750 C.2   180  ASN180      0.2266
      4  O         27.5750   23.4560  223.3820 O.2   180  ASN180     -0.2867
      5  CB        29.4260   22.6930  220.8800 C.3   180  ASN180      0.1155
      6  CG        30.6750   22.1780  221.5060 C.2   180  ASN180      0.2627
      7  OD1       30.9660   20.9830  221.4470 O.2   180  ASN180     -0.2716
      8  ND2       31.4670   23.0870  222.0720 N.am  180  ASN180     -0.0877
      9  N         27.3430   17.8470  227.2180 N.3   183  GLU183     -0.1245
     10  CA        27.7650   16.5540  227.7200 C.3   183  GLU183      0.1567
     11  C         27.1220   16.2720  229.0790 C.2   183  GLU183      0.2260
     12  O         26.7280   17.1780  229.8170 O.2   183  GLU183     -0.2867
     13  CB        29.2850   16.4980  227.8490 C.3   183  GLU183      0.0388
     14  CG        30.0440   16.8950  226.6120 C.3   183  GLU183      0.1160
     15  CD        30.5050   18.3340  226.6540 C.2   183  GLU183      0.3649
     16  OE1       29.7870   19.1940  227.2050 O.co2 183  GLU183     -0.2457
     17  OE2       31.6010   18.6040  226.1380 O.co2 183  GLU183     -0.2457
     18  N         41.4670   18.7580  227.8580 N.3   190  SER190     -0.1217
     19  CA        42.5160   18.3970  226.9130 C.3   190  SER190      0.1889
     20  C         43.8850   18.6930  227.5020 C.2   190  SER190      0.2288
     21  O         44.7640   17.8220  227.5360 O.2   190  SER190     -0.2866
     22  CB        42.3160   19.1210  225.5870 C.3   190  SER190      0.2089
     23  OG        42.2770   20.5180  225.7660 O.3   190  SER190     -0.2183
     24  N         24.1140   16.2510  223.3400 N.3   212  GLU212     -0.1245
     25  CA        25.0390   16.4680  222.2350 C.3   212  GLU212      0.1567
     26  C         25.6210   15.1100  221.8950 C.2   212  GLU212      0.2260
     27  O         25.1500   14.0820  222.3880 O.2   212  GLU212     -0.2867
     28  CB        26.1260   17.4830  222.5880 C.3   212  GLU212      0.0388
     29  CG        27.1070   16.9890  223.6180 C.3   212  GLU212      0.1160
     30  CD        28.5130   17.4700  223.3690 C.2   212  GLU212      0.3649
     31  OE1       28.7990   18.6560  223.5940 O.co2 212  GLU212     -0.2457
     32  OE2       29.3430   16.6540  222.9440 O.co2 212  GLU212     -0.2457
     33  N         28.5290   13.7270  222.5860 N.3   214  GLU214     -0.1245
     34  CA        29.2740   13.0570  223.6460 C.3   214  GLU214      0.1567
     35  C         28.4090   12.9940  224.9020 C.2   214  GLU214      0.2260
     36  O         28.1460   14.0210  225.5340 O.2   214  GLU214     -0.2867
     37  CB        30.5810   13.7860  223.9340 C.3   214  GLU214      0.0388
     38  CG        31.6190   13.6690  222.8680 C.3   214  GLU214      0.1160
     39  CD        32.8960   14.3710  223.2580 C.2   214  GLU214      0.3649
     40  OE1       32.8210   15.3970  223.9580 O.co2 214  GLU214     -0.2457
     41  OE2       33.9820   13.8900  222.8740 O.co2 214  GLU214     -0.2457
     42  N         38.7440   12.6070  229.2320 N.3   219  LYS219     -0.1245
     43  CA        39.8940   13.4050  228.8320 C.3   219  LYS219      0.1561
     44  C         40.9840   13.3170  229.8970 C.2   219  LYS219      0.2260
     45  O         41.5480   14.3180  230.3300 O.2   219  LYS219     -0.2867
     46  CB        39.4680   14.8470  228.5640 C.3   219  LYS219      0.0271
     47  CG        38.5310   14.9860  227.3930 C.3   219  LYS219      0.0035
     48  CD        37.9990   16.3920  227.2550 C.3   219  LYS219      0.0206
     49  CE        37.3680   16.6150  225.9040 C.3   219  LYS219      0.1093
     50  NZ        36.5480   17.8390  225.9300 N.3   219  LYS219     -0.1314
     51  N         37.9690   10.7720  224.2400 N.3   240  ALA240     -0.1231
     52  CA        38.4830   11.9310  223.5190 C.3   240  ALA240      0.1694
     53  C         39.9940   12.0750  223.6300 C.2   240  ALA240      0.2592
     54  O         40.7200   11.8860  222.6540 O.2   240  ALA240     -0.2718
     55  CB        37.8100   13.2020  224.0340 C.3   240  ALA240      0.0304
     56  N         40.4710   12.4300  224.8120 N.am  241  HIS241     -0.1976
     57  CA        41.8870   12.5680  225.0950 C.3   241  HIS241      0.1656
     58  C         42.2530   11.6560  226.2570 C.2   241  HIS241      0.2291
     59  O         41.4030   11.2740  227.0580 O.2   241  HIS241     -0.2864
     60  CB        42.2330   14.0150  225.4270 C.3   241  HIS241      0.0771
     61  CG        41.7190   15.0010  224.4280 C.ar  241  HIS241      0.0820
     62  ND1       42.1250   15.0050  223.1130 N.ar  241  HIS241     -0.2267
     63  CD2       40.8450   16.0270  224.5560 C.ar  241  HIS241      0.1154
     64  CE1       41.5140   15.9830  222.4700 C.ar  241  HIS241      0.1986
     65  NE2       40.7300   16.6180  223.3220 N.ar  241  HIS241     -0.2212
     66  N         45.2520   19.2090  222.2500 N.3   301  ASN301     -0.1240
     67  CA        43.8370   19.4160  221.9650 C.3   301  ASN301      0.1653
     68  C         43.4780   18.6350  220.7080 C.2   301  ASN301      0.2266
     69  O         42.4820   18.9270  220.0400 O.2   301  ASN301     -0.2867
     70  CB        43.5290   20.9080  221.8100 C.3   301  ASN301      0.1155
     71  CG        44.3940   21.5670  220.7500 C.2   301  ASN301      0.2627
     72  OD1       45.5090   21.1170  220.4840 O.2   301  ASN301     -0.2716
     73  ND2       43.8800   22.6230  220.1300 N.am  301  ASN301     -0.0877
     74  N         43.0550   14.7990  218.6840 N.3   303  TYR303     -0.1241
     75  CA        42.8600   13.3580  218.7450 C.3   303  TYR303      0.1605
     76  C         44.1220   12.6510  218.2920 C.2   303  TYR303      0.2264
     77  O         44.6130   12.8970  217.1910 O.2   303  TYR303     -0.2867
     78  CB        41.6820   12.9560  217.8630 C.3   303  TYR303      0.0534
     79  CG        40.3630   13.4480  218.3820 C.ar  303  TYR303     -0.0201
     80  CD1       40.2250   13.8160  219.7050 C.ar  303  TYR303     -0.0009
     81  CD2       39.2590   13.5440  217.5510 C.ar  303  TYR303     -0.0009
     82  CE1       39.0320   14.2660  220.1910 C.ar  303  TYR303      0.0417
     83  CE2       38.0580   13.9940  218.0250 C.ar  303  TYR303      0.0417
     84  CZ        37.9500   14.3530  219.3450 C.ar  303  TYR303      0.1957
     85  OH        36.7450   14.8000  219.8160 O.3   303  TYR303     -0.2866
     86  N         29.3830   18.7750  216.7600 N.3   632  SER632     -0.1217
     87  CA        28.9570   18.1690  218.0080 C.3   632  SER632      0.1889
     88  C         27.4810   17.8180  218.0330 C.2   632  SER632      0.2288
     89  O         27.0210   17.2470  219.0170 O.2   632  SER632     -0.2866
     90  CB        29.2640   19.0960  219.1810 C.3   632  SER632      0.2089
     91  OG        30.6470   19.2400  219.3790 O.3   632  SER632     -0.2183
@<TRIPOS>BOND
     1    86    87    1
     2    77    76    2
     3    81    83   ar
     4    81    79   ar
     5    78    79    1
     6    78    75    1
     7    87    88    1
     8    87    90    1
     9    83    84   ar
    10    88    89    2
    11    76    75    1
    12    79    80   ar
    13    74    75    1
    14    90    91    1
    15    84    85    1
    16    84    82   ar
    17    80    82   ar
    18    69    68    2
    19    73    71   am
    20    72    71    2
    21    68    67    1
    22    71    70    1
    23     1     2    1
    24     5     2    1
    25     5     6    1
    26     7     6    2
    27     2     3    1
    28     6     8   am
    29    70    67    1
    30    26    25    1
    31    26    27    2
    32    67    66    1
    33    25    28    1
    34    25    24    1
    35    64    62   ar
    36    64    65   ar
    37    33    34    1
    38    28    29    1
    39    54    53    2
    40    38    39    1
    41    38    37    1
    42    41    39   ar
    43    32    30   ar
    44     3     4    2
    45    62    61   ar
    46    39    40   ar
    47    65    63   ar
    48    30    31   ar
    49    30    29    1
    50    52    53    1
    51    52    55    1
    52    52    51    1
    53    53    56   am
    54    34    37    1
    55    34    35    1
    56    61    63   ar
    57    61    60    1
    58    56    57    1
    59    35    36    2
    60    57    60    1
    61    57    58    1
    62    22    23    1
    63    22    19    1
    64    49    50    1
    65    49    48    1
    66    17    15   ar
    67    58    59    2
    68    14    15    1
    69    14    13    1
    70    15    16   ar
    71    19    20    1
    72    19    18    1
    73     9    10    1
    74    48    47    1
    75    47    46    1
    76    20    21    2
    77    10    13    1
    78    10    11    1
    79    46    43    1
    80    43    42    1
    81    43    44    1
    82    11    12    2
    83    44    45    2
