@<TRIPOS>MOLECULE
tmp/5gkrA00.pdb
 109 110 0 0 0
SMALL
GASTEIGER

@<TRIPOS>ATOM
      1  N        -27.3310  143.6430    4.9650 N.3    32  PHE32      -0.1241
      2  CA       -27.6320  142.3520    4.3530 C.3    32  PHE32       0.1605
      3  C        -29.1330  142.1630    4.2160 C.2    32  PHE32       0.2264
      4  O        -29.9180  142.7510    4.9430 O.2    32  PHE32      -0.2867
      5  CB       -27.0940  141.1980    5.1890 C.3    32  PHE32       0.0534
      6  CG       -25.6050  141.1430    5.2840 C.ar   32  PHE32      -0.0203
      7  CD1      -24.9270  141.9350    6.2180 C.ar   32  PHE32      -0.0042
      8  CD2      -24.8720  140.2570    4.4980 C.ar   32  PHE32      -0.0042
      9  CE1      -23.5500  141.8600    6.3410 C.ar   32  PHE32      -0.0003
     10  CE2      -23.4900  140.1810    4.6240 C.ar   32  PHE32      -0.0003
     11  CZ       -22.8340  140.9880    5.5380 C.ar   32  PHE32      -0.0000
     12  N        -28.3240  135.0980    2.8590 N.3    49  TYR49      -0.1241
     13  CA       -28.4410  136.5400    2.6950 C.3    49  TYR49       0.1605
     14  C        -27.5120  137.0740    1.6190 C.2    49  TYR49       0.2264
     15  O        -26.5960  136.3900    1.1770 O.2    49  TYR49      -0.2867
     16  CB       -28.3000  137.3160    4.0260 C.3    49  TYR49       0.0534
     17  CG       -27.0240  137.1970    4.8450 C.ar   49  TYR49      -0.0201
     18  CD1      -25.8860  136.5120    4.3940 C.ar   49  TYR49      -0.0009
     19  CD2      -26.9530  137.8060    6.1000 C.ar   49  TYR49      -0.0009
     20  CE1      -24.7380  136.4360    5.1760 C.ar   49  TYR49       0.0417
     21  CE2      -25.7990  137.7390    6.8780 C.ar   49  TYR49       0.0417
     22  CZ       -24.6980  137.0490    6.4140 C.ar   49  TYR49       0.1957
     23  OH       -23.5500  136.9740    7.1760 O.3    49  TYR49      -0.2866
     24  N        -25.3300  140.6830    0.6500 N.3    51  TYR51      -0.1241
     25  CA       -24.8480  141.9910    1.0860 C.3    51  TYR51       0.1605
     26  C        -25.1980  142.9920   -0.0100 C.2    51  TYR51       0.2264
     27  O        -25.3680  142.5980   -1.1530 O.2    51  TYR51      -0.2867
     28  CB       -23.3350  141.9450    1.3300 C.3    51  TYR51       0.0534
     29  CG       -22.7880  143.0980    2.1450 C.ar   51  TYR51      -0.0201
     30  CD1      -23.3690  143.4570    3.3660 C.ar   51  TYR51      -0.0009
     31  CD2      -21.6760  143.8180    1.7180 C.ar   51  TYR51      -0.0009
     32  CE1      -22.8790  144.5010    4.1190 C.ar   51  TYR51       0.0417
     33  CE2      -21.1670  144.8650    2.4790 C.ar   51  TYR51       0.0417
     34  CZ       -21.7700  145.1920    3.6820 C.ar   51  TYR51       0.1957
     35  OH       -21.3000  146.2340    4.4460 O.3    51  TYR51      -0.2866
     36  N        -23.5550  145.0140   -1.6900 N.3    53  SER53      -0.1202
     37  CA       -22.5710  145.0030   -2.7720 C.3    53  SER53       0.2020
     38  C        -22.6680  143.7950   -3.7220 C.2    53  SER53       0.2619
     39  O        -21.9550  143.7590   -4.7300 O.2    53  SER53      -0.2717
     40  CB       -21.1630  145.0460   -2.1710 C.3    53  SER53       0.2103
     41  OG       -20.8730  143.8120   -1.5260 O.3    53  SER53      -0.2182
     42  N        -23.4980  142.8010   -3.3910 N.am   54  GLY54      -0.1942
     43  CA       -23.7420  141.6510   -4.2760 C.3    54  GLY54       0.2014
     44  C        -23.2670  140.2900   -3.7850 C.2    54  GLY54       0.2640
     45  O        -23.7400  139.2700   -4.2850 O.2    54  GLY54      -0.2714
     46  N        -22.3460  140.2550   -2.8190 N.am   55  SER55      -0.1935
     47  CA       -21.8620  138.9820   -2.2470 C.3    55  SER55       0.2055
     48  C        -23.0080  138.1560   -1.6670 C.2    55  SER55       0.2644
     49  O        -23.8090  138.6720   -0.9010 O.2    55  SER55      -0.2714
     50  CB       -20.8360  139.2350   -1.1470 C.3    55  SER55       0.2130
     51  OG       -19.7230  139.9390   -1.6580 O.3    55  SER55      -0.2179
     52  N        -23.0870  136.8870   -2.0570 N.am   56  THR56      -0.1936
     53  CA       -24.1280  135.9870   -1.5750 C.3    56  THR56       0.2028
     54  C        -23.5290  134.9390   -0.6450 C.2    56  THR56       0.2642
     55  O        -22.3910  134.5170   -0.8230 O.2    56  THR56      -0.2714
     56  CB       -24.8500  135.2850   -2.7410 C.3    56  THR56       0.1808
     57  OG1      -23.8950  134.6200   -3.5750 O.3    56  THR56      -0.2208
     58  CG2      -25.6140  136.2810   -3.5620 C.3    56  THR56       0.0379
     59  N        -24.2900  134.5700    0.3840 N.am   57  ASN57      -0.1971
     60  CA       -23.8990  133.5140    1.3210 C.3    57  ASN57       0.1688
     61  C        -25.1480  132.7360    1.6970 C.2    57  ASN57       0.2292
     62  O        -26.1350  133.3270    2.1530 O.2    57  ASN57      -0.2864
     63  CB       -23.2130  134.0820    2.5790 C.3    57  ASN57       0.1181
     64  CG       -22.3350  135.3030    2.2780 C.2    57  ASN57       0.2629
     65  OD1      -21.1270  135.1850    2.0740 O.2    57  ASN57      -0.2716
     66  ND2      -22.9540  136.4810    2.2350 N.am   57  ASN57      -0.0877
     67  N        -31.0120  142.1640    7.5480 N.3    97  HIS97      -0.1226
     68  CA       -30.0340  141.7510    8.5380 C.3    97  HIS97       0.1752
     69  C        -29.0050  142.8640    8.6750 C.2    97  HIS97       0.2596
     70  O        -28.3400  143.2180    7.6960 O.2    97  HIS97      -0.2718
     71  CB       -29.3700  140.4400    8.1340 C.3    97  HIS97       0.0759
     72  CG       -28.3460  139.9710    9.1150 C.ar   97  HIS97       0.0818
     73  ND1      -28.6640  139.1850   10.1980 N.ar   97  HIS97      -0.2268
     74  CD2      -27.0190  140.2180    9.2080 C.ar   97  HIS97       0.1154
     75  CE1      -27.5800  138.9550   10.9100 C.ar   97  HIS97       0.1986
     76  NE2      -26.5670  139.5690   10.3310 N.ar   97  HIS97      -0.2212
     77  N        -28.9060  143.4220    9.8770 N.am   98  ARG98      -0.1966
     78  CA       -28.0270  144.5540   10.1730 C.3    98  ARG98       0.1729
     79  C        -27.4210  144.3880   11.5660 C.2    98  ARG98       0.2616
     80  O        -28.1330  144.0720   12.5140 O.2    98  ARG98      -0.2715
     81  CB       -28.8230  145.8570   10.1190 C.3    98  ARG98       0.0348
     82  CG       -28.0390  147.1190   10.4710 C.3    98  ARG98       0.0492
     83  CD       -28.9340  148.3470   10.4550 C.3    98  ARG98       0.2205
     84  NE       -29.6320  148.4820   11.7280 N.pl3  98  ARG98      -0.0865
     85  CZ       -29.2350  149.2190   12.7690 C.cat  98  ARG98       0.5346
     86  NH1      -28.1330  149.9610   12.7270 N.pl3  98  ARG98       0.1354
     87  NH2      -29.9730  149.2260   13.8710 N.pl3  98  ARG98       0.1354
     88  N        -26.1190  144.6440   11.6800 N.am   99  ASN99      -0.1958
     89  CA       -25.3970  144.5140   12.9520 C.3    99  ASN99       0.1819
     90  C        -25.6970  143.1970   13.6860 C.2    99  ASN99       0.2621
     91  O        -26.0140  143.1880   14.8750 O.2    99  ASN99      -0.2715
     92  CB       -25.6710  145.7320   13.8510 C.3    99  ASN99       0.1195
     93  CG       -25.2390  147.0480   13.2070 C.2    99  ASN99       0.2630
     94  OD1      -24.4790  147.0680   12.2300 O.2    99  ASN99      -0.2716
     95  ND2      -25.7240  148.1540   13.7510 N.am   99  ASN99      -0.0877
     96  N        -25.6040  142.0960   12.9350 N.am  100  TRP100     -0.1974
     97  CA       -25.6350  140.7200   13.4690 C.3   100  TRP100      0.1640
     98  C        -26.9980  140.2700   14.0070 C.2   100  TRP100      0.2290
     99  O        -27.0830  139.3900   14.8690 O.2   100  TRP100     -0.2864
    100  CB       -24.5280  140.5240   14.5190 C.3   100  TRP100      0.0576
    101  CG       -23.1750  141.0230   14.0650 C.ar  100  TRP100      0.0006
    102  CD1      -22.6310  142.2660   14.2880 C.ar  100  TRP100      0.0946
    103  CD2      -22.2040  140.2920   13.3060 C.ar  100  TRP100      0.0152
    104  NE1      -21.3780  142.3420   13.7220 N.ar  100  TRP100     -0.2442
    105  CE2      -21.0930  141.1500   13.1060 C.ar  100  TRP100      0.0810
    106  CE3      -22.1530  138.9900   12.7920 C.ar  100  TRP100      0.0012
    107  CZ2      -19.9460  140.7470   12.4050 C.ar  100  TRP100      0.0191
    108  CZ3      -21.0150  138.5920   12.0810 C.ar  100  TRP100      0.0001
    109  CH2      -19.9230  139.4710   11.9060 C.ar  100  TRP100      0.0015
@<TRIPOS>BOND
     1    39    38    2
     2    45    44    2
     3    43    44    1
     4    43    42    1
     5    44    46   am
     6    38    42   am
     7    38    37    1
     8    57    56    1
     9    58    56    1
    10    46    47    1
    11    37    40    1
    12    37    36    1
    13    56    53    1
    14    47    48    1
    15    47    50    1
    16    40    41    1
    17    52    48   am
    18    52    53    1
    19    48    49    2
    20    51    50    1
    21    53    54    1
    22    27    26    2
    23    55    54    2
    24    54    59   am
    25    26    25    1
    26    59    60    1
    27    24    25    1
    28    25    28    1
    29    15    14    2
    30    60    61    1
    31    60    63    1
    32    28    29    1
    33    14    13    1
    34    61    62    2
    35    31    29   ar
    36    31    33   ar
    37    65    64    2
    38    29    30   ar
    39    66    64   am
    40    64    63    1
    41    33    34   ar
    42    13    12    1
    43    13    16    1
    44    30    32   ar
    45    34    32   ar
    46    34    35    1
    47    16    17    1
    48     3     2    1
    49     3     4    2
    50     2     1    1
    51     2     5    1
    52    18    17   ar
    53    18    20   ar
    54     8    10   ar
    55     8     6   ar
    56    10    11   ar
    57    17    19   ar
    58    20    22   ar
    59     5     6    1
    60     6     7   ar
    61    11     9   ar
    62    19    21   ar
    63     7     9   ar
    64    22    21   ar
    65    22    23    1
    66    67    68    1
    67    70    69    2
    68    71    68    1
    69    71    72    1
    70    68    69    1
    71    69    77   am
    72    72    74   ar
    73    72    73   ar
    74    74    76   ar
    75    77    78    1
    76    81    78    1
    77    81    82    1
    78    78    79    1
    79    73    75   ar
    80    76    75   ar
    81    83    82    1
    82    83    84    1
    83    79    88   am
    84    79    80    2
    85    88    89    1
    86    84    85    2
    87   109   108   ar
    88   109   107   ar
    89   108   106   ar
    90    94    93    2
    91   107   105   ar
    92    86    85    1
    93    85    87    1
    94   106   103   ar
    95    96    97    1
    96    96    90   am
    97    89    90    1
    98    89    92    1
    99   105   103   ar
   100   105   104   ar
   101    93    95   am
   102    93    92    1
   103   103   101   ar
   104    97    98    1
   105    97   100    1
   106    90    91    2
   107   104   102   ar
   108    98    99    2
   109   101   102   ar
   110   101   100    1
