@<TRIPOS>MOLECULE
tmp/5gkwA00.pdb
 141 132 0 0 0
SMALL
GASTEIGER

@<TRIPOS>ATOM
      1  N          5.2860   73.3590  132.8020 N.3    31  LEU31      -0.1245
      2  CA         4.8060   73.5560  131.4290 C.3    31  LEU31       0.1561
      3  C          5.7640   72.9400  130.4190 C.2    31  LEU31       0.2260
      4  O          5.3530   72.5050  129.3460 O.2    31  LEU31      -0.2867
      5  CB         4.6090   75.0460  131.1270 C.3    31  LEU31       0.0270
      6  CG         3.3520   75.6480  131.7480 C.3    31  LEU31       0.0019
      7  CD1        3.4090   77.1740  131.6650 C.3    31  LEU31       0.0001
      8  CD2        2.1120   75.0910  131.0430 C.3    31  LEU31       0.0001
      9  N         -9.0430   79.0000  131.4110 N.3    49  TYR49      -0.1241
     10  CA        -7.7050   79.2420  130.8980 C.3    49  TYR49       0.1605
     11  C         -7.8630   80.0670  129.6430 C.2    49  TYR49       0.2264
     12  O         -8.6380   79.7000  128.7480 O.2    49  TYR49      -0.2867
     13  CB        -6.9820   77.9020  130.5990 C.3    49  TYR49       0.0534
     14  CG        -5.7210   78.0180  129.7550 C.ar   49  TYR49      -0.0201
     15  CD1       -4.7970   79.0230  129.9830 C.ar   49  TYR49      -0.0009
     16  CD2       -5.4480   77.1060  128.7500 C.ar   49  TYR49      -0.0009
     17  CE1       -3.6380   79.1180  129.2150 C.ar   49  TYR49       0.0417
     18  CE2       -4.2940   77.1890  127.9920 C.ar   49  TYR49       0.0417
     19  CZ        -3.3950   78.1960  128.2290 C.ar   49  TYR49       0.1957
     20  OH        -2.2420   78.2870  127.4720 O.3    49  TYR49      -0.2866
     21  N         -5.5230   82.6460  126.7840 N.3    51  ASN51      -0.1240
     22  CA        -4.4830   83.5240  126.2420 C.3    51  ASN51       0.1653
     23  C         -5.1780   84.7780  125.7630 C.2    51  ASN51       0.2266
     24  O         -5.8430   84.7450  124.7340 O.2    51  ASN51      -0.2867
     25  CB        -3.7470   82.8760  125.0660 C.3    51  ASN51       0.1155
     26  CG        -2.8450   81.7490  125.4890 C.2    51  ASN51       0.2627
     27  OD1       -2.1790   81.8240  126.5350 O.2    51  ASN51      -0.2716
     28  ND2       -2.7960   80.6930  124.6660 N.am   51  ASN51      -0.0877
     29  N         -4.8350   72.6430  125.9880 N.3    67  LEU67      -0.1245
     30  CA        -3.4590   72.3250  126.3370 C.3    67  LEU67       0.1561
     31  C         -2.9240   71.1960  125.4490 C.2    67  LEU67       0.2260
     32  O         -1.7950   71.2470  124.9730 O.2    67  LEU67      -0.2867
     33  CB        -3.3540   71.9220  127.8040 C.3    67  LEU67       0.0270
     34  CG        -3.4430   73.0500  128.8280 C.3    67  LEU67       0.0019
     35  CD1       -3.2590   72.4490  130.2310 C.3    67  LEU67       0.0001
     36  CD2       -2.4050   74.1150  128.5250 C.3    67  LEU67       0.0001
     37  N         -2.2320   72.4870  121.9280 N.3    70  LEU70      -0.1245
     38  CA        -0.9800   73.2520  121.9590 C.3    70  LEU70       0.1561
     39  C          0.2660   72.3820  121.8380 C.2    70  LEU70       0.2260
     40  O          1.1770   72.6820  121.0630 O.2    70  LEU70      -0.2867
     41  CB        -0.8970   74.0540  123.2530 C.3    70  LEU70       0.0270
     42  CG         0.3690   74.8850  123.4290 C.3    70  LEU70       0.0019
     43  CD1        0.4760   75.9470  122.3350 C.3    70  LEU70       0.0001
     44  CD2        0.3760   75.5170  124.8110 C.3    70  LEU70       0.0001
     45  N          6.9800   73.8160  124.7230 N.3    76  VAL76      -0.1245
     46  CA         7.3750   74.8750  125.6350 C.3    76  VAL76       0.1561
     47  C          8.7460   74.4640  126.1230 C.2    76  VAL76       0.2260
     48  O          8.8720   73.5930  126.9910 O.2    76  VAL76      -0.2867
     49  CB         6.3990   75.0450  126.7980 C.3    76  VAL76       0.0252
     50  CG1        6.9360   76.0980  127.7810 C.3    76  VAL76       0.0019
     51  CG2        5.0260   75.4750  126.2740 C.3    76  VAL76       0.0019
     52  N          6.9920   86.6450  133.5630 N.3    95  ARG95      -0.1245
     53  CA         7.9070   85.5990  133.1150 C.3    95  ARG95       0.1563
     54  C          8.1630   85.6380  131.6240 C.2    95  ARG95       0.2260
     55  O          7.6040   86.4700  130.9110 O.2    95  ARG95      -0.2867
     56  CB         7.3620   84.2090  133.5090 C.3    95  ARG95       0.0307
     57  CG         6.1390   83.7510  132.7270 C.3    95  ARG95       0.0489
     58  CD         5.5280   82.4210  133.2490 C.3    95  ARG95       0.2205
     59  NE         4.7340   81.8170  132.1780 N.pl3  95  ARG95      -0.0865
     60  CZ         3.4150   81.9270  132.0350 C.cat  95  ARG95       0.5346
     61  NH1        2.6820   82.5870  132.9300 N.pl3  95  ARG95       0.1354
     62  NH2        2.8220   81.3530  130.9940 N.pl3  95  ARG95       0.1354
     63  N          8.0680   82.7050  128.4760 N.3    97  ASP97      -0.1239
     64  CA         7.9410   81.3390  127.9410 C.3    97  ASP97       0.1674
     65  C          8.6550   81.2590  126.6130 C.2    97  ASP97       0.2266
     66  O          8.4860   82.1280  125.7610 O.2    97  ASP97      -0.2867
     67  CB         6.4890   80.9330  127.7150 C.3    97  ASP97       0.1410
     68  CG         5.7070   80.8200  128.9970 C.2    97  ASP97       0.3668
     69  OD1        6.2350   81.1480  130.0760 O.co2  97  ASP97      -0.2456
     70  OD2        4.5280   80.4410  128.9060 O.co2  97  ASP97      -0.2456
     71  N          8.6680   79.1490  123.3590 N.3    99  LEU99      -0.1245
     72  CA         7.9120   78.1840  122.5710 C.3    99  LEU99       0.1561
     73  C          8.6810   77.8630  121.3090 C.2    99  LEU99       0.2260
     74  O          9.1920   78.7680  120.6700 O.2    99  LEU99      -0.2867
     75  CB         6.5260   78.7310  122.2230 C.3    99  LEU99       0.0270
     76  CG         5.4540   78.4600  123.2810 C.3    99  LEU99       0.0019
     77  CD1        5.7940   79.0580  124.6340 C.3    99  LEU99       0.0001
     78  CD2        4.0930   78.9300  122.8010 C.3    99  LEU99       0.0001
     79  N          8.2890   84.6800  124.4640 N.3   110  PHE110     -0.1241
     80  CA         7.0990   85.4630  124.8130 C.3   110  PHE110      0.1605
     81  C          7.2040   86.0630  126.2160 C.2   110  PHE110      0.2264
     82  O          7.3000   85.3340  127.2030 O.2   110  PHE110     -0.2867
     83  CB         5.8400   84.6100  124.7190 C.3   110  PHE110      0.0534
     84  CG         5.4770   84.2240  123.3140 C.ar  110  PHE110     -0.0203
     85  CD1        5.0280   85.1790  122.4100 C.ar  110  PHE110     -0.0042
     86  CD2        5.5900   82.9030  122.8920 C.ar  110  PHE110     -0.0042
     87  CE1        4.6930   84.8200  121.1100 C.ar  110  PHE110     -0.0003
     88  CE2        5.2570   82.5350  121.5950 C.ar  110  PHE110     -0.0003
     89  CZ         4.8160   83.4930  120.7050 C.ar  110  PHE110     -0.0000
     90  N          5.5510   87.3830  129.2590 N.3   112  ILE112     -0.1245
     91  CA         4.2040   87.1560  129.7600 C.3   112  ILE112      0.1561
     92  C          3.9940   87.6380  131.1910 C.2   112  ILE112      0.2260
     93  O          4.8390   87.4260  132.0520 O.2   112  ILE112     -0.2867
     94  CB         3.8710   85.6350  129.6860 C.3   112  ILE112      0.0252
     95  CG1        3.9470   85.1640  128.2350 C.3   112  ILE112      0.0019
     96  CG2        2.5160   85.3360  130.2810 C.3   112  ILE112      0.0019
     97  CD1        4.0960   83.6320  128.1020 C.3   112  ILE112      0.0001
     98  N         -6.8040   81.0200  134.9530 N.3   126  TRP126     -0.1241
     99  CA        -5.4450   81.2710  134.4540 C.3   126  TRP126      0.1605
    100  C         -5.5450   82.1040  133.2080 C.2   126  TRP126      0.2264
    101  O         -6.0470   81.6240  132.1900 O.2   126  TRP126     -0.2867
    102  CB        -4.7130   79.9490  134.1540 C.3   126  TRP126      0.0550
    103  CG        -3.3620   80.0860  133.4590 C.ar  126  TRP126      0.0003
    104  CD1       -2.5350   81.1650  133.4610 C.ar  126  TRP126      0.0946
    105  CD2       -2.7050   79.0740  132.6700 C.ar  126  TRP126      0.0152
    106  NE1       -1.4060   80.9070  132.7130 N.ar  126  TRP126     -0.2442
    107  CE2       -1.4790   79.6240  132.2280 C.ar  126  TRP126      0.0810
    108  CE3       -3.0290   77.7600  132.3010 C.ar  126  TRP126      0.0012
    109  CZ2       -0.5830   78.9100  131.4310 C.ar  126  TRP126      0.0191
    110  CZ3       -2.1380   77.0470  131.4990 C.ar  126  TRP126      0.0001
    111  CH2       -0.9310   77.6170  131.0770 C.ar  126  TRP126      0.0015
    112  N         -3.0930   84.4040  130.7320 N.3   128  ASP128     -0.1239
    113  CA        -1.7820   84.9210  130.3510 C.3   128  ASP128      0.1674
    114  C         -1.9580   86.1280  129.4580 C.2   128  ASP128      0.2266
    115  O         -2.7160   86.0800  128.4900 O.2   128  ASP128     -0.2867
    116  CB        -0.9470   83.8540  129.6130 C.3   128  ASP128      0.1410
    117  CG        -0.2140   82.8980  130.5670 C.2   128  ASP128      0.3668
    118  OD1       -0.0430   83.2510  131.7620 O.co2 128  ASP128     -0.2456
    119  OD2        0.2200   81.7940  130.1140 O.co2 128  ASP128     -0.2456
    120  N          0.0830   88.5930  126.8890 N.3   130  PHE130     -0.1241
    121  CA         1.2970   88.7780  126.1280 C.3   130  PHE130      0.1605
    122  C          0.9450   89.1840  124.7160 C.2   130  PHE130      0.2264
    123  O         -0.2270   89.2220  124.3450 O.2   130  PHE130     -0.2867
    124  CB         2.1830   87.4980  126.1570 C.3   130  PHE130      0.0534
    125  CG         1.5330   86.2620  125.5720 C.ar  130  PHE130     -0.0203
    126  CD1        0.5310   85.5810  126.2700 C.ar  130  PHE130     -0.0042
    127  CD2        1.9780   85.7360  124.3660 C.ar  130  PHE130     -0.0042
    128  CE1       -0.0410   84.4180  125.7390 C.ar  130  PHE130     -0.0003
    129  CE2        1.4130   84.5570  123.8230 C.ar  130  PHE130     -0.0003
    130  CZ         0.3960   83.9090  124.5110 C.ar  130  PHE130     -0.0000
    131  N          2.3860   84.7930  117.9070 N.3   135  PHE135     -0.1241
    132  CA         1.6650   83.6140  118.3530 C.3   135  PHE135      0.1605
    133  C          0.9790   82.8790  117.1980 C.2   135  PHE135      0.2264
    134  O          1.0110   81.6550  117.1460 O.2   135  PHE135     -0.2867
    135  CB         0.6420   83.9930  119.4260 C.3   135  PHE135      0.0534
    136  CG         0.1670   82.8220  120.2420 C.ar  135  PHE135     -0.0203
    137  CD1        1.0310   82.1840  121.1320 C.ar  135  PHE135     -0.0042
    138  CD2       -1.1300   82.3640  120.1300 C.ar  135  PHE135     -0.0042
    139  CE1        0.6060   81.1090  121.8930 C.ar  135  PHE135     -0.0003
    140  CE2       -1.5650   81.2800  120.8940 C.ar  135  PHE135     -0.0003
    141  CZ        -0.6950   80.6580  121.7750 C.ar  135  PHE135     -0.0000
@<TRIPOS>BOND
     1   134   133    2
     2   133   132    1
     3   131   132    1
     4   132   135    1
     5   135   136    1
     6   138   136   ar
     7   138   140   ar
     8   136   137   ar
     9    74    73    2
    10    89    87   ar
    11    89    88   ar
    12   140   141   ar
    13    40    39    2
    14    87    85   ar
    15   137   139   ar
    16    73    72    1
    17    88    86   ar
    18   141   139   ar
    19    39    38    1
    20    37    38    1
    21    38    41    1
    22    75    72    1
    23    75    76    1
    24    43    42    1
    25    85    84   ar
    26    72    71    1
    27    78    76    1
    28    86    84   ar
    29    41    42    1
    30    76    77    1
    31    84    83    1
    32    42    44    1
    33   129   127   ar
    34   129   130   ar
    35   123   122    2
    36   127   125   ar
    37    79    80    1
    38   130   128   ar
    39    28    26   am
    40   122   121    1
    41    83    80    1
    42    45    46    1
    43    24    23    2
    44    80    81    1
    45    32    31    2
    46    25    26    1
    47    25    22    1
    48    31    30    1
    49    26    27    2
    50   125   124    1
    51   125   126   ar
    52    46    47    1
    53    46    49    1
    54   128   126   ar
    55    66    65    2
    56    23    22    1
    57    29    30    1
    58    47    48    2
    59   121   124    1
    60   121   120    1
    61    81    82    2
    62    22    21    1
    63    51    49    1
    64    30    33    1
    65    65    64    1
    66    49    50    1
    67    20    19    1
    68    67    64    1
    69    67    68    1
    70    33    34    1
    71    64    63    1
    72    18    19   ar
    73    18    16   ar
    74    97    95    1
    75    19    17   ar
    76    95    94    1
    77   115   114    2
    78    36    34    1
    79    12    11    2
    80    16    14   ar
    81    34    35    1
    82    70    68   ar
    83    68    69   ar
    84    17    15   ar
    85    90    91    1
    86     4     3    2
    87   114   113    1
    88   116   113    1
    89   116   117    1
    90    11    10    1
    91    94    91    1
    92    94    96    1
    93    14    15   ar
    94    14    13    1
    95    91    92    1
    96   119   117   ar
    97   113   112    1
    98     3     2    1
    99   117   118   ar
   100    13    10    1
   101    10     9    1
   102    55    54    2
   103    62    60    1
   104     8     6    1
   105   111   109   ar
   106   111   110   ar
   107     5     2    1
   108     5     6    1
   109    92    93    2
   110     2     1    1
   111   109   107   ar
   112   110   108   ar
   113    54    53    1
   114     7     6    1
   115    60    59    2
   116    60    61    1
   117    59    58    1
   118   101   100    2
   119   107   105   ar
   120   107   106   ar
   121   108   105   ar
   122   105   103   ar
   123   106   104   ar
   124    57    58    1
   125    57    56    1
   126    53    56    1
   127    53    52    1
   128   100    99    1
   129   103   104   ar
   130   103   102    1
   131   102    99    1
   132    99    98    1
