@<TRIPOS>MOLECULE
tmp/5gl5A00.pdb
 179 172 0 0 0
SMALL
GASTEIGER

@<TRIPOS>ATOM
      1  N         17.0030    6.1670  -42.3400 N.3    13  SER13      -0.1202
      2  CA        18.4450    6.3130  -42.4970 C.3    13  SER13       0.2020
      3  C         18.9490    5.3540  -43.5980 C.2    13  SER13       0.2619
      4  O         18.1430    4.6910  -44.3230 O.2    13  SER13      -0.2717
      5  CB        19.0780    6.0370  -41.1290 C.3    13  SER13       0.2103
      6  OG        18.5950    4.7880  -40.6120 O.3    13  SER13      -0.2182
      7  N         20.2730    5.2960  -43.7700 N.am   14  ARG14      -0.1965
      8  CA        20.8820    4.3750  -44.7090 C.3    14  ARG14       0.1729
      9  C         20.3370    2.9610  -44.7060 C.2    14  ARG14       0.2617
     10  O         20.1850    2.3540  -45.7590 O.2    14  ARG14      -0.2715
     11  CB        22.4300    4.3220  -44.4660 C.3    14  ARG14       0.0348
     12  CG        23.1190    3.2840  -45.3400 C.3    14  ARG14       0.0492
     13  CD        24.5940    3.4040  -45.2290 C.3    14  ARG14       0.2205
     14  NE        25.2420    2.4530  -46.0730 N.pl3  14  ARG14      -0.0865
     15  CZ        26.5600    2.4150  -46.2770 C.cat  14  ARG14       0.5346
     16  NH1       27.4130    3.2820  -45.7090 N.pl3  14  ARG14       0.1354
     17  NH2       27.0430    1.4680  -47.0640 N.pl3  14  ARG14       0.1354
     18  N         20.0840    2.4020  -43.5410 N.am   15  GLY15      -0.1940
     19  CA        19.6080    1.0350  -43.4160 C.3    15  GLY15       0.2014
     20  C         18.1880    0.8510  -43.8340 C.2    15  GLY15       0.2638
     21  O         17.7480   -0.2830  -44.0530 O.2    15  GLY15      -0.2714
     22  N         17.4330    1.9420  -43.9260 N.am   16  ASP16      -0.1971
     23  CA        16.1060    1.8310  -44.4830 C.3    16  ASP16       0.1709
     24  C         16.2180    1.8600  -46.0340 C.2    16  ASP16       0.2293
     25  O         15.3960    1.2670  -46.6830 O.2    16  ASP16      -0.2864
     26  CB        15.2450    2.9640  -43.9400 C.3    16  ASP16       0.1436
     27  CG        15.0670    2.8550  -42.4070 C.2    16  ASP16       0.3671
     28  OD1       14.3730    1.8760  -41.9640 O.co2  16  ASP16      -0.2456
     29  OD2       15.6570    3.7100  -41.6700 O.co2  16  ASP16      -0.2456
     30  N         19.2840    1.3040  -48.1620 N.3    18  GLN18      -0.1245
     31  CA        20.1540    0.3550  -48.8550 C.3    18  GLN18       0.1566
     32  C         19.4700   -0.9640  -49.3040 C.2    18  GLN18       0.2260
     33  O         19.6710   -1.3940  -50.4630 O.2    18  GLN18      -0.2867
     34  CB        21.3840    0.0950  -48.0070 C.3    18  GLN18       0.0367
     35  CG        22.3390   -0.9080  -48.5610 C.3    18  GLN18       0.0905
     36  CD        23.7320   -0.7230  -48.0740 C.2    18  GLN18       0.2608
     37  OE1       24.1620    0.3890  -47.7790 O.2    18  GLN18      -0.2717
     38  NE2       24.4630   -1.8070  -48.0020 N.am   18  GLN18      -0.0878
     39  N         12.5490   -4.5300  -41.6770 N.3   133  THR133     -0.1203
     40  CA        13.6700   -5.2660  -41.1580 C.3   133  THR133      0.1994
     41  C         13.6030   -5.4840  -39.6250 C.2   133  THR133      0.2617
     42  O         14.6040   -5.8420  -39.0110 O.2   133  THR133     -0.2717
     43  CB        14.9580   -4.4770  -41.4370 C.3   133  THR133      0.1784
     44  OG1       14.7700   -3.1410  -40.9420 O.3   133  THR133     -0.2211
     45  CG2       15.2100   -4.4620  -42.9300 C.3   133  THR133      0.0376
     46  N         12.4230   -5.2990  -39.0470 N.am  134  MET134     -0.1979
     47  CA        12.2200   -5.5030  -37.6230 C.3   134  MET134      0.1605
     48  C         10.7840   -5.9400  -37.3730 C.2   134  MET134      0.2287
     49  O          9.9270   -5.6190  -38.1760 O.2   134  MET134     -0.2864
     50  CB        12.5000   -4.1680  -36.8910 C.3   134  MET134      0.0413
     51  CG        11.5750   -3.0300  -37.2910 C.3   134  MET134      0.0598
     52  SD        12.1170   -1.4370  -36.5560 S.3   134  MET134     -0.1393
     53  CE        13.4420   -1.0170  -37.6590 C.3   134  MET134      0.0692
     54  N         36.3630   -4.8960  -35.5820 N.3   257  TYR257     -0.1241
     55  CA        35.6930   -3.6720  -36.0110 C.3   257  TYR257      0.1605
     56  C         34.8390   -3.2040  -34.8470 C.2   257  TYR257      0.2264
     57  O         34.1530   -4.0290  -34.2100 O.2   257  TYR257     -0.2867
     58  CB        34.8150   -3.9620  -37.2120 C.3   257  TYR257      0.0534
     59  CG        33.9010   -2.8590  -37.6620 C.ar  257  TYR257     -0.0201
     60  CD1       34.3240   -1.9210  -38.5760 C.ar  257  TYR257     -0.0009
     61  CD2       32.5770   -2.7930  -37.1970 C.ar  257  TYR257     -0.0009
     62  CE1       33.4980   -0.9000  -38.9800 C.ar  257  TYR257      0.0417
     63  CE2       31.7300   -1.8000  -37.6150 C.ar  257  TYR257      0.0417
     64  CZ        32.1930   -0.8570  -38.5150 C.ar  257  TYR257      0.1957
     65  OH        31.3690    0.1340  -38.9650 O.3   257  TYR257     -0.2866
     66  N         27.2940    3.2670  -35.5710 N.3   261  GLY261     -0.1210
     67  CA        26.5150    4.1650  -36.4210 C.3   261  GLY261      0.1956
     68  C         26.4890    5.5850  -35.8650 C.2   261  GLY261      0.2612
     69  O         27.3360    5.9870  -35.0280 O.2   261  GLY261     -0.2717
     70  N         25.4940    6.3340  -36.3270 N.am  262  SER262     -0.1952
     71  CA        25.2410    7.7060  -35.8760 C.3   262  SER262      0.1924
     72  C         24.4490    7.7070  -34.5550 C.2   262  SER262      0.2314
     73  O         23.3350    7.2040  -34.5180 O.2   262  SER262     -0.2863
     74  CB        24.4300    8.4410  -36.9510 C.3   262  SER262      0.2116
     75  OG        24.0800    9.7520  -36.5430 O.3   262  SER262     -0.2180
     76  N         34.9330    2.9450  -36.5440 N.3   289  ASN289     -0.1240
     77  CA        34.1090    3.7900  -37.4080 C.3   289  ASN289      0.1653
     78  C         33.2560    4.6280  -36.4680 C.2   289  ASN289      0.2266
     79  O         32.0990    4.2880  -36.1400 O.2   289  ASN289     -0.2867
     80  CB        33.2940    2.9280  -38.3590 C.3   289  ASN289      0.1155
     81  CG        32.3630    3.7190  -39.2530 C.2   289  ASN289      0.2627
     82  OD1       32.3160    4.9250  -39.2210 O.2   289  ASN289     -0.2716
     83  ND2       31.6160    3.0240  -40.0560 N.am  289  ASN289     -0.0877
     84  N         33.2390    5.2910  -43.2160 N.3   313  ASN313     -0.1225
     85  CA        32.4480    4.1930  -43.6620 C.3   313  ASN313      0.1785
     86  C         33.2490    3.3970  -44.6900 C.2   313  ASN313      0.2597
     87  O         33.8740    3.9720  -45.5860 O.2   313  ASN313     -0.2718
     88  CB        31.1230    4.6850  -44.2400 C.3   313  ASN313      0.1169
     89  CG        30.2890    5.4370  -43.2100 C.2   313  ASN313      0.2627
     90  OD1       30.1560    5.0130  -42.0610 O.2   313  ASN313     -0.2716
     91  ND2       29.7360    6.5680  -43.6210 N.am  313  ASN313     -0.0877
     92  N         33.2430    2.0780  -44.5220 N.am  314  VAL314     -0.1966
     93  CA        33.9020    1.1650  -45.4190 C.3   314  VAL314      0.1712
     94  C         32.8830    0.0930  -45.6990 C.2   314  VAL314      0.2458
     95  O         32.2350   -0.3590  -44.7710 O.2   314  VAL314     -0.2730
     96  CB        35.1090    0.5480  -44.7050 C.3   314  VAL314      0.0289
     97  CG1       35.7350   -0.5800  -45.5230 C.3   314  VAL314      0.0023
     98  CG2       36.1090    1.6420  -44.4190 C.3   314  VAL314      0.0023
     99  N         32.7500   -0.3340  -46.9570 N.am  315  PRO315     -0.2716
    100  CA        31.7220   -1.3510  -47.1760 C.3   315  PRO315      0.1536
    101  C         31.9940   -2.6240  -46.3350 C.2   315  PRO315      0.2598
    102  O         33.1100   -3.1640  -46.3350 O.2   315  PRO315     -0.2715
    103  CB        31.7930   -1.6240  -48.6900 C.3   315  PRO315      0.0310
    104  CG        32.6900   -0.5940  -49.2840 C.3   315  PRO315      0.0237
    105  CD        33.5210   -0.0070  -48.1770 C.3   315  PRO315      0.0939
    106  N         30.9780   -3.0750  -45.6180 N.am  316  HIS316     -0.1974
    107  CA        31.1420   -4.1750  -44.6750 C.3   316  HIS316      0.1656
    108  C         31.3550   -5.5130  -45.3760 C.2   316  HIS316      0.2291
    109  O         32.0570   -6.3860  -44.8610 O.2   316  HIS316     -0.2864
    110  CB        29.9580   -4.2340  -43.6940 C.3   316  HIS316      0.0771
    111  CG        29.9970   -3.1620  -42.6440 C.ar  316  HIS316      0.0820
    112  ND1       28.8720   -2.7380  -41.9690 N.ar  316  HIS316     -0.2267
    113  CD2       31.0310   -2.4310  -42.1520 C.ar  316  HIS316      0.1154
    114  CE1       29.2100   -1.7950  -41.1090 C.ar  316  HIS316      0.1986
    115  NE2       30.5110   -1.5760  -41.2090 N.ar  316  HIS316     -0.2212
    116  N         26.0200   -1.5850  -32.9590 N.3   329  HIS329     -0.1241
    117  CA        24.7810   -1.1220  -32.3250 C.3   329  HIS329      0.1621
    118  C         23.5850   -2.0680  -32.4990 C.2   329  HIS329      0.2264
    119  O         22.5450   -1.8660  -31.9000 O.2   329  HIS329     -0.2867
    120  CB        24.4560    0.2740  -32.8360 C.3   329  HIS329      0.0745
    121  CG        24.2430    0.3520  -34.3210 C.ar  329  HIS329      0.0817
    122  ND1       25.2210   -0.0100  -35.2340 N.ar  329  HIS329     -0.2268
    123  CD2       23.2080    0.8290  -35.0470 C.ar  329  HIS329      0.1154
    124  CE1       24.7620    0.1830  -36.4580 C.ar  329  HIS329      0.1986
    125  NE2       23.5490    0.6930  -36.3730 N.ar  329  HIS329     -0.2212
    126  N         21.9610   -2.5350  -35.3240 N.3   331  GLY331     -0.1210
    127  CA        21.0950   -2.1570  -36.4140 C.3   331  GLY331      0.1956
    128  C         20.8230   -3.4040  -37.2920 C.2   331  GLY331      0.2613
    129  O         21.6780   -4.3050  -37.4110 O.2   331  GLY331     -0.2717
    130  N         19.6470   -3.4670  -37.9000 N.am  332  SER332     -0.1938
    131  CA        19.2470   -4.6870  -38.5800 C.3   332  SER332      0.2055
    132  C         20.2190   -5.0540  -39.7140 C.2   332  SER332      0.2644
    133  O         20.5720   -6.2280  -39.8660 O.2   332  SER332     -0.2714
    134  CB        17.8220   -4.6090  -39.1710 C.3   332  SER332      0.2130
    135  OG        17.7800   -3.5520  -40.1390 O.3   332  SER332     -0.2179
    136  N         20.5970   -4.0710  -40.5000 N.am  333  GLY333     -0.1939
    137  CA        21.4680   -4.3130  -41.6330 C.3   333  GLY333      0.2014
    138  C         22.8930   -4.6480  -41.1800 C.2   333  GLY333      0.2639
    139  O         23.5450   -5.5180  -41.7610 O.2   333  GLY333     -0.2714
    140  N         23.3780   -3.9440  -40.1730 N.am  334  THR334     -0.1950
    141  CA        24.7180   -4.1750  -39.6820 C.3   334  THR334      0.1897
    142  C         24.8410   -5.5610  -39.0340 C.2   334  THR334      0.2313
    143  O         25.8400   -6.2460  -39.2090 O.2   334  THR334     -0.2863
    144  CB        25.1270   -3.0540  -38.7470 C.3   334  THR334      0.1794
    145  OG1       24.9540   -1.7980  -39.4400 O.3   334  THR334     -0.2208
    146  CG2       26.5710   -3.2510  -38.3060 C.3   334  THR334      0.0378
    147  N         25.1750   -7.9580  -41.8290 N.3   337  ALA337     -0.1245
    148  CA        26.5050   -7.9860  -42.3750 C.3   337  ALA337      0.1562
    149  C         27.4830   -8.7890  -41.4890 C.2   337  ALA337      0.2260
    150  O         28.3240   -9.5470  -42.0210 O.2   337  ALA337     -0.2867
    151  CB        27.0360   -6.5630  -42.6120 C.3   337  ALA337      0.0290
    152  N         18.7120    2.0840  -29.2140 N.3   351  PHE351     -0.1241
    153  CA        17.3430    2.5130  -29.4980 C.3   351  PHE351      0.1605
    154  C         16.6010    1.4070  -30.2790 C.2   351  PHE351      0.2264
    155  O         17.1790    0.7420  -31.1460 O.2   351  PHE351     -0.2867
    156  CB        17.3520    3.8230  -30.3020 C.3   351  PHE351      0.0534
    157  CG        17.4390    5.0760  -29.4680 C.ar  351  PHE351     -0.0203
    158  CD1       16.2990    5.5920  -28.8470 C.ar  351  PHE351     -0.0042
    159  CD2       18.6670    5.7700  -29.3180 C.ar  351  PHE351     -0.0042
    160  CE1       16.3770    6.7670  -28.0770 C.ar  351  PHE351     -0.0003
    161  CE2       18.7450    6.9350  -28.5460 C.ar  351  PHE351     -0.0003
    162  CZ        17.6030    7.4330  -27.9220 C.ar  351  PHE351     -0.0000
    163  N         14.8170   -1.3030  -32.4110 N.3   353  ASP353     -0.1225
    164  CA        15.0260   -2.6940  -32.7810 C.3   353  ASP353      0.1805
    165  C         16.4460   -3.1940  -32.4760 C.2   353  ASP353      0.2597
    166  O         16.6830   -4.3740  -32.5240 O.2   353  ASP353     -0.2718
    167  CB        14.7080   -2.9010  -34.2850 C.3   353  ASP353      0.1424
    168  CG        15.7020   -2.2100  -35.2090 C.2   353  ASP353      0.3668
    169  OD1       16.1940   -1.1260  -34.8720 O.co2 353  ASP353     -0.2456
    170  OD2       15.9800   -2.7560  -36.2920 O.co2 353  ASP353     -0.2456
    171  N         17.3690   -2.3030  -32.1140 N.am  354  GLN354     -0.1979
    172  CA        18.6910   -2.7380  -31.6670 C.3   354  GLN354      0.1601
    173  C         18.5660   -3.6370  -30.4720 C.2   354  GLN354      0.2287
    174  O         19.3560   -4.5950  -30.3440 O.2   354  GLN354     -0.2864
    175  CB        19.5590   -1.5090  -31.3580 C.3   354  GLN354      0.0394
    176  CG        19.7700   -0.6490  -32.6060 C.3   354  GLN354      0.0908
    177  CD        20.2710    0.7490  -32.2880 C.2   354  GLN354      0.2608
    178  OE1       20.6820    1.0840  -31.1420 O.2   354  GLN354     -0.2717
    179  NE2       20.2180    1.5810  -33.2870 N.am  354  GLN354     -0.0878
@<TRIPOS>BOND
     1    33    32    2
     2    32    31    1
     3   104   103    1
     4   104   105    1
     5    31    30    1
     6    31    34    1
     7   103   100    1
     8    35    36    1
     9    35    34    1
    10   105    99    1
    11    36    38   am
    12    36    37    2
    13   100    99    1
    14   100   101    1
    15    17    15    1
    16    99    94   am
    17    25    24    2
    18   101   102    2
    19   101   106   am
    20    15    14    2
    21    15    16    1
    22    14    13    1
    23    24    23    1
    24    10     9    2
    25    94    93    1
    26    94    95    2
    27   106   107    1
    28    87    86    2
    29    97    96    1
    30    93    96    1
    31    93    92    1
    32   108   109    2
    33   108   107    1
    34    12    13    1
    35    12    11    1
    36     8     9    1
    37     8    11    1
    38     8     7    1
    39     9    18   am
    40    96    98    1
    41    86    92   am
    42    86    85    1
    43   107   110    1
    44    23    26    1
    45    23    22    1
    46     4     3    2
    47    88    85    1
    48    88    89    1
    49    21    20    2
    50    26    27    1
    51    22    20   am
    52    20    19    1
    53     7     3   am
    54   110   111    1
    55    85    84    1
    56    91    89   am
    57     3     2    1
    58    18    19    1
    59    89    90    2
    60    45    43    1
    61   111   113   ar
    62   111   112   ar
    63   151   148    1
    64     2     1    1
    65     2     5    1
    66    27    28   ar
    67    27    29   ar
    68   148   147    1
    69   148   149    1
    70   113   115   ar
    71   150   149    2
    72   112   114   ar
    73   139   138    2
    74    39    40    1
    75   137   138    1
    76   137   136    1
    77    43    40    1
    78    43    44    1
    79   115   114   ar
    80   138   140   am
    81    40    41    1
    82     5     6    1
    83   136   132   am
    84   140   141    1
    85   135   134    1
    86    83    81   am
    87   133   132    2
    88   132   131    1
    89   141   142    1
    90   141   144    1
    91    41    46   am
    92    41    42    2
    93   145   144    1
    94    81    82    2
    95    81    80    1
    96   143   142    2
    97   134   131    1
    98    46    47    1
    99    62    60   ar
   100    62    64   ar
   101    65    64    1
   102   144   146    1
   103   131   130    1
   104    60    59   ar
   105    64    63   ar
   106    80    77    1
   107    49    48    2
   108   130   128   am
   109    59    58    1
   110    59    61   ar
   111    53    52    1
   112    47    48    1
   113    47    50    1
   114    63    61   ar
   115   129   128    2
   116    77    76    1
   117    77    78    1
   118   128   127    1
   119    51    50    1
   120    51    52    1
   121    58    55    1
   122    74    75    1
   123    74    71    1
   124    78    79    2
   125   124   125   ar
   126   124   122   ar
   127    67    68    1
   128    67    66    1
   129   127   126    1
   130   125   123   ar
   131    70    71    1
   132    70    68   am
   133   170   168   ar
   134    55    54    1
   135    55    56    1
   136    71    72    1
   137    68    69    2
   138   122   121   ar
   139   168   169   ar
   140   168   167    1
   141   123   121   ar
   142    56    57    2
   143    72    73    2
   144   121   120    1
   145   167   164    1
   146   179   177   am
   147   116   117    1
   148   120   117    1
   149   164   165    1
   150   164   163    1
   151   176   177    1
   152   176   175    1
   153   166   165    2
   154   118   117    1
   155   118   119    2
   156   165   171   am
   157   177   178    2
   158   171   172    1
   159   172   175    1
   160   172   173    1
   161   155   154    2
   162   173   174    2
   163   156   153    1
   164   156   157    1
   165   154   153    1
   166   153   152    1
   167   157   159   ar
   168   157   158   ar
   169   159   161   ar
   170   158   160   ar
   171   161   162   ar
   172   160   162   ar
