@<TRIPOS>MOLECULE
tmp/5glbA00.pdb
 124 116 0 0 0
SMALL
GASTEIGER

@<TRIPOS>ATOM
      1  N         15.7710   11.5560   10.2820 N.3    49  SER49      -0.1217
      2  CA        14.5030   11.8880   10.9240 C.3    49  SER49       0.1889
      3  C         14.2950   11.3230   12.3670 C.2    49  SER49       0.2288
      4  O         13.3210   11.6200   12.9800 O.2    49  SER49      -0.2866
      5  CB        13.3200   11.4920   10.0200 C.3    49  SER49       0.2089
      6  OG        13.2310   12.3220    8.9110 O.3    49  SER49      -0.2183
      7  N         13.2880   13.5100   15.3400 N.3    52  LYS52      -0.1245
      8  CA        11.9330   14.0230   15.5840 C.3    52  LYS52       0.1561
      9  C         11.3520   13.5460   16.9210 C.2    52  LYS52       0.2260
     10  O         10.4550   14.1820   17.4820 O.2    52  LYS52      -0.2867
     11  CB        11.0150   13.7030   14.3990 C.3    52  LYS52       0.0271
     12  CG        11.3530   14.5450   13.1640 C.3    52  LYS52       0.0035
     13  CD        10.8910   13.9000   11.8490 C.3    52  LYS52       0.0206
     14  CE        11.2020   14.8540   10.6840 C.3    52  LYS52       0.1093
     15  NZ        11.0630   14.1860    9.3370 N.3    52  LYS52      -0.1314
     16  N          9.9230   19.9370    1.3680 N.3    83  ARG83      -0.1231
     17  CA         9.7630   18.6410    0.7010 C.3    83  ARG83       0.1694
     18  C          9.3400   17.5670    1.7040 C.2    83  ARG83       0.2592
     19  O          9.8910   17.4970    2.8000 O.2    83  ARG83      -0.2718
     20  CB        11.0550   18.2060    0.0110 C.3    83  ARG83       0.0321
     21  CG        10.9040   16.9020   -0.7460 C.3    83  ARG83       0.0489
     22  CD        12.2030   16.1160   -0.8150 C.3    83  ARG83       0.2205
     23  NE        13.2340   16.8320   -1.5560 N.pl3  83  ARG83      -0.0865
     24  CZ        14.2780   16.2440   -2.1350 C.cat  83  ARG83       0.5346
     25  NH1       15.1730   16.9690   -2.7900 N.pl3  83  ARG83       0.1354
     26  NH2       14.4250   14.9290   -2.0640 N.pl3  83  ARG83       0.1354
     27  N          8.3540   16.7600    1.3120 N.am   84  TYR84      -0.1976
     28  CA         7.7550   15.6920    2.1160 C.3    84  TYR84       0.1639
     29  C          6.9470   16.2170    3.2950 C.2    84  TYR84       0.2290
     30  O          7.4110   16.2280    4.4460 O.2    84  TYR84      -0.2864
     31  CB         8.7460   14.6090    2.5520 C.3    84  TYR84       0.0560
     32  CG         8.0180   13.4530    3.1980 C.ar   84  TYR84      -0.0198
     33  CD1        7.1540   12.6420    2.4590 C.ar   84  TYR84      -0.0009
     34  CD2        8.1530   13.2020    4.5500 C.ar   84  TYR84      -0.0009
     35  CE1        6.4660   11.5920    3.0620 C.ar   84  TYR84       0.0417
     36  CE2        7.4790   12.1660    5.1560 C.ar   84  TYR84       0.0417
     37  CZ         6.6360   11.3640    4.4170 C.ar   84  TYR84       0.1957
     38  OH         5.9650   10.3320    5.0510 O.3    84  TYR84      -0.2866
     39  N          4.2500   10.2810   10.5520 N.3   108  TYR108     -0.1227
     40  CA         4.4460   10.3190    9.1070 C.3   108  TYR108      0.1736
     41  C          5.7990   10.8760    8.7070 C.2   108  TYR108      0.2596
     42  O          6.1420   10.8600    7.5290 O.2   108  TYR108     -0.2718
     43  CB         3.3220   11.1130    8.4310 C.3   108  TYR108      0.0548
     44  CG         1.9870   10.4070    8.5090 C.ar  108  TYR108     -0.0200
     45  CD1        1.1610   10.5650    9.6140 C.ar  108  TYR108     -0.0009
     46  CD2        1.5890    9.5510    7.5010 C.ar  108  TYR108     -0.0009
     47  CE1       -0.0540    9.9020    9.6940 C.ar  108  TYR108      0.0417
     48  CE2        0.3840    8.8810    7.5660 C.ar  108  TYR108      0.0417
     49  CZ        -0.4310    9.0570    8.6590 C.ar  108  TYR108      0.1957
     50  OH        -1.6330    8.3860    8.7210 O.3   108  TYR108     -0.2866
     51  N          6.5810   11.3300    9.6920 N.am  109  SER109     -0.1952
     52  CA         7.8690   11.9820    9.4330 C.3   109  SER109      0.1924
     53  C          7.7290   13.3070    8.6680 C.2   109  SER109      0.2314
     54  O          8.6530   13.7280    7.9820 O.2   109  SER109     -0.2863
     55  CB         8.8410   11.0450    8.7070 C.3   109  SER109      0.2116
     56  OG        10.1690   11.2510    9.1620 O.3   109  SER109     -0.2180
     57  N          7.9590   16.7820    7.2800 N.3   111  ASN111     -0.1240
     58  CA         9.0760   17.7170    7.4040 C.3   111  ASN111      0.1653
     59  C          8.7080   19.1650    7.7140 C.2   111  ASN111      0.2266
     60  O          9.4470   19.8540    8.4480 O.2   111  ASN111     -0.2867
     61  CB         9.9710   17.6500    6.1680 C.3   111  ASN111      0.1155
     62  CG        10.8300   16.4150    6.1420 C.2   111  ASN111      0.2627
     63  OD1       11.2490   15.9070    7.1820 O.2   111  ASN111     -0.2716
     64  ND2       11.1260   15.9320    4.9420 N.am  111  ASN111     -0.0877
     65  N         15.0000   20.6370    8.4040 N.3   145  GLU145     -0.1231
     66  CA        14.6600   19.8020    7.2550 C.3   145  GLU145      0.1699
     67  C         14.6770   20.6570    5.9940 C.2   145  GLU145      0.2592
     68  O         14.2620   21.8140    6.0400 O.2   145  GLU145     -0.2718
     69  CB        13.2840   19.1540    7.4340 C.3   145  GLU145      0.0402
     70  CG        13.2260   18.1280    8.5680 C.3   145  GLU145      0.1161
     71  CD        13.9200   16.8250    8.2380 C.2   145  GLU145      0.3649
     72  OE1       13.8870   15.8910    9.0820 O.co2 145  GLU145     -0.2457
     73  OE2       14.5170   16.7120    7.1400 O.co2 145  GLU145     -0.2457
     74  N         15.1580   20.1160    4.8720 N.am  146  THR146     -0.1953
     75  CA        15.6420   18.7340    4.7690 C.3   146  THR146      0.1897
     76  C         17.1630   18.6440    4.7590 C.2   146  THR146      0.2313
     77  O         17.7280   17.5640    4.5460 O.2   146  THR146     -0.2863
     78  CB        15.1380   18.0870    3.4750 C.3   146  THR146      0.1794
     79  OG1       15.5300   18.9070    2.3620 O.3   146  THR146     -0.2208
     80  CG2       13.6220   17.9570    3.4970 C.3   146  THR146      0.0378
     81  N         19.5820   15.9370    6.4610 N.3   149  ASN149     -0.1240
     82  CA        19.6930   14.5670    5.9560 C.3   149  ASN149      0.1653
     83  C         20.7970   14.4030    4.9310 C.2   149  ASN149      0.2266
     84  O         21.0890   13.2880    4.4950 O.2   149  ASN149     -0.2867
     85  CB        18.3900   14.1250    5.2980 C.3   149  ASN149      0.1155
     86  CG        17.2110   14.2700    6.2100 C.2   149  ASN149      0.2627
     87  OD1       17.1370   13.6160    7.2480 O.2   149  ASN149     -0.2716
     88  ND2       16.2640   15.1190    5.8260 N.am  149  ASN149     -0.0877
     89  N          5.5040    4.6400    9.4390 N.3   195  THR195     -0.1218
     90  CA         6.6140    4.5200    8.5000 C.3   195  THR195      0.1862
     91  C          7.5930    3.3930    8.8130 C.2   195  THR195      0.2287
     92  O          8.5760    3.2210    8.0880 O.2   195  THR195     -0.2866
     93  CB         7.4420    5.8210    8.4580 C.3   195  THR195      0.1770
     94  OG1        8.1160    5.9830    9.7110 O.3   195  THR195     -0.2211
     95  CG2        6.5280    7.0300    8.2230 C.3   195  THR195      0.0375
     96  N         11.0280   -2.1800    9.3320 N.3   199  ARG199     -0.1245
     97  CA        12.2660   -1.9940   10.0860 C.3   199  ARG199      0.1563
     98  C         12.2290   -2.7390   11.4210 C.2   199  ARG199      0.2260
     99  O         12.0650   -3.9630   11.3920 O.2   199  ARG199     -0.2867
    100  CB        12.6400   -0.5040   10.1440 C.3   199  ARG199      0.0307
    101  CG        13.0100   -0.0070    8.7510 C.3   199  ARG199      0.0489
    102  CD        13.4510    1.4400    8.7000 C.3   199  ARG199      0.2205
    103  NE        13.8000    1.8070    7.3200 N.pl3 199  ARG199     -0.0865
    104  CZ        14.2910    2.9910    6.9570 C.cat 199  ARG199      0.5346
    105  NH1       14.5170    3.9250    7.8620 N.pl3 199  ARG199      0.1354
    106  NH2       14.5510    3.2390    5.6750 N.pl3 199  ARG199      0.1354
    107  N         11.5490    6.3070   12.4560 N.3   214  THR214     -0.1203
    108  CA        12.5240    5.9660   11.4320 C.3   214  THR214      0.1994
    109  C         13.2930    7.1990   10.9660 C.2   214  THR214      0.2618
    110  O         12.9290    8.3360   11.2860 O.2   214  THR214     -0.2717
    111  CB        11.8230    5.3710   10.2320 C.3   214  THR214      0.1784
    112  OG1       10.8330    6.3000    9.7670 O.3   214  THR214     -0.2211
    113  CG2       11.1610    4.0560   10.6120 C.3   214  THR214      0.0376
    114  N         14.3710    6.9680   10.2150 N.am  215  GLY215     -0.1942
    115  CA        15.0320    8.0480    9.5110 C.3   215  GLY215      0.2014
    116  C         15.6320    7.5420    8.2220 C.2   215  GLY215      0.2639
    117  O         16.0980    6.4020    8.1520 O.2   215  GLY215     -0.2714
    118  N         15.6330    8.3920    7.2010 N.am  216  THR216     -0.1950
    119  CA        16.2530    8.0320    5.9370 C.3   216  THR216      0.1897
    120  C         16.9900    9.2560    5.3950 C.2   216  THR216      0.2313
    121  O         16.5510   10.3880    5.5940 O.2   216  THR216     -0.2863
    122  CB        15.2010    7.4930    4.9580 C.3   216  THR216      0.1794
    123  OG1       14.5570    6.3450    5.5480 O.3   216  THR216     -0.2208
    124  CG2       15.8490    7.0700    3.6450 C.3   216  THR216      0.0378
@<TRIPOS>BOND
     1    25    24    1
     2    24    26    1
     3    24    23    2
     4    23    22    1
     5    22    21    1
     6    21    20    1
     7    20    17    1
     8    17    16    1
     9    17    18    1
    10    27    18   am
    11    27    28    1
    12    18    19    2
    13    28    31    1
    14    28    29    1
    15    79    78    1
    16    33    35   ar
    17    33    32   ar
    18    31    32    1
    19    35    37   ar
    20    32    34   ar
    21    29    30    2
    22    78    80    1
    23    78    75    1
    24   124   122    1
    25    37    38    1
    26    37    36   ar
    27    84    83    2
    28    77    76    2
    29    34    36   ar
    30    76    75    1
    31    75    74    1
    32    74    67   am
    33    83    82    1
    34    64    62   am
    35   122   123    1
    36   122   119    1
    37    85    82    1
    38    85    86    1
    39   120   121    2
    40   120   119    1
    41   106   104    1
    42    88    86   am
    43   119   118    1
    44    82    81    1
    45    67    68    2
    46    67    66    1
    47    62    61    1
    48    62    63    2
    49    61    58    1
    50    86    87    2
    51   104   103    2
    52   104   105    1
    53    73    71   ar
    54   118   116   am
    55    66    69    1
    56    66    65    1
    57    57    58    1
    58   103   102    1
    59    58    59    1
    60    69    70    1
    61    46    48   ar
    62    46    44   ar
    63    42    41    2
    64    48    49   ar
    65    59    60    2
    66    54    53    2
    67    92    91    2
    68   117   116    2
    69   116   115    1
    70    95    93    1
    71    71    70    1
    72    71    72   ar
    73    43    44    1
    74    43    40    1
    75    93    90    1
    76    93    94    1
    77    90    91    1
    78    90    89    1
    79    44    45   ar
    80    49    50    1
    81    49    47   ar
    82    53    52    1
    83   102   101    1
    84    41    40    1
    85    41    51   am
    86    55    56    1
    87    55    52    1
    88   101   100    1
    89     6     5    1
    90    40    39    1
    91    96    97    1
    92    15    14    1
    93    52    51    1
    94   115   114    1
    95    45    47   ar
    96   112   111    1
    97     5     2    1
    98    97   100    1
    99    97    98    1
   100   114   109   am
   101   111   113    1
   102   111   108    1
   103     1     2    1
   104    14    13    1
   105     2     3    1
   106   109   110    2
   107   109   108    1
   108    99    98    2
   109   108   107    1
   110    13    12    1
   111     3     4    2
   112    12    11    1
   113    11     8    1
   114     7     8    1
   115     8     9    1
   116     9    10    2
