@<TRIPOS>MOLECULE
tmp/5glfG00.pdb
 75 73 0 0 0
SMALL
GASTEIGER

@<TRIPOS>ATOM
      1  N        -10.9980   -8.4080   -4.0280 N.3   109  PHE109     -0.1241
      2  CA       -10.1370   -8.9480   -5.0810 C.3   109  PHE109      0.1605
      3  C        -10.7000   -8.6220   -6.4670 C.2   109  PHE109      0.2264
      4  O        -10.0210   -8.0440   -7.3210 O.2   109  PHE109     -0.2867
      5  CB        -9.9190  -10.4450   -4.9000 C.3   109  PHE109      0.0534
      6  CG        -9.0730  -11.0640   -5.9680 C.ar  109  PHE109     -0.0203
      7  CD1       -7.7020  -10.8890   -5.9690 C.ar  109  PHE109     -0.0042
      8  CD2       -9.6450  -11.7970   -7.0010 C.ar  109  PHE109     -0.0042
      9  CE1       -6.9100  -11.4440   -6.9720 C.ar  109  PHE109     -0.0003
     10  CE2       -8.8560  -12.3590   -8.0090 C.ar  109  PHE109     -0.0003
     11  CZ        -7.4810  -12.1880   -7.9920 C.ar  109  PHE109     -0.0000
     12  N         -7.5540   -7.1860   -8.1660 N.3   114  LYS114     -0.1245
     13  CA        -7.2400   -7.8090   -9.4480 C.3   114  LYS114      0.1561
     14  C         -6.9970   -6.7700  -10.5720 C.2   114  LYS114      0.2260
     15  O         -5.9580   -6.7960  -11.1920 O.2   114  LYS114     -0.2867
     16  CB        -8.2340   -8.8830   -9.8730 C.3   114  LYS114      0.0271
     17  CG        -7.6910   -9.6620  -11.0440 C.3   114  LYS114      0.0035
     18  CD        -8.6090  -10.7660  -11.4780 C.3   114  LYS114      0.0206
     19  CE        -8.1390  -11.2860  -12.8230 C.3   114  LYS114      0.1093
     20  NZ        -8.7650  -12.5740  -13.1840 N.3   114  LYS114     -0.1314
     21  N         -3.6220   -4.7970   -9.8740 N.3   117  PHE117     -0.1227
     22  CA        -2.4030   -5.5740  -10.0710 C.3   117  PHE117      0.1736
     23  C         -2.2300   -6.2450  -11.4550 C.2   117  PHE117      0.2595
     24  O         -1.1030   -6.5100  -11.8550 O.2   117  PHE117     -0.2718
     25  CB        -2.2630   -6.6390   -9.0000 C.3   117  PHE117      0.0547
     26  CG        -1.8600   -6.0830   -7.6380 C.ar  117  PHE117     -0.0202
     27  CD1       -0.6440   -5.4390   -7.4660 C.ar  117  PHE117     -0.0042
     28  CD2       -2.6850   -6.2270   -6.5380 C.ar  117  PHE117     -0.0042
     29  CE1       -0.2800   -4.9290   -6.2280 C.ar  117  PHE117     -0.0003
     30  CE2       -2.3300   -5.7200   -5.2990 C.ar  117  PHE117     -0.0003
     31  CZ        -1.1190   -5.0790   -5.1300 C.ar  117  PHE117     -0.0000
     32  N         -3.3190   -6.5010  -12.1640 N.am  118  LEU118     -0.1966
     33  CA        -3.2640   -7.3790  -13.3560 C.3   118  LEU118      0.1728
     34  C         -2.3030   -6.8560  -14.4310 C.2   118  LEU118      0.2616
     35  O         -2.4490   -5.7580  -14.8950 O.2   118  LEU118     -0.2715
     36  CB        -4.6530   -7.6000  -13.9550 C.3   118  LEU118      0.0311
     37  CG        -4.7100   -8.6550  -15.0810 C.3   118  LEU118      0.0022
     38  CD1       -4.3010  -10.0500  -14.6030 C.3   118  LEU118      0.0001
     39  CD2       -6.1090   -8.6810  -15.6760 C.3   118  LEU118      0.0001
     40  N         -1.2890   -7.6400  -14.7330 N.am  119  GLU119     -0.1977
     41  CA        -0.2780   -7.2860  -15.7490 C.3   119  GLU119      0.1602
     42  C          0.5240   -6.0020  -15.4690 C.2   119  GLU119      0.2287
     43  O          1.1780   -5.4850  -16.3590 O.2   119  GLU119     -0.2864
     44  CB        -0.9380   -7.2130  -17.1500 C.3   119  GLU119      0.0415
     45  CG        -1.3840   -8.5930  -17.6770 C.3   119  GLU119      0.1163
     46  CD        -0.2100   -9.5340  -17.9830 C.2   119  GLU119      0.3649
     47  OE1        0.3020  -10.2160  -17.0380 O.co2 119  GLU119     -0.2457
     48  OE2        0.2080   -9.5970  -19.1690 O.co2 119  GLU119     -0.2457
     49  N          4.4680   -8.2330   -7.8160 N.3   154  VAL154     -0.1231
     50  CA         3.2060   -8.9180   -7.8940 C.3   154  VAL154      0.1692
     51  C          2.9690   -9.3950   -9.3370 C.2   154  VAL154      0.2592
     52  O          2.5440   -8.6300  -10.2190 O.2   154  VAL154     -0.2718
     53  CB         2.0540   -8.0650   -7.3860 C.3   154  VAL154      0.0266
     54  CG1        0.7360   -8.8570   -7.3710 C.3   154  VAL154      0.0020
     55  CG2        2.3690   -7.5740   -5.9820 C.3   154  VAL154      0.0020
     56  N          3.1880  -10.6820   -9.5150 N.am  155  ALA155     -0.1966
     57  CA         3.2360  -11.3300  -10.8550 C.3   155  ALA155      0.1713
     58  C          2.0970  -12.3290  -11.0310 C.2   155  ALA155      0.2458
     59  O          1.3420  -12.5890  -10.0770 O.2   155  ALA155     -0.2730
     60  CB         4.5470  -12.0380  -11.0260 C.3   155  ALA155      0.0333
     61  N          1.9180  -12.8600  -12.2590 N.am  156  PRO156     -0.2727
     62  CA         0.7160  -13.6970  -12.5100 C.3   156  PRO156      0.1402
     63  C          0.5510  -14.8790  -11.5650 C.2   156  PRO156      0.2269
     64  O         -0.5510  -15.1770  -11.1620 O.2   156  PRO156     -0.2865
     65  CB         0.9510  -14.1890  -13.9580 C.3   156  PRO156      0.0296
     66  CG         1.6430  -13.0340  -14.6080 C.3   156  PRO156      0.0237
     67  CD         2.5760  -12.4940  -13.5380 C.3   156  PRO156      0.0939
     68  N         -2.8190  -13.6430   -4.1840 N.3   160  ILE160     -0.1245
     69  CA        -3.2410  -12.4530   -3.4370 C.3   160  ILE160      0.1561
     70  C         -4.2930  -12.7950   -2.3760 C.2   160  ILE160      0.2260
     71  O         -5.3800  -13.2220   -2.7010 O.2   160  ILE160     -0.2867
     72  CB        -3.8200  -11.3890   -4.3850 C.3   160  ILE160      0.0252
     73  CG1       -2.7580  -11.0660   -5.4480 C.3   160  ILE160      0.0019
     74  CG2       -4.2610  -10.1460   -3.6070 C.3   160  ILE160      0.0019
     75  CD1       -3.1860  -10.0280   -6.4470 C.3   160  ILE160      0.0001
@<TRIPOS>BOND
     1    48    46   ar
     2    46    45    1
     3    46    47   ar
     4    45    44    1
     5    44    41    1
     6    43    42    2
     7    41    42    1
     8    41    40    1
     9    39    37    1
    10    37    38    1
    11    37    36    1
    12    35    34    2
    13    40    34   am
    14    66    65    1
    15    66    67    1
    16    34    33    1
    17    65    62    1
    18    36    33    1
    19    67    61    1
    20    33    32    1
    21    20    19    1
    22    19    18    1
    23    62    61    1
    24    62    63    1
    25    61    58   am
    26    32    23   am
    27    24    23    2
    28    63    64    2
    29    18    17    1
    30    23    22    1
    31    15    14    2
    32    17    16    1
    33    58    57    1
    34    58    59    2
    35    60    57    1
    36    57    56    1
    37    14    13    1
    38    52    51    2
    39    22    21    1
    40    22    25    1
    41    16    13    1
    42    56    51   am
    43    13    12    1
    44    51    50    1
    45    25    26    1
    46    10    11   ar
    47    10     8   ar
    48    11     9   ar
    49    50    49    1
    50    50    53    1
    51    26    27   ar
    52    26    28   ar
    53    27    29   ar
    54    53    54    1
    55    53    55    1
    56     4     3    2
    57     8     6   ar
    58     9     7   ar
    59    28    30   ar
    60     3     2    1
    61    75    73    1
    62    29    31   ar
    63     7     6   ar
    64     6     5    1
    65    73    72    1
    66    30    31   ar
    67     2     5    1
    68     2     1    1
    69    72    74    1
    70    72    69    1
    71    68    69    1
    72    69    70    1
    73    71    70    2
