@<TRIPOS>MOLECULE
tmp/5gliA01.pdb
 98 97 0 0 0
SMALL
GASTEIGER

@<TRIPOS>ATOM
      1  N        -12.6180  -39.2590   10.5480 N.3   147  VAL147     -0.1231
      2  CA       -13.6930  -40.2450   10.6480 C.3   147  VAL147      0.1692
      3  C        -13.8010  -41.0520    9.3610 C.2   147  VAL147      0.2591
      4  O        -13.9770  -42.2760    9.3900 O.2   147  VAL147     -0.2718
      5  CB       -15.0210  -39.5470   10.9960 C.3   147  VAL147      0.0266
      6  CG1      -16.1840  -40.5210   10.8910 C.3   147  VAL147      0.0020
      7  CG2      -14.9510  -38.9500   12.3930 C.3   147  VAL147      0.0020
      8  N        -13.6860  -40.3850    8.2120 N.am  148  LEU148     -0.1980
      9  CA       -13.7360  -41.0830    6.9340 C.3   148  LEU148      0.1596
     10  C        -12.5240  -41.9790    6.7010 C.2   148  LEU148      0.2287
     11  O        -12.5700  -42.8210    5.7980 O.2   148  LEU148     -0.2864
     12  CB       -13.8610  -40.0750    5.7900 C.3   148  LEU148      0.0297
     13  CG       -15.1320  -39.2250    5.7700 C.3   148  LEU148      0.0022
     14  CD1      -15.0780  -38.2300    4.6260 C.3   148  LEU148      0.0001
     15  CD2      -16.3690  -40.1030    5.6620 C.3   148  LEU148      0.0001
     16  N        -11.1900  -43.9260    9.2060 N.3   150  VAL150     -0.1231
     17  CA       -11.2250  -45.0520   10.1480 C.3   150  VAL150      0.1678
     18  C        -11.2600  -46.3990    9.4480 C.2   150  VAL150      0.2434
     19  O        -10.5880  -47.3290    9.9180 O.2   150  VAL150     -0.2733
     20  CB       -12.3910  -44.8670   11.1340 C.3   150  VAL150      0.0265
     21  CG1      -12.5120  -46.0780   12.0540 C.3   150  VAL150      0.0020
     22  CG2      -12.2190  -43.5850   11.9280 C.3   150  VAL150      0.0020
     23  N        -12.0310  -46.6080    8.3690 N.am  151  PRO151     -0.2729
     24  CA       -11.9920  -47.9210    7.7000 C.3   151  PRO151      0.1401
     25  C        -10.5960  -48.3520    7.2870 C.2   151  PRO151      0.2269
     26  O        -10.2860  -49.5480    7.3500 O.2   151  PRO151     -0.2865
     27  CB       -12.9090  -47.7130    6.4880 C.3   151  PRO151      0.0296
     28  CG       -13.8760  -46.6850    6.9300 C.3   151  PRO151      0.0237
     29  CD       -13.0980  -45.7490    7.8120 C.3   151  PRO151      0.0939
     30  N         -9.0060  -49.9880   10.0950 N.3   154  ILE154     -0.1245
     31  CA        -9.6360  -51.2570   10.4420 C.3   154  ILE154      0.1561
     32  C         -9.2880  -52.3360    9.4240 C.2   154  ILE154      0.2260
     33  O         -8.9740  -53.4730    9.7930 O.2   154  ILE154     -0.2867
     34  CB       -11.1590  -51.0680   10.5730 C.3   154  ILE154      0.0252
     35  CG1      -11.4790  -50.0800   11.6960 C.3   154  ILE154      0.0019
     36  CG2      -11.8480  -52.4010   10.8240 C.3   154  ILE154      0.0019
     37  CD1      -12.9590  -49.8150   11.8750 C.3   154  ILE154      0.0001
     38  N        -20.1750  -54.5890    6.4290 N.3   181  PHE181     -0.1227
     39  CA       -19.8670  -53.2490    5.9390 C.3   181  PHE181      0.1736
     40  C        -18.4010  -53.1300    5.5460 C.2   181  PHE181      0.2595
     41  O        -18.0650  -52.4590    4.5640 O.2   181  PHE181     -0.2718
     42  CB       -20.2220  -52.2040    6.9980 C.3   181  PHE181      0.0547
     43  CG       -19.5070  -50.8950    6.8190 C.ar  181  PHE181     -0.0202
     44  CD1      -19.9200  -49.9890    5.8560 C.ar  181  PHE181     -0.0042
     45  CD2      -18.4200  -50.5690    7.6160 C.ar  181  PHE181     -0.0042
     46  CE1      -19.2620  -48.7850    5.6890 C.ar  181  PHE181     -0.0003
     47  CE2      -17.7570  -49.3670    7.4540 C.ar  181  PHE181     -0.0003
     48  CZ       -18.1790  -48.4740    6.4890 C.ar  181  PHE181     -0.0000
     49  N        -17.5120  -53.7800    6.3010 N.am  182  MET182     -0.1979
     50  CA       -16.0880  -53.6800    6.0080 C.3   182  MET182      0.1605
     51  C        -15.7220  -54.4270    4.7320 C.2   182  MET182      0.2287
     52  O        -14.8110  -54.0050    4.0090 O.2   182  MET182     -0.2864
     53  CB       -15.2730  -54.2050    7.1880 C.3   182  MET182      0.0413
     54  CG       -13.8990  -53.5890    7.2790 C.3   182  MET182      0.0598
     55  SD       -14.0070  -51.7930    7.3110 S.3   182  MET182     -0.1393
     56  CE       -12.6310  -51.3750    6.2490 C.3   182  MET182      0.0692
     57  N        -17.8280  -54.7380    2.1880 N.3   184  PHE184     -0.1227
     58  CA       -18.3590  -53.8950    1.1210 C.3   184  PHE184      0.1736
     59  C        -17.4200  -52.7340    0.8190 C.2   184  PHE184      0.2595
     60  O        -17.2910  -52.3170   -0.3370 O.2   184  PHE184     -0.2718
     61  CB       -19.7470  -53.3790    1.5010 C.3   184  PHE184      0.0547
     62  CG       -20.2130  -52.2200    0.6660 C.ar  184  PHE184     -0.0202
     63  CD1      -20.6560  -52.4160   -0.6320 C.ar  184  PHE184     -0.0042
     64  CD2      -20.2130  -50.9330    1.1820 C.ar  184  PHE184     -0.0042
     65  CE1      -21.0860  -51.3500   -1.4010 C.ar  184  PHE184     -0.0003
     66  CE2      -20.6420  -49.8640    0.4180 C.ar  184  PHE184     -0.0003
     67  CZ       -21.0790  -50.0720   -0.8750 C.ar  184  PHE184     -0.0000
     68  N        -16.7570  -52.2010    1.8480 N.am  185  TYR185     -0.1976
     69  CA       -15.7910  -51.1310    1.6290 C.3   185  TYR185      0.1639
     70  C        -14.6000  -51.6100    0.8100 C.2   185  TYR185      0.2290
     71  O        -13.9930  -50.8170    0.0810 O.2   185  TYR185     -0.2864
     72  CB       -15.3240  -50.5640    2.9700 C.3   185  TYR185      0.0560
     73  CG       -14.3350  -49.4280    2.8460 C.ar  185  TYR185     -0.0198
     74  CD1      -14.7650  -48.1320    2.5950 C.ar  185  TYR185     -0.0009
     75  CD2      -12.9710  -49.6490    2.9860 C.ar  185  TYR185     -0.0009
     76  CE1      -13.8670  -47.0900    2.4820 C.ar  185  TYR185      0.0417
     77  CE2      -12.0630  -48.6120    2.8740 C.ar  185  TYR185      0.0417
     78  CZ       -12.5180  -47.3350    2.6230 C.ar  185  TYR185      0.1957
     79  OH       -11.6260  -46.2960    2.5100 O.3   185  TYR185     -0.2866
     80  N        -15.8370  -51.4090   -2.9380 N.3   188  ALA188     -0.1245
     81  CA       -16.1130  -50.0570   -3.4020 C.3   188  ALA188      0.1562
     82  C        -15.0430  -49.0590   -2.9760 C.2   188  ALA188      0.2260
     83  O        -15.3280  -47.8600   -2.8800 O.2   188  ALA188     -0.2867
     84  CB       -17.4830  -49.6010   -2.9020 C.3   188  ALA188      0.0290
     85  N        -15.2070  -45.1450   -4.2320 N.3   192  TRP192     -0.1241
     86  CA       -15.3860  -44.1550   -3.1760 C.3   192  TRP192      0.1605
     87  C        -14.3150  -43.0730   -3.2450 C.2   192  TRP192      0.2264
     88  O        -14.5970  -41.8950   -2.9940 O.2   192  TRP192     -0.2867
     89  CB       -15.3770  -44.8460   -1.8120 C.3   192  TRP192      0.0550
     90  CG       -15.4220  -43.9060   -0.6530 C.ar  192  TRP192      0.0003
     91  CD1      -14.4560  -43.7260    0.2930 C.ar  192  TRP192      0.0946
     92  CD2      -16.4880  -43.0120   -0.3150 C.ar  192  TRP192      0.0152
     93  NE1      -14.8550  -42.7770    1.2020 N.ar  192  TRP192     -0.2442
     94  CE2      -16.0990  -42.3220    0.8510 C.ar  192  TRP192      0.0810
     95  CE3      -17.7330  -42.7270   -0.8830 C.ar  192  TRP192      0.0012
     96  CZ2      -16.9100  -41.3660    1.4580 C.ar  192  TRP192      0.0191
     97  CZ3      -18.5370  -41.7780   -0.2790 C.ar  192  TRP192      0.0001
     98  CH2      -18.1220  -41.1090    0.8790 C.ar  192  TRP192      0.0015
@<TRIPOS>BOND
     1    85    86    1
     2    81    82    1
     3    81    80    1
     4    81    84    1
     5    87    86    1
     6    87    88    2
     7    86    89    1
     8    82    83    2
     9    89    90    1
    10    65    67   ar
    11    65    63   ar
    12    95    92   ar
    13    95    97   ar
    14    67    66   ar
    15    90    92   ar
    16    90    91   ar
    17    63    62   ar
    18    60    59    2
    19    92    94   ar
    20    97    98   ar
    21    71    70    2
    22    91    93   ar
    23    66    64   ar
    24    62    64   ar
    25    62    61    1
    26    70    69    1
    27    59    58    1
    28    59    68   am
    29    94    93   ar
    30    94    96   ar
    31    98    96   ar
    32    58    61    1
    33    58    57    1
    34    69    68    1
    35    69    72    1
    36    76    74   ar
    37    76    78   ar
    38    79    78    1
    39    74    73   ar
    40    78    77   ar
    41    73    72    1
    42    73    75   ar
    43    77    75   ar
    44    52    51    2
    45    41    40    2
    46    14    13    1
    47    51    50    1
    48    40    39    1
    49    40    49   am
    50    15    13    1
    51    46    44   ar
    52    46    48   ar
    53    13    12    1
    54    12     9    1
    55    11    10    2
    56    44    43   ar
    57    39    38    1
    58    39    42    1
    59    50    49    1
    60    50    53    1
    61    56    55    1
    62    27    28    1
    63    27    24    1
    64    48    47   ar
    65    10     9    1
    66    43    42    1
    67    43    45   ar
    68    28    29    1
    69     9     8    1
    70    53    54    1
    71    54    55    1
    72    25    26    2
    73    25    24    1
    74    47    45   ar
    75    24    23    1
    76    29    23    1
    77     8     3   am
    78    23    18   am
    79    16    17    1
    80     3     4    2
    81     3     2    1
    82    32    33    2
    83    32    31    1
    84    18    19    2
    85    18    17    1
    86    30    31    1
    87    17    20    1
    88    31    34    1
    89     1     2    1
    90    34    36    1
    91    34    35    1
    92     2     5    1
    93     6     5    1
    94     5     7    1
    95    20    22    1
    96    20    21    1
    97    35    37    1
