@<TRIPOS>MOLECULE
tmp/5gliA02.pdb
 119 111 0 0 0
SMALL
GASTEIGER

@<TRIPOS>ATOM
      1  N        -11.3020  -31.0590    1.2460 N.3   106  LEU106     -0.1245
      2  CA       -12.2650  -30.2440    1.9770 C.3   106  LEU106      0.1561
      3  C        -11.7590  -28.8230    2.1980 C.2   106  LEU106      0.2260
      4  O        -12.5670  -27.8890    2.2740 O.2   106  LEU106     -0.2867
      5  CB       -12.6110  -30.9040    3.3130 C.3   106  LEU106      0.0270
      6  CG       -13.4120  -32.2060    3.2200 C.3   106  LEU106      0.0019
      7  CD1      -13.7610  -32.7270    4.6050 C.3   106  LEU106      0.0001
      8  CD2      -14.6690  -32.0050    2.3880 C.3   106  LEU106      0.0001
      9  N        -12.4280  -27.0620   -1.2080 N.3   109  CYS109     -0.1221
     10  CA       -13.8280  -26.6880   -1.3800 C.3   109  CYS109      0.1808
     11  C        -14.1810  -25.4690   -0.5370 C.2   109  CYS109      0.2601
     12  O        -14.8580  -24.5520   -1.0150 O.2   109  CYS109     -0.2717
     13  CB       -14.7360  -27.8660   -1.0240 C.3   109  CYS109      0.0970
     14  SG       -14.6260  -29.2760   -2.1500 S.3   109  CYS109     -0.0800
     15  N        -13.7250  -25.4390    0.7190 N.am  110  ALA110     -0.1979
     16  CA       -14.0430  -24.3180    1.5970 C.3   110  ALA110      0.1597
     17  C        -13.3930  -23.0240    1.1230 C.2   110  ALA110      0.2287
     18  O        -13.9390  -21.9390    1.3520 O.2   110  ALA110     -0.2864
     19  CB       -13.6120  -24.6340    3.0280 C.3   110  ALA110      0.0319
     20  N        -15.4680  -21.5170   -1.7680 N.3   113  ILE113     -0.1245
     21  CA       -16.7270  -20.9760   -1.2660 C.3   113  ILE113      0.1561
     22  C        -16.4890  -19.6530   -0.5470 C.2   113  ILE113      0.2260
     23  O        -17.2240  -18.6790   -0.7470 O.2   113  ILE113     -0.2867
     24  CB       -17.4220  -22.0010   -0.3510 C.3   113  ILE113      0.0252
     25  CG1      -17.8140  -23.2460   -1.1470 C.3   113  ILE113      0.0019
     26  CG2      -18.6420  -21.3850    0.3190 C.3   113  ILE113      0.0019
     27  CD1      -18.4230  -24.3390   -0.3010 C.3   113  ILE113      0.0001
     28  N        -14.8050  -24.1960   10.7990 N.3   137  GLU137     -0.1245
     29  CA       -14.7240  -24.8660    9.5060 C.3   137  GLU137      0.1567
     30  C        -13.5010  -25.7750    9.4380 C.2   137  GLU137      0.2260
     31  O        -13.5930  -26.9280    9.0010 O.2   137  GLU137     -0.2867
     32  CB       -14.6940  -23.8180    8.3930 C.3   137  GLU137      0.0388
     33  CG       -15.1080  -24.3160    7.0220 C.3   137  GLU137      0.1160
     34  CD       -15.3190  -23.1740    6.0460 C.2   137  GLU137      0.3649
     35  OE1      -15.9010  -23.4070    4.9660 O.co2 137  GLU137     -0.2457
     36  OE2      -14.9080  -22.0380    6.3650 O.co2 137  GLU137     -0.2457
     37  N        -13.9070  -28.8390   11.7360 N.3   140  LEU140     -0.1231
     38  CA       -14.8090  -29.8120   11.1270 C.3   140  LEU140      0.1693
     39  C        -14.1460  -30.5310    9.9590 C.2   140  LEU140      0.2591
     40  O        -14.3700  -31.7290    9.7530 O.2   140  LEU140     -0.2718
     41  CB       -16.0940  -29.1200   10.6700 C.3   140  LEU140      0.0284
     42  CG       -17.2900  -29.1510   11.6260 C.3   140  LEU140      0.0019
     43  CD1      -16.9010  -28.7100   13.0310 C.3   140  LEU140      0.0001
     44  CD2      -18.4120  -28.2810   11.0830 C.3   140  LEU140      0.0001
     45  N        -13.3290  -29.8160    9.1830 N.am  141  ILE141     -0.1980
     46  CA       -12.6360  -30.4350    8.0550 C.3   141  ILE141      0.1595
     47  C        -11.7340  -31.5630    8.5420 C.2   141  ILE141      0.2287
     48  O        -11.7060  -32.6570    7.9650 O.2   141  ILE141     -0.2864
     49  CB       -11.8390  -29.3780    7.2680 C.3   141  ILE141      0.0276
     50  CG1      -12.7810  -28.5250    6.4160 C.3   141  ILE141      0.0022
     51  CG2      -10.7800  -30.0380    6.3970 C.3   141  ILE141      0.0022
     52  CD1      -12.0780  -27.4230    5.6520 C.3   141  ILE141      0.0001
     53  N        -13.9890  -34.5610   10.1180 N.3   144  VAL144     -0.1245
     54  CA       -14.6200  -35.4090    9.1090 C.3   144  VAL144      0.1561
     55  C        -13.5800  -36.2710    8.4050 C.2   144  VAL144      0.2260
     56  O        -13.8060  -37.4620    8.1530 O.2   144  VAL144     -0.2867
     57  CB       -15.4150  -34.5460    8.1110 C.3   144  VAL144      0.0252
     58  CG1      -15.9260  -35.3960    6.9580 C.3   144  VAL144      0.0019
     59  CG2      -16.5720  -33.8580    8.8170 C.3   144  VAL144      0.0019
     60  N        -13.6860  -40.3850    8.2120 N.3   148  LEU148     -0.1245
     61  CA       -13.7360  -41.0830    6.9340 C.3   148  LEU148      0.1561
     62  C        -12.5240  -41.9790    6.7010 C.2   148  LEU148      0.2260
     63  O        -12.5700  -42.8210    5.7980 O.2   148  LEU148     -0.2867
     64  CB       -13.8610  -40.0750    5.7900 C.3   148  LEU148      0.0270
     65  CG       -15.1320  -39.2250    5.7700 C.3   148  LEU148      0.0019
     66  CD1      -15.0780  -38.2300    4.6260 C.3   148  LEU148      0.0001
     67  CD2      -16.3690  -40.1030    5.6620 C.3   148  LEU148      0.0001
     68  N        -20.1750  -54.5890    6.4290 N.3   181  PHE181     -0.1241
     69  CA       -19.8670  -53.2490    5.9390 C.3   181  PHE181      0.1605
     70  C        -18.4010  -53.1300    5.5460 C.2   181  PHE181      0.2264
     71  O        -18.0650  -52.4590    4.5640 O.2   181  PHE181     -0.2867
     72  CB       -20.2220  -52.2040    6.9980 C.3   181  PHE181      0.0534
     73  CG       -19.5070  -50.8950    6.8190 C.ar  181  PHE181     -0.0203
     74  CD1      -19.9200  -49.9890    5.8560 C.ar  181  PHE181     -0.0042
     75  CD2      -18.4200  -50.5690    7.6160 C.ar  181  PHE181     -0.0042
     76  CE1      -19.2620  -48.7850    5.6890 C.ar  181  PHE181     -0.0003
     77  CE2      -17.7570  -49.3670    7.4540 C.ar  181  PHE181     -0.0003
     78  CZ       -18.1790  -48.4740    6.4890 C.ar  181  PHE181     -0.0000
     79  N        -15.2070  -45.1450   -4.2320 N.3   192  TRP192     -0.1241
     80  CA       -15.3860  -44.1550   -3.1760 C.3   192  TRP192      0.1605
     81  C        -14.3150  -43.0730   -3.2450 C.2   192  TRP192      0.2264
     82  O        -14.5970  -41.8950   -2.9940 O.2   192  TRP192     -0.2867
     83  CB       -15.3770  -44.8460   -1.8120 C.3   192  TRP192      0.0550
     84  CG       -15.4220  -43.9060   -0.6530 C.ar  192  TRP192      0.0003
     85  CD1      -14.4560  -43.7260    0.2930 C.ar  192  TRP192      0.0946
     86  CD2      -16.4880  -43.0120   -0.3150 C.ar  192  TRP192      0.0152
     87  NE1      -14.8550  -42.7770    1.2020 N.ar  192  TRP192     -0.2442
     88  CE2      -16.0990  -42.3220    0.8510 C.ar  192  TRP192      0.0810
     89  CE3      -17.7330  -42.7270   -0.8830 C.ar  192  TRP192      0.0012
     90  CZ2      -16.9100  -41.3660    1.4580 C.ar  192  TRP192      0.0191
     91  CZ3      -18.5370  -41.7780   -0.2790 C.ar  192  TRP192      0.0001
     92  CH2      -18.1220  -41.1090    0.8790 C.ar  192  TRP192      0.0015
     93  N        -15.9190  -39.2780   -3.9520 N.3   196  PHE196     -0.1241
     94  CA       -15.8540  -38.2640   -2.9050 C.3   196  PHE196      0.1605
     95  C        -14.5790  -37.4340   -2.9740 C.2   196  PHE196      0.2264
     96  O        -14.6090  -36.2400   -2.6540 O.2   196  PHE196     -0.2867
     97  CB       -15.9700  -38.9290   -1.5300 C.3   196  PHE196      0.0534
     98  CG       -15.9880  -37.9580   -0.3800 C.ar  196  PHE196     -0.0203
     99  CD1      -17.1820  -37.4240    0.0740 C.ar  196  PHE196     -0.0042
    100  CD2      -14.8110  -37.5900    0.2560 C.ar  196  PHE196     -0.0042
    101  CE1      -17.2030  -36.5350    1.1340 C.ar  196  PHE196     -0.0003
    102  CE2      -14.8260  -36.7010    1.3140 C.ar  196  PHE196     -0.0003
    103  CZ       -16.0240  -36.1730    1.7540 C.ar  196  PHE196     -0.0000
    104  N        -16.4630  -34.9810   -6.3480 N.3   200  LEU200     -0.1245
    105  CA       -17.0860  -34.0040   -5.4560 C.3   200  LEU200      0.1561
    106  C        -16.2650  -32.7260   -5.3250 C.2   200  LEU200      0.2260
    107  O        -16.8480  -31.6330   -5.4350 O.2   200  LEU200     -0.2867
    108  CB       -17.3570  -34.6470   -4.0930 C.3   200  LEU200      0.0270
    109  CG       -17.9120  -33.7120   -3.0170 C.3   200  LEU200      0.0019
    110  CD1      -19.3040  -33.2340   -3.3930 C.3   200  LEU200      0.0001
    111  CD2      -17.9210  -34.3980   -1.6620 C.3   200  LEU200      0.0001
    112  N        -17.6490  -28.9530   -6.8820 N.3   204  ILE204     -0.1245
    113  CA       -17.9480  -27.8360   -5.9930 C.3   204  ILE204      0.1561
    114  C        -17.0230  -26.6560   -6.2650 C.2   204  ILE204      0.2260
    115  O        -17.4720  -25.5060   -6.3270 O.2   204  ILE204     -0.2867
    116  CB       -17.8720  -28.2950   -4.5270 C.3   204  ILE204      0.0252
    117  CG1      -19.0050  -29.2770   -4.2270 C.3   204  ILE204      0.0019
    118  CG2      -17.9290  -27.1020   -3.5840 C.3   204  ILE204      0.0019
    119  CD1      -19.1190  -29.6460   -2.7740 C.3   204  ILE204      0.0001
@<TRIPOS>BOND
     1   112   113    1
     2   104   105    1
     3   115   114    2
     4   114   113    1
     5   113   116    1
     6   105   106    1
     7   105   108    1
     8   107   106    2
     9   116   117    1
    10   116   118    1
    11    79    80    1
    12   117   119    1
    13   108   109    1
    14    93    94    1
    15   110   109    1
    16    81    80    1
    17    81    82    2
    18    80    83    1
    19   109   111    1
    20    95    94    1
    21    95    96    2
    22    94    97    1
    23    14    13    1
    24    83    84    1
    25    20    21    1
    26    97    98    1
    27    10     9    1
    28    10    13    1
    29    10    11    1
    30    21    22    1
    31    21    24    1
    32    25    24    1
    33    25    27    1
    34    12    11    2
    35    89    86   ar
    36    89    91   ar
    37    23    22    2
    38    84    86   ar
    39    84    85   ar
    40    11    15   am
    41    98    99   ar
    42    98   100   ar
    43    24    26    1
    44    86    88   ar
    45    91    92   ar
    46    99   101   ar
    47   100   102   ar
    48    85    87   ar
    49    15    16    1
    50    88    87   ar
    51    88    90   ar
    52    92    90   ar
    53    17    18    2
    54    17    16    1
    55   101   103   ar
    56     1     2    1
    57   102   103   ar
    58    16    19    1
    59     2     3    1
    60     2     5    1
    61     3     4    2
    62     8     6    1
    63     6     5    1
    64     6     7    1
    65    71    70    2
    66    66    65    1
    67    35    34   ar
    68    70    69    1
    69    52    50    1
    70    67    65    1
    71    76    74   ar
    72    76    78   ar
    73    65    64    1
    74    64    61    1
    75    63    62    2
    76    74    73   ar
    77    69    68    1
    78    69    72    1
    79    34    36   ar
    80    34    33    1
    81    51    49    1
    82    50    49    1
    83    78    77   ar
    84    62    61    1
    85    73    72    1
    86    73    75   ar
    87    61    60    1
    88    58    57    1
    89    33    32    1
    90    49    46    1
    91    77    75   ar
    92    48    47    2
    93    46    47    1
    94    46    45    1
    95    57    59    1
    96    57    54    1
    97    56    55    2
    98    32    29    1
    99    55    54    1
   100    31    30    2
   101    54    53    1
   102    45    39   am
   103    30    29    1
   104    29    28    1
   105    40    39    2
   106    39    38    1
   107    41    38    1
   108    41    42    1
   109    44    42    1
   110    38    37    1
   111    42    43    1
