@<TRIPOS>MOLECULE
tmp/5glmA00.pdb
 99 94 0 0 0
SMALL
GASTEIGER

@<TRIPOS>ATOM
      1  N         19.1510    3.5530    9.4390 N.3    18  ASP18      -0.1239
      2  CA        17.7950    3.0280    9.4930 C.3    18  ASP18       0.1674
      3  C         16.8460    4.0180   10.1610 C.2    18  ASP18       0.2266
      4  O         16.1880    3.6800   11.1550 O.2    18  ASP18      -0.2867
      5  CB        17.7610    1.6740   10.2160 C.3    18  ASP18       0.1410
      6  CG        18.7850    0.6950    9.6870 C.2    18  ASP18       0.3668
      7  OD1       18.9770    0.6220    8.4540 O.co2  18  ASP18      -0.2456
      8  OD2       19.3760   -0.0260   10.5170 O.co2  18  ASP18      -0.2456
      9  N         26.8450   -6.3450   11.4290 N.3    49  PHE49      -0.1241
     10  CA        25.9360   -5.3750   12.0480 C.3    49  PHE49       0.1605
     11  C         25.7080   -5.8280   13.4890 C.2    49  PHE49       0.2264
     12  O         24.8090   -6.6190   13.7630 O.2    49  PHE49      -0.2867
     13  CB        24.6170   -5.2910   11.2710 C.3    49  PHE49       0.0534
     14  CG        24.7830   -4.9180    9.8290 C.ar   49  PHE49      -0.0203
     15  CD1       24.9460   -3.5900    9.4520 C.ar   49  PHE49      -0.0042
     16  CD2       24.7610   -5.8950    8.8350 C.ar   49  PHE49      -0.0042
     17  CE1       25.0990   -3.2490    8.1130 C.ar   49  PHE49      -0.0003
     18  CE2       24.9080   -5.5600    7.5010 C.ar   49  PHE49      -0.0003
     19  CZ        25.0740   -4.2350    7.1370 C.ar   49  PHE49      -0.0000
     20  N         25.1010   -4.0540   16.5000 N.3    51  MET51      -0.1245
     21  CA        24.6870   -2.9110   17.3030 C.3    51  MET51       0.1570
     22  C         24.1580   -3.3590   18.6690 C.2    51  MET51       0.2261
     23  O         23.6600   -4.4830   18.8250 O.2    51  MET51      -0.2867
     24  CB        23.6490   -2.0870   16.5510 C.3    51  MET51       0.0387
     25  CG        24.1400   -1.5890   15.1930 C.3    51  MET51       0.0595
     26  SD        23.9040   -2.7530   13.8280 S.3    51  MET51      -0.1393
     27  CE        22.2330   -2.3400   13.3350 C.3    51  MET51       0.0692
     28  N         18.7860   -4.3910   15.9210 N.3    86  TRP86      -0.1227
     29  CA        18.6630   -3.9090   14.5510 C.3    86  TRP86       0.1737
     30  C         17.5630   -2.8250   14.4540 C.2    86  TRP86       0.2595
     31  O         17.1840   -2.2430   15.4770 O.2    86  TRP86      -0.2718
     32  CB        18.5000   -5.1230   13.6110 C.3    86  TRP86       0.0564
     33  CG        19.8140   -5.8100   13.2660 C.ar   86  TRP86       0.0003
     34  CD1       21.0320   -5.6370   13.8760 C.ar   86  TRP86       0.0946
     35  CD2       20.0210   -6.7910   12.2410 C.ar   86  TRP86       0.0152
     36  NE1       21.9750   -6.4400   13.2870 N.ar   86  TRP86      -0.2442
     37  CE2       21.3860   -7.1540   12.2760 C.ar   86  TRP86       0.0810
     38  CE3       19.1890   -7.3980   11.2970 C.ar   86  TRP86       0.0012
     39  CZ2       21.9330   -8.0980   11.4000 C.ar   86  TRP86       0.0191
     40  CZ3       19.7350   -8.3270   10.4150 C.ar   86  TRP86       0.0001
     41  CH2       21.0950   -8.6750   10.4800 C.ar   86  TRP86       0.0015
     42  N         17.0880   -2.5000   13.2520 N.am   87  ALA87      -0.1980
     43  CA        16.3350   -1.2480   13.0480 C.3    87  ALA87       0.1597
     44  C         15.0490   -1.1720   13.8780 C.2    87  ALA87       0.2287
     45  O         14.1950   -2.0410   13.7360 O.2    87  ALA87      -0.2864
     46  CB        16.0030   -1.0600   11.5800 C.3    87  ALA87       0.0319
     47  N         12.6030   -9.2910   11.3800 N.3   137  ILE137     -0.1231
     48  CA        13.2110   -7.9970   11.6990 C.3   137  ILE137      0.1692
     49  C         12.3830   -6.7950   11.2280 C.2   137  ILE137      0.2592
     50  O         11.2850   -6.9500   10.7100 O.2   137  ILE137     -0.2718
     51  CB        14.6430   -7.9230   11.1080 C.3   137  ILE137      0.0266
     52  CG1       14.6210   -8.0040    9.5730 C.3   137  ILE137      0.0019
     53  CG2       15.5100   -9.0530   11.6680 C.3   137  ILE137      0.0020
     54  CD1       15.9270   -7.6090    8.9260 C.3   137  ILE137      0.0001
     55  N         12.9410   -5.6000   11.4140 N.am  138  ASP138     -0.1974
     56  CA        12.4620   -4.3650   10.7730 C.3   138  ASP138      0.1709
     57  C         10.9800   -4.0340   10.9760 C.2   138  ASP138      0.2293
     58  O         10.2440   -3.8300   10.0070 O.2   138  ASP138     -0.2864
     59  CB        12.8350   -4.3670    9.2840 C.3   138  ASP138      0.1436
     60  CG        14.3400   -4.2280    9.0570 C.2   138  ASP138      0.3671
     61  OD1       15.1070   -4.2650   10.0450 O.co2 138  ASP138     -0.2456
     62  OD2       14.7510   -4.0840    7.8840 O.co2 138  ASP138     -0.2456
     63  N         13.7880   -6.1210    2.8030 N.3   229  GLU229     -0.1245
     64  CA        13.7210   -5.6760    4.1990 C.3   229  GLU229      0.1567
     65  C         13.1880   -4.2360    4.2490 C.2   229  GLU229      0.2260
     66  O         12.7930   -3.6860    3.2220 O.2   229  GLU229     -0.2867
     67  CB        15.1050   -5.7950    4.8810 C.3   229  GLU229      0.0388
     68  CG        16.1640   -4.7940    4.4220 C.3   229  GLU229      0.1160
     69  CD        17.5800   -5.1480    4.8610 C.2   229  GLU229      0.3649
     70  OE1       18.4790   -4.2830    4.7200 O.co2 229  GLU229     -0.2457
     71  OE2       17.8220   -6.2740    5.3640 O.co2 229  GLU229     -0.2457
     72  N         23.6510   -1.3090    2.1840 N.3   278  THR278     -0.1218
     73  CA        22.2780   -1.2080    2.6660 C.3   278  THR278      0.1862
     74  C         21.6080    0.0760    2.1850 C.2   278  THR278      0.2287
     75  O         22.2640    1.0560    1.8130 O.2   278  THR278     -0.2866
     76  CB        22.1600   -1.3210    4.2010 C.3   278  THR278      0.1770
     77  OG1       22.7970   -0.2070    4.8370 O.3   278  THR278     -0.2211
     78  CG2       22.7710   -2.6310    4.7040 C.3   278  THR278      0.0375
     79  N         17.9740    2.1360    3.5190 N.3   280  HIS280     -0.1241
     80  CA        16.9000    2.0960    4.5160 C.3   280  HIS280      0.1621
     81  C         16.3600    3.4920    4.7610 C.2   280  HIS280      0.2264
     82  O         17.1230    4.4450    4.9150 O.2   280  HIS280     -0.2867
     83  CB        17.4310    1.5320    5.8310 C.3   280  HIS280      0.0745
     84  CG        16.3780    0.9830    6.7440 C.ar  280  HIS280      0.0817
     85  ND1       16.3050   -0.3530    7.0690 N.ar  280  HIS280     -0.2268
     86  CD2       15.3850    1.5910    7.4340 C.ar  280  HIS280      0.1154
     87  CE1       15.3050   -0.5480    7.9080 C.ar  280  HIS280      0.1986
     88  NE2       14.7270    0.6150    8.1400 N.ar  280  HIS280     -0.2212
     89  N         27.2500    3.8120    9.2100 N.3   307  ARG307     -0.1245
     90  CA        26.4040    4.6430    8.3620 C.3   307  ARG307      0.1563
     91  C         26.1160    5.9880    9.0130 C.2   307  ARG307      0.2260
     92  O         26.4450    6.2120   10.1780 O.2   307  ARG307     -0.2867
     93  CB        25.1220    3.8670    8.0190 C.3   307  ARG307      0.0307
     94  CG        25.4120    2.6040    7.2030 C.3   307  ARG307      0.0489
     95  CD        24.3270    1.5420    7.2690 C.3   307  ARG307      0.2205
     96  NE        24.2110    0.8950    8.5750 N.pl3 307  ARG307     -0.0865
     97  CZ        23.3410   -0.0830    8.8560 C.cat 307  ARG307      0.5346
     98  NH1       22.5430   -0.5720    7.9170 N.pl3 307  ARG307      0.1354
     99  NH2       23.2820   -0.5940   10.0770 N.pl3 307  ARG307      0.1354
@<TRIPOS>BOND
     1    75    74    2
     2    72    73    1
     3    74    73    1
     4    73    76    1
     5    63    64    1
     6    66    65    2
     7    79    80    1
     8    64    65    1
     9    64    67    1
    10    76    78    1
    11    76    77    1
    12    68    69    1
    13    68    67    1
    14    80    81    1
    15    80    83    1
    16    70    69   ar
    17    81    82    2
    18    69    71   ar
    19    83    84    1
    20    84    85   ar
    21    84    86   ar
    22    85    87   ar
    23    19    18   ar
    24    19    17   ar
    25    94    95    1
    26    94    93    1
    27    95    96    1
    28    86    88   ar
    29    18    16   ar
    30    62    60   ar
    31    87    88   ar
    32    98    97    1
    33    93    90    1
    34    17    15   ar
    35    90    91    1
    36    90    89    1
    37     7     6   ar
    38    96    97    2
    39    16    14   ar
    40    97    99    1
    41    54    52    1
    42    91    92    2
    43    60    59    1
    44    60    61   ar
    45    59    56    1
    46     1     2    1
    47    15    14   ar
    48     2     3    1
    49     2     5    1
    50    52    51    1
    51     6     5    1
    52     6     8   ar
    53    14    13    1
    54    58    57    2
    55     3     4    2
    56    40    41   ar
    57    40    38   ar
    58    41    39   ar
    59    50    49    2
    60    56    57    1
    61    56    55    1
    62    51    53    1
    63    51    48    1
    64    49    55   am
    65    49    48    1
    66    13    10    1
    67    38    35   ar
    68    47    48    1
    69    39    37   ar
    70     9    10    1
    71    46    43    1
    72    10    11    1
    73    35    37   ar
    74    35    33   ar
    75    37    36   ar
    76    43    42    1
    77    43    44    1
    78    42    30   am
    79    33    32    1
    80    33    34   ar
    81    36    34   ar
    82    27    26    1
    83    11    12    2
    84    32    29    1
    85    45    44    2
    86    26    25    1
    87    30    29    1
    88    30    31    2
    89    29    28    1
    90    25    24    1
    91    20    21    1
    92    24    21    1
    93    21    22    1
    94    22    23    2
