@<TRIPOS>MOLECULE
tmp/5gloB00.pdb
 107 103 0 0 0
SMALL
GASTEIGER

@<TRIPOS>ATOM
      1  N         32.2570   10.7350  -20.4850 N.3    13  ASP13      -0.1239
      2  CA        31.7850   10.0090  -21.6520 C.3    13  ASP13       0.1674
      3  C         32.8420    9.0970  -22.2860 C.2    13  ASP13       0.2266
      4  O         33.1610    9.2560  -23.4550 O.2    13  ASP13      -0.2867
      5  CB        31.2660   11.0190  -22.6840 C.3    13  ASP13       0.1410
      6  CG        30.3070   12.0360  -22.0880 C.2    13  ASP13       0.3668
      7  OD1       29.4780   11.6510  -21.2260 O.co2  13  ASP13      -0.2456
      8  OD2       30.3780   13.2270  -22.4820 O.co2  13  ASP13      -0.2456
      9  N         27.4410   22.1990  -20.6930 N.3    44  PHE44      -0.1241
     10  CA        28.4280   21.3950  -21.4190 C.3    44  PHE44       0.1605
     11  C         28.9410   22.1520  -22.6400 C.2    44  PHE44       0.2264
     12  O         28.3440   22.0970  -23.7090 O.2    44  PHE44      -0.2867
     13  CB        27.8050   20.0580  -21.8330 C.3    44  PHE44       0.0534
     14  CG        27.3510   19.2130  -20.6720 C.ar   44  PHE44      -0.0203
     15  CD1       28.2540   18.8060  -19.7020 C.ar   44  PHE44      -0.0042
     16  CD2       26.0200   18.8030  -20.5600 C.ar   44  PHE44      -0.0042
     17  CE1       27.8470   18.0200  -18.6340 C.ar   44  PHE44      -0.0003
     18  CE2       25.6090   18.0040  -19.4990 C.ar   44  PHE44      -0.0003
     19  CZ        26.5250   17.6180  -18.5320 C.ar   44  PHE44      -0.0000
     20  N         32.2380   22.0340  -24.0050 N.3    46  MET46      -0.1245
     21  CA        33.5650   21.4910  -24.2720 C.3    46  MET46       0.1570
     22  C         34.0740   21.9050  -25.6590 C.2    46  MET46       0.2261
     23  O         33.2860   22.1830  -26.5650 O.2    46  MET46      -0.2867
     24  CB        33.5530   19.9710  -24.1250 C.3    46  MET46       0.0387
     25  CG        33.1180   19.5030  -22.7480 C.3    46  MET46       0.0595
     26  SD        31.3340   19.3350  -22.5280 S.3    46  MET46      -0.1393
     27  CE        31.1380   17.6980  -23.2360 C.3    46  MET46       0.0692
     28  N         30.5600   17.4280  -28.0130 N.3    81  TRP81      -0.1227
     29  CA        30.0440   16.4410  -27.0640 C.3    81  TRP81       0.1737
     30  C         30.6690   15.0470  -27.2970 C.2    81  TRP81       0.2595
     31  O         31.6960   14.9460  -27.9840 O.2    81  TRP81      -0.2718
     32  CB        28.5070   16.4880  -27.0870 C.3    81  TRP81       0.0564
     33  CG        27.9380   17.6590  -26.3130 C.ar   81  TRP81       0.0003
     34  CD1       28.6180   18.7510  -25.8080 C.ar   81  TRP81       0.0946
     35  CD2       26.5650   17.8660  -25.9910 C.ar   81  TRP81       0.0152
     36  NE1       27.7430   19.6050  -25.1740 N.ar   81  TRP81      -0.2442
     37  CE2       26.4770   19.0880  -25.2750 C.ar   81  TRP81       0.0810
     38  CE3       25.3960   17.1350  -26.2310 C.ar   81  TRP81       0.0012
     39  CZ2       25.2670   19.5910  -24.8050 C.ar   81  TRP81       0.0191
     40  CZ3       24.1890   17.6350  -25.7570 C.ar   81  TRP81       0.0001
     41  CH2       24.1330   18.8540  -25.0540 C.ar   81  TRP81       0.0015
     42  N         30.1030   13.9970  -26.6950 N.am   82  ALA82      -0.1980
     43  CA        30.7980   12.6970  -26.5620 C.3    82  ALA82       0.1597
     44  C         31.2450   12.1040  -27.9040 C.2    82  ALA82       0.2287
     45  O         30.4140   11.9200  -28.7910 O.2    82  ALA82      -0.2864
     46  CB        29.9310   11.6970  -25.8240 C.3    82  ALA82       0.0319
     47  N         23.2480   13.4680  -31.4430 N.3   132  ILE132     -0.1231
     48  CA        24.5090   13.3680  -30.7120 C.3   132  ILE132      0.1692
     49  C         24.9630   11.9250  -30.4840 C.2   132  ILE132      0.2592
     50  O         24.3490   10.9770  -30.9700 O.2   132  ILE132     -0.2718
     51  CB        24.3890   14.1220  -29.3660 C.3   132  ILE132      0.0266
     52  CG1       23.3390   13.4880  -28.4600 C.3   132  ILE132      0.0019
     53  CG2       24.0640   15.5930  -29.6080 C.3   132  ILE132      0.0020
     54  CD1       23.4800   13.8830  -27.0090 C.3   132  ILE132      0.0001
     55  N         26.0660   11.7830  -29.7480 N.am  133  ASP133     -0.1974
     56  CA        26.4980   10.5230  -29.1600 C.3   133  ASP133      0.1709
     57  C         26.7000    9.3630  -30.1480 C.2   133  ASP133      0.2293
     58  O         26.1280    8.2720  -29.9730 O.2   133  ASP133     -0.2864
     59  CB        25.5510   10.1300  -28.0050 C.3   133  ASP133      0.1436
     60  CG        25.7190   11.0120  -26.7880 C.2   133  ASP133      0.3671
     61  OD1       26.4410   12.0450  -26.8760 O.co2 133  ASP133     -0.2456
     62  OD2       25.1290   10.6640  -25.7310 O.co2 133  ASP133     -0.2456
     63  N         20.1860    8.7830  -24.1850 N.3   224  GLU224     -0.1245
     64  CA        21.4090    9.0770  -24.9420 C.3   224  GLU224      0.1567
     65  C         22.4350    7.9600  -24.7330 C.2   224  GLU224      0.2260
     66  O         22.1240    6.9310  -24.1300 O.2   224  GLU224     -0.2867
     67  CB        21.9790   10.4470  -24.5300 C.3   224  GLU224      0.0388
     68  CG        22.6070   10.4940  -23.1390 C.3   224  GLU224      0.1160
     69  CD        22.7520   11.8980  -22.5780 C.2   224  GLU224      0.3649
     70  OE1       23.1540   12.0260  -21.4030 O.co2 224  GLU224     -0.2457
     71  OE2       22.4740   12.8810  -23.2870 O.co2 224  GLU224     -0.2457
     72  N         24.6040   13.2000  -14.9980 N.3   273  THR273     -0.1203
     73  CA        24.8170   12.3630  -16.1960 C.3   273  THR273      0.1994
     74  C         25.3850   10.9990  -15.8480 C.2   273  THR273      0.2618
     75  O         26.0260   10.8210  -14.8140 O.2   273  THR273     -0.2717
     76  CB        25.7230   13.0360  -17.2520 C.3   273  THR273      0.1784
     77  OG1       27.0450   13.2470  -16.7250 O.3   273  THR273     -0.2211
     78  CG2       25.1110   14.3560  -17.7090 C.3   273  THR273      0.0376
     79  N         25.1170   10.0350  -16.7210 N.am  274  ASN274     -0.1960
     80  CA        25.6500    8.6870  -16.6080 C.3   274  ASN274      0.1819
     81  C         25.9590    8.2560  -18.0320 C.2   274  ASN274      0.2621
     82  O         25.0760    8.3180  -18.8970 O.2   274  ASN274     -0.2715
     83  CB        24.5970    7.7680  -15.9730 C.3   274  ASN274      0.1195
     84  CG        25.1940    6.5290  -15.3230 C.2   274  ASN274      0.2630
     85  OD1       26.3390    6.1590  -15.5600 O.2   274  ASN274     -0.2716
     86  ND2       24.4120    5.8930  -14.4790 N.am  274  ASN274     -0.0877
     87  N         27.2100    7.8750  -18.2860 N.am  275  HIS275     -0.1973
     88  CA        27.6790    7.5910  -19.6440 C.3   275  HIS275      0.1656
     89  C         28.8240    6.6010  -19.5710 C.2   275  HIS275      0.2291
     90  O         29.7260    6.7440  -18.7520 O.2   275  HIS275     -0.2864
     91  CB        28.1550    8.8790  -20.3120 C.3   275  HIS275      0.0771
     92  CG        28.2960    8.7900  -21.7980 C.ar  275  HIS275      0.0820
     93  ND1       27.5710    9.5870  -22.6580 N.ar  275  HIS275     -0.2267
     94  CD2       29.1110    8.0380  -22.5760 C.ar  275  HIS275      0.1154
     95  CE1       27.9180    9.3130  -23.9030 C.ar  275  HIS275      0.1986
     96  NE2       28.8520    8.3810  -23.8790 N.ar  275  HIS275     -0.2212
     97  N         33.5420   16.2530  -14.6460 N.3   302  ARG302     -0.1245
     98  CA        33.4330   14.8300  -14.3590 C.3   302  ARG302      0.1563
     99  C         34.7960   14.1450  -14.3790 C.2   302  ARG302      0.2260
    100  O         35.8060   14.7500  -14.7380 O.2   302  ARG302     -0.2867
    101  CB        32.4540   14.2000  -15.3440 C.3   302  ARG302      0.0307
    102  CG        31.0530   14.7730  -15.1980 C.3   302  ARG302      0.0489
    103  CD        30.1750   14.5250  -16.4000 C.3   302  ARG302      0.2205
    104  NE        30.5800   15.3040  -17.5700 N.pl3 302  ARG302     -0.0865
    105  CZ        29.9210   15.3080  -18.7280 C.cat 302  ARG302      0.5346
    106  NH1       30.3720   16.0290  -19.7390 N.pl3 302  ARG302      0.1354
    107  NH2       28.8160   14.5780  -18.8980 N.pl3 302  ARG302      0.1354
@<TRIPOS>BOND
     1    47    48    1
     2    50    49    2
     3    48    49    1
     4    48    51    1
     5    49    55   am
     6    57    58    2
     7    57    56    1
     8    55    56    1
     9    53    51    1
    10    51    52    1
    11    56    59    1
    12    45    44    2
    13    52    54    1
    14    28    29    1
    15    59    60    1
    16    31    30    2
    17    44    43    1
    18    30    29    1
    19    30    42   am
    20    32    29    1
    21    32    33    1
    22    61    60   ar
    23    60    62   ar
    24    42    43    1
    25    23    22    2
    26    43    46    1
    27    33    35   ar
    28    33    34   ar
    29    38    35   ar
    30    38    40   ar
    31    35    37   ar
    32    34    36   ar
    33    40    41   ar
    34    22    21    1
    35    37    36   ar
    36    37    39   ar
    37    41    39   ar
    38    64    65    1
    39    64    67    1
    40    64    63    1
    41    65    66    2
    42    67    68    1
    43    21    24    1
    44    21    20    1
    45    24    25    1
    46    95    96   ar
    47    95    93   ar
    48    96    94   ar
    49    12    11    2
    50     4     3    2
    51    71    69   ar
    52    27    26    1
    53    68    69    1
    54    25    26    1
    55     5     6    1
    56     5     2    1
    57    93    92   ar
    58    11    10    1
    59    69    70   ar
    60    94    92   ar
    61     8     6   ar
    62     3     2    1
    63     6     7   ar
    64    13    10    1
    65    13    14    1
    66    92    91    1
    67     2     1    1
    68    10     9    1
    69    14    16   ar
    70    14    15   ar
    71    16    18   ar
    72    91    88    1
    73   106   105    1
    74    15    17   ar
    75    88    89    1
    76    88    87    1
    77    89    90    2
    78    18    19   ar
    79   107   105    1
    80    82    81    2
    81   105   104    2
    82    17    19   ar
    83    87    81   am
    84    81    80    1
    85    78    76    1
    86   104   103    1
    87    76    77    1
    88    76    73    1
    89    79    80    1
    90    79    74   am
    91    80    83    1
    92   103   102    1
    93    73    74    1
    94    73    72    1
    95    83    84    1
    96    74    75    2
    97    85    84    2
    98   101   102    1
    99   101    98    1
   100    84    86   am
   101   100    99    2
   102    97    98    1
   103    99    98    1
