@<TRIPOS>MOLECULE
tmp/5glpA01.pdb
 134 135 0 0 0
SMALL
GASTEIGER

@<TRIPOS>ATOM
      1  N         29.5940  -10.5730    6.6090 N.3    43  ASN43      -0.1225
      2  CA        29.0710  -11.6660    5.8050 C.3    43  ASN43       0.1785
      3  C         27.6050  -11.4180    5.4680 C.2    43  ASN43       0.2597
      4  O         26.9770  -10.4830    5.9870 O.2    43  ASN43      -0.2718
      5  CB        29.2450  -13.0010    6.5460 C.3    43  ASN43       0.1169
      6  CG        28.5970  -13.0040    7.9240 C.2    43  ASN43       0.2627
      7  OD1       27.4980  -12.4620    8.1210 O.2    43  ASN43      -0.2716
      8  ND2       29.2630  -13.6350    8.8810 N.am   43  ASN43      -0.0877
      9  N         27.0550  -12.2670    4.6150 N.am   44  ASP44      -0.1974
     10  CA        25.6670  -12.1210    4.1770 C.3    44  ASP44       0.1709
     11  C         24.6080  -12.5210    5.2280 C.2    44  ASP44       0.2293
     12  O         23.4240  -12.4860    4.9260 O.2    44  ASP44      -0.2864
     13  CB        25.4460  -12.8800    2.8550 C.3    44  ASP44       0.1436
     14  CG        26.1350  -12.2150    1.6650 C.2    44  ASP44       0.3671
     15  OD1       26.6510  -11.0820    1.7920 O.co2  44  ASP44      -0.2456
     16  OD2       26.1350  -12.8290    0.5780 O.co2  44  ASP44      -0.2456
     17  N         24.8030  -10.7920    8.1730 N.3    46  GLY46      -0.1225
     18  CA        24.7600   -9.5260    8.9010 C.3    46  GLY46       0.1811
     19  C         25.4960   -9.4940   10.2310 C.2    46  GLY46       0.2280
     20  O         25.2030   -8.6480   11.0680 O.2    46  GLY46      -0.2866
     21  N         28.3700   -8.4680   10.9900 N.3    48  HIS48      -0.1226
     22  CA        28.9770   -7.1260   11.1020 C.3    48  HIS48       0.1752
     23  C         28.1110   -6.0380   11.7700 C.2    48  HIS48       0.2596
     24  O         28.6530   -5.0260   12.2200 O.2    48  HIS48      -0.2718
     25  CB        29.5390   -6.6300    9.7460 C.3    48  HIS48       0.0759
     26  CG        28.5520   -6.6130    8.6150 C.ar   48  HIS48       0.0818
     27  ND1       28.0720   -7.7580    8.0100 N.ar   48  HIS48      -0.2268
     28  CD2       27.9840   -5.5790    7.9500 C.ar   48  HIS48       0.1154
     29  CE1       27.2430   -7.4300    7.0370 C.ar   48  HIS48       0.1986
     30  NE2       27.1790   -6.1140    6.9750 N.ar   48  HIS48      -0.2212
     31  N         26.7900   -6.2370   11.8240 N.am   49  PHE49      -0.1976
     32  CA        25.8710   -5.3580   12.5570 C.3    49  PHE49       0.1639
     33  C         25.6530   -5.8990   13.9680 C.2    49  PHE49       0.2290
     34  O         24.7750   -6.7420   14.1840 O.2    49  PHE49      -0.2864
     35  CB        24.5250   -5.2630   11.8290 C.3    49  PHE49       0.0560
     36  CG        24.6320   -4.7550   10.4270 C.ar   49  PHE49      -0.0200
     37  CD1       25.0350   -3.4480   10.1790 C.ar   49  PHE49      -0.0042
     38  CD2       24.2970   -5.5740    9.3470 C.ar   49  PHE49      -0.0042
     39  CE1       25.1300   -2.9760    8.8760 C.ar   49  PHE49      -0.0003
     40  CE2       24.3830   -5.1030    8.0530 C.ar   49  PHE49      -0.0003
     41  CZ        24.8060   -3.8020    7.8170 C.ar   49  PHE49      -0.0000
     42  N         18.7460   -4.3340   16.0550 N.3    86  TRP86      -0.1241
     43  CA        18.6310   -3.8660   14.6760 C.3    86  TRP86       0.1605
     44  C         17.5060   -2.8070   14.5350 C.2    86  TRP86       0.2264
     45  O         17.0660   -2.2180   15.5320 O.2    86  TRP86      -0.2867
     46  CB        18.4890   -5.0880   13.7500 C.3    86  TRP86       0.0550
     47  CG        19.7860   -5.8190   13.4630 C.ar   86  TRP86       0.0003
     48  CD1       20.9830   -5.6940   14.1200 C.ar   86  TRP86       0.0946
     49  CD2       19.9860   -6.8120   12.4540 C.ar   86  TRP86       0.0152
     50  NE1       21.9100   -6.5460   13.5750 N.ar   86  TRP86      -0.2442
     51  CE2       21.3290   -7.2380   12.5440 C.ar   86  TRP86       0.0810
     52  CE3       19.1580   -7.3800   11.4740 C.ar   86  TRP86       0.0012
     53  CZ2       21.8620   -8.2100   11.6900 C.ar   86  TRP86       0.0191
     54  CZ3       19.6880   -8.3520   10.6220 C.ar   86  TRP86       0.0001
     55  CH2       21.0290   -8.7600   10.7420 C.ar   86  TRP86       0.0015
     56  N         12.6450   -9.3060   11.5740 N.3   137  ILE137     -0.1245
     57  CA        13.2460   -8.0130   11.9050 C.3   137  ILE137      0.1561
     58  C         12.4180   -6.8190   11.4110 C.2   137  ILE137      0.2260
     59  O         11.3120   -6.9730   10.8860 O.2   137  ILE137     -0.2867
     60  CB        14.7080   -7.9290   11.3700 C.3   137  ILE137      0.0252
     61  CG1       14.7630   -7.9250    9.8380 C.3   137  ILE137      0.0019
     62  CG2       15.5410   -9.0980   11.8930 C.3   137  ILE137      0.0019
     63  CD1       16.1090   -7.5250    9.2740 C.3   137  ILE137      0.0001
     64  N         14.5810  -10.8710    4.9280 N.3   156  ILE156     -0.1231
     65  CA        15.1060  -12.1610    4.4450 C.3   156  ILE156      0.1692
     66  C         16.6260  -12.2120    4.6660 C.2   156  ILE156      0.2592
     67  O         17.1840  -11.3310    5.3080 O.2   156  ILE156     -0.2718
     68  CB        14.6720  -12.4680    2.9840 C.3   156  ILE156      0.0266
     69  CG1       15.2890  -11.4790    1.9890 C.3   156  ILE156      0.0019
     70  CG2       13.1460  -12.4940    2.8960 C.3   156  ILE156      0.0020
     71  CD1       15.0550  -11.8310    0.5350 C.3   156  ILE156      0.0001
     72  N         17.2820  -13.2570    4.1740 N.am  157  TRP157     -0.1962
     73  CA        18.7060  -13.4850    4.4350 C.3   157  TRP157      0.1771
     74  C         18.9730  -13.4810    5.9590 C.2   157  TRP157      0.2620
     75  O         18.3600  -14.2670    6.6820 O.2   157  TRP157     -0.2715
     76  CB        19.5820  -12.4790    3.6730 C.3   157  TRP157      0.0590
     77  CG        19.5790  -12.5710    2.1860 C.ar  157  TRP157      0.0006
     78  CD1       18.5850  -13.0390    1.3680 C.ar  157  TRP157      0.0946
     79  CD2       20.6270  -12.1260    1.3230 C.ar  157  TRP157      0.0152
     80  NE1       18.9670  -12.9360    0.0510 N.ar  157  TRP157     -0.2442
     81  CE2       20.2140  -12.3740   -0.0040 C.ar  157  TRP157      0.0810
     82  CE3       21.8820  -11.5380    1.5440 C.ar  157  TRP157      0.0012
     83  CZ2       21.0070  -12.0510   -1.1050 C.ar  157  TRP157      0.0191
     84  CZ3       22.6710  -11.2200    0.4500 C.ar  157  TRP157      0.0001
     85  CH2       22.2320  -11.4770   -0.8570 C.ar  157  TRP157      0.0015
     86  N         19.8200  -12.5790    6.4680 N.am  158  GLY158     -0.1940
     87  CA        20.1120  -12.5260    7.8960 C.3   158  GLY158      0.2014
     88  C         18.9450  -12.2040    8.8150 C.2   158  GLY158      0.2639
     89  O         18.9900  -12.5070   10.0100 O.2   158  GLY158     -0.2714
     90  N         17.8860  -11.6100    8.2690 N.am  159  GLY159     -0.1954
     91  CA        16.6760  -11.3500    9.0300 C.3   159  GLY159      0.1869
     92  C         15.8100  -12.5750    9.2980 C.2   159  GLY159      0.2309
     93  O         14.8350  -12.4740   10.0250 O.2   159  GLY159     -0.2863
     94  N         12.9050   -7.3140    0.4990 N.3   228  PHE228     -0.1227
     95  CA        14.0490   -7.8330    1.2400 C.3   228  PHE228      0.1736
     96  C         13.9250   -7.5020    2.7310 C.2   228  PHE228      0.2595
     97  O         13.9770   -8.4080    3.5800 O.2   228  PHE228     -0.2718
     98  CB        15.3380   -7.2720    0.6480 C.3   228  PHE228      0.0547
     99  CG        16.5840   -7.9500    1.1340 C.ar  228  PHE228     -0.0202
    100  CD1       17.1270   -7.6390    2.3740 C.ar  228  PHE228     -0.0042
    101  CD2       17.2380   -8.8700    0.3340 C.ar  228  PHE228     -0.0042
    102  CE1       18.2860   -8.2520    2.8190 C.ar  228  PHE228     -0.0003
    103  CE2       18.4110   -9.4670    0.7640 C.ar  228  PHE228     -0.0003
    104  CZ        18.9310   -9.1650    2.0060 C.ar  228  PHE228     -0.0000
    105  N         13.7840   -6.2150    3.0550 N.am  229  GLU229     -0.1979
    106  CA        13.6990   -5.7650    4.4570 C.3   229  GLU229      0.1602
    107  C         13.1750   -4.3210    4.5370 C.2   229  GLU229      0.2287
    108  O         12.7490   -3.7610    3.5260 O.2   229  GLU229     -0.2864
    109  CB        15.0680   -5.9270    5.1490 C.3   229  GLU229      0.0415
    110  CG        16.1380   -4.9170    4.7220 C.3   229  GLU229      0.1163
    111  CD        17.5650   -5.3660    4.9840 C.2   229  GLU229      0.3649
    112  OE1       18.5030   -4.6220    4.6260 O.co2 229  GLU229     -0.2457
    113  OE2       17.7740   -6.4510    5.5500 O.co2 229  GLU229     -0.2457
    114  N         26.3500   -0.9630    1.4260 N.3   277  TRP277     -0.1227
    115  CA        25.4600   -2.0160    0.9170 C.3   277  TRP277      0.1737
    116  C         23.9930   -1.7780    1.2770 C.2   277  TRP277      0.2596
    117  O         23.1170   -1.9410    0.4190 O.2   277  TRP277     -0.2718
    118  CB        25.9130   -3.3850    1.4590 C.3   277  TRP277      0.0564
    119  CG        25.4050   -4.6050    0.7330 C.ar  277  TRP277      0.0003
    120  CD1       26.0640   -5.3110   -0.2430 C.ar  277  TRP277      0.0946
    121  CD2       24.1740   -5.3040    0.9660 C.ar  277  TRP277      0.0152
    122  NE1       25.3010   -6.3750   -0.6520 N.ar  277  TRP277     -0.2442
    123  CE2       24.1420   -6.4020    0.0770 C.ar  277  TRP277      0.0810
    124  CE3       23.0870   -5.1000    1.8280 C.ar  277  TRP277      0.0012
    125  CZ2       23.0700   -7.2990    0.0320 C.ar  277  TRP277      0.0191
    126  CZ3       22.0110   -5.9980    1.7840 C.ar  277  TRP277      0.0001
    127  CH2       22.0120   -7.0760    0.8860 C.ar  277  TRP277      0.0015
    128  N         23.7210   -1.3950    2.5260 N.am  278  THR278     -0.1953
    129  CA        22.3340   -1.3320    3.0090 C.3   278  THR278      0.1897
    130  C         21.6490   -0.0330    2.6140 C.2   278  THR278      0.2313
    131  O         22.3020    0.9930    2.3770 O.2   278  THR278     -0.2863
    132  CB        22.1870   -1.5710    4.5350 C.3   278  THR278      0.1794
    133  OG1       22.7820   -0.4970    5.2860 O.3   278  THR278     -0.2208
    134  CG2       22.7950   -2.9140    4.9360 C.3   278  THR278      0.0378
@<TRIPOS>BOND
     1    83    85   ar
     2    83    81   ar
     3    85    84   ar
     4   122   120   ar
     5   122   123   ar
     6   120   119   ar
     7    81    80   ar
     8    81    79   ar
     9   125   123   ar
    10   125   127   ar
    11    80    78   ar
    12   123   121   ar
    13   101   103   ar
    14   101    99   ar
    15   117   116    2
    16    84    82   ar
    17    94    95    1
    18    71    69    1
    19    16    14   ar
    20    98    99    1
    21    98    95    1
    22   119   121   ar
    23   119   118    1
    24   103   104   ar
    25   127   126   ar
    26   115   116    1
    27   115   114    1
    28   115   118    1
    29   121   124   ar
    30    99   100   ar
    31    95    96    1
    32   116   128   am
    33    79    82   ar
    34    79    77   ar
    35    78    77   ar
    36    14    15   ar
    37    14    13    1
    38   126   124   ar
    39    69    68    1
    40   104   102   ar
    41    77    76    1
    42   100   102   ar
    43   131   130    2
    44   128   129    1
    45   130   129    1
    46    96   105   am
    47    96    97    2
    48    13    10    1
    49    70    68    1
    50    68    65    1
    51   129   132    1
    52   105   106    1
    53   108   107    2
    54    76    73    1
    55    72    73    1
    56    72    66   am
    57    10     9    1
    58    10    11    1
    59    73    74    1
    60    65    66    1
    61    65    64    1
    62   106   107    1
    63   106   109    1
    64   132   134    1
    65   132   133    1
    66     9     3   am
    67   112   111   ar
    68    66    67    2
    69   110   111    1
    70   110   109    1
    71    12    11    2
    72   111   113   ar
    73     3     2    1
    74     3     4    2
    75     2     5    1
    76     2     1    1
    77    74    86   am
    78    74    75    2
    79    86    87    1
    80     5     6    1
    81    30    29   ar
    82    30    28   ar
    83    29    27   ar
    84    41    40   ar
    85    41    39   ar
    86    87    88    1
    87     6     7    2
    88     6     8   am
    89    28    26   ar
    90    27    26   ar
    91    40    38   ar
    92    17    18    1
    93    90    88   am
    94    90    91    1
    95    26    25    1
    96    88    89    2
    97    39    37   ar
    98    18    19    1
    99    91    92    1
   100    63    61    1
   101    92    93    2
   102    38    36   ar
   103    25    22    1
   104    61    60    1
   105    37    36   ar
   106    19    20    2
   107    36    35    1
   108    54    55   ar
   109    54    52   ar
   110    55    53   ar
   111    59    58    2
   112    21    22    1
   113    22    23    1
   114    60    62    1
   115    60    57    1
   116    58    57    1
   117    52    49   ar
   118    56    57    1
   119    53    51   ar
   120    23    31   am
   121    23    24    2
   122    31    32    1
   123    35    32    1
   124    49    51   ar
   125    49    47   ar
   126    51    50   ar
   127    32    33    1
   128    47    46    1
   129    47    48   ar
   130    50    48   ar
   131    46    43    1
   132    33    34    2
   133    44    43    1
   134    44    45    2
   135    43    42    1
