@<TRIPOS>MOLECULE
tmp/5glpA00.pdb
 107 103 0 0 0
SMALL
GASTEIGER

@<TRIPOS>ATOM
      1  N         19.0230    3.2530    9.7510 N.3    18  ASP18      -0.1239
      2  CA        17.6990    2.6660    9.7350 C.3    18  ASP18       0.1674
      3  C         16.6730    3.6170   10.3600 C.2    18  ASP18       0.2266
      4  O         15.8980    3.2080   11.2320 O.2    18  ASP18      -0.2867
      5  CB        17.6920    1.3220   10.4880 C.3    18  ASP18       0.1410
      6  CG        18.7800    0.3700   10.0350 C.2    18  ASP18       0.3668
      7  OD1       18.9940    0.2020    8.8210 O.co2  18  ASP18      -0.2456
      8  OD2       19.3910   -0.2620   10.9180 O.co2  18  ASP18      -0.2456
      9  N         26.7900   -6.2370   11.8240 N.3    49  PHE49      -0.1241
     10  CA        25.8710   -5.3580   12.5570 C.3    49  PHE49       0.1605
     11  C         25.6530   -5.8990   13.9680 C.2    49  PHE49       0.2264
     12  O         24.7750   -6.7420   14.1840 O.2    49  PHE49      -0.2867
     13  CB        24.5250   -5.2630   11.8290 C.3    49  PHE49       0.0534
     14  CG        24.6320   -4.7550   10.4270 C.ar   49  PHE49      -0.0203
     15  CD1       25.0350   -3.4480   10.1790 C.ar   49  PHE49      -0.0042
     16  CD2       24.2970   -5.5740    9.3470 C.ar   49  PHE49      -0.0042
     17  CE1       25.1300   -2.9760    8.8760 C.ar   49  PHE49      -0.0003
     18  CE2       24.3830   -5.1030    8.0530 C.ar   49  PHE49      -0.0003
     19  CZ        24.8060   -3.8020    7.8170 C.ar   49  PHE49      -0.0000
     20  N         25.0620   -4.0780   16.9850 N.3    51  MET51      -0.1245
     21  CA        24.6410   -2.9500   17.7870 C.3    51  MET51       0.1570
     22  C         24.0850   -3.4020   19.1370 C.2    51  MET51       0.2261
     23  O         23.5340   -4.5060   19.2670 O.2    51  MET51      -0.2867
     24  CB        23.6110   -2.1220   17.0250 C.3    51  MET51       0.0387
     25  CG        24.1270   -1.5700   15.7050 C.3    51  MET51       0.0595
     26  SD        24.0470   -2.6970   14.2910 S.3    51  MET51      -0.1393
     27  CE        22.3740   -2.3830   13.7400 C.3    51  MET51       0.0692
     28  N         18.7460   -4.3340   16.0550 N.3    86  TRP86      -0.1227
     29  CA        18.6310   -3.8660   14.6760 C.3    86  TRP86       0.1737
     30  C         17.5060   -2.8070   14.5350 C.2    86  TRP86       0.2595
     31  O         17.0660   -2.2180   15.5320 O.2    86  TRP86      -0.2718
     32  CB        18.4890   -5.0880   13.7500 C.3    86  TRP86       0.0564
     33  CG        19.7860   -5.8190   13.4630 C.ar   86  TRP86       0.0003
     34  CD1       20.9830   -5.6940   14.1200 C.ar   86  TRP86       0.0946
     35  CD2       19.9860   -6.8120   12.4540 C.ar   86  TRP86       0.0152
     36  NE1       21.9100   -6.5460   13.5750 N.ar   86  TRP86      -0.2442
     37  CE2       21.3290   -7.2380   12.5440 C.ar   86  TRP86       0.0810
     38  CE3       19.1580   -7.3800   11.4740 C.ar   86  TRP86       0.0012
     39  CZ2       21.8620   -8.2100   11.6900 C.ar   86  TRP86       0.0191
     40  CZ3       19.6880   -8.3520   10.6220 C.ar   86  TRP86       0.0001
     41  CH2       21.0290   -8.7600   10.7420 C.ar   86  TRP86       0.0015
     42  N         17.0810   -2.5380   13.3010 N.am   87  ALA87      -0.1980
     43  CA        16.2440   -1.3810   12.9680 C.3    87  ALA87       0.1597
     44  C         14.9500   -1.2660   13.7860 C.2    87  ALA87       0.2287
     45  O         14.0680   -2.1110   13.6450 O.2    87  ALA87      -0.2864
     46  CB        15.9150   -1.4160   11.4940 C.3    87  ALA87       0.0319
     47  N         12.6450   -9.3060   11.5740 N.3   137  ILE137     -0.1231
     48  CA        13.2460   -8.0130   11.9050 C.3   137  ILE137      0.1692
     49  C         12.4180   -6.8190   11.4110 C.2   137  ILE137      0.2592
     50  O         11.3120   -6.9730   10.8860 O.2   137  ILE137     -0.2718
     51  CB        14.7080   -7.9290   11.3700 C.3   137  ILE137      0.0266
     52  CG1       14.7630   -7.9250    9.8380 C.3   137  ILE137      0.0019
     53  CG2       15.5410   -9.0980   11.8930 C.3   137  ILE137      0.0020
     54  CD1       16.1090   -7.5250    9.2740 C.3   137  ILE137      0.0001
     55  N         12.9650   -5.6230   11.6280 N.am  138  ASP138     -0.1974
     56  CA        12.5220   -4.4010   10.9440 C.3   138  ASP138      0.1709
     57  C         11.0400   -4.0610   11.1190 C.2   138  ASP138      0.2293
     58  O         10.3160   -3.8730   10.1430 O.2   138  ASP138     -0.2864
     59  CB        12.9100   -4.4790    9.4590 C.3   138  ASP138      0.1436
     60  CG        14.4240   -4.4380    9.2450 C.2   138  ASP138      0.3671
     61  OD1       15.1910   -4.4520   10.2240 O.co2 138  ASP138     -0.2456
     62  OD2       14.8450   -4.3850    8.0820 O.co2 138  ASP138     -0.2456
     63  N         13.7840   -6.2150    3.0550 N.3   229  GLU229     -0.1245
     64  CA        13.6990   -5.7650    4.4570 C.3   229  GLU229      0.1567
     65  C         13.1750   -4.3210    4.5370 C.2   229  GLU229      0.2260
     66  O         12.7490   -3.7610    3.5260 O.2   229  GLU229     -0.2867
     67  CB        15.0680   -5.9270    5.1490 C.3   229  GLU229      0.0388
     68  CG        16.1380   -4.9170    4.7220 C.3   229  GLU229      0.1160
     69  CD        17.5650   -5.3660    4.9840 C.2   229  GLU229      0.3649
     70  OE1       18.5030   -4.6220    4.6260 O.co2 229  GLU229     -0.2457
     71  OE2       17.7740   -6.4510    5.5500 O.co2 229  GLU229     -0.2457
     72  N         23.7210   -1.3950    2.5260 N.3   278  THR278     -0.1203
     73  CA        22.3340   -1.3320    3.0090 C.3   278  THR278      0.1994
     74  C         21.6490   -0.0330    2.6140 C.2   278  THR278      0.2618
     75  O         22.3020    0.9930    2.3770 O.2   278  THR278     -0.2717
     76  CB        22.1870   -1.5710    4.5350 C.3   278  THR278      0.1784
     77  OG1       22.7820   -0.4970    5.2860 O.3   278  THR278     -0.2211
     78  CG2       22.7950   -2.9140    4.9360 C.3   278  THR278      0.0376
     79  N         20.3270   -0.0970    2.5380 N.am  279  ASN279     -0.1960
     80  CA        19.4970    1.0630    2.2290 C.3   279  ASN279      0.1819
     81  C         18.2570    0.9000    3.0880 C.2   279  ASN279      0.2621
     82  O         17.6190   -0.1540    3.0290 O.2   279  ASN279     -0.2715
     83  CB        19.1840    1.0730    0.7290 C.3   279  ASN279      0.1195
     84  CG        18.7520    2.4340    0.2050 C.2   279  ASN279      0.2630
     85  OD1       18.4230    3.3370    0.9620 O.2   279  ASN279     -0.2716
     86  ND2       18.7390    2.5730   -1.1200 N.am  279  ASN279     -0.0877
     87  N         17.9530    1.8940    3.9270 N.am  280  HIS280     -0.1973
     88  CA        16.8770    1.7740    4.9150 C.3   280  HIS280      0.1656
     89  C         16.3510    3.1620    5.2620 C.2   280  HIS280      0.2291
     90  O         17.1230    4.1000    5.4440 O.2   280  HIS280     -0.2864
     91  CB        17.4120    1.0760    6.1630 C.3   280  HIS280      0.0771
     92  CG        16.3610    0.4860    7.0500 C.ar  280  HIS280      0.0820
     93  ND1       16.3740   -0.8400    7.4140 N.ar  280  HIS280     -0.2267
     94  CD2       15.3080    1.0430    7.6930 C.ar  280  HIS280      0.1154
     95  CE1       15.3630   -1.0830    8.2260 C.ar  280  HIS280      0.1986
     96  NE2       14.7020    0.0430    8.4100 N.ar  280  HIS280     -0.2212
     97  N         27.1840    3.7300    9.5950 N.3   307  ARG307     -0.1245
     98  CA        26.3440    4.5310    8.7270 C.3   307  ARG307      0.1563
     99  C         26.0030    5.8580    9.3920 C.2   307  ARG307      0.2260
    100  O         26.2770    6.0580   10.5780 O.2   307  ARG307     -0.2867
    101  CB        25.0870    3.7280    8.3620 C.3   307  ARG307      0.0307
    102  CG        25.4110    2.4420    7.5950 C.3   307  ARG307      0.0489
    103  CD        24.3250    1.3760    7.6730 C.3   307  ARG307      0.2205
    104  NE        24.1840    0.7620    8.9980 N.pl3 307  ARG307     -0.0865
    105  CZ        23.2680   -0.1670    9.2920 C.cat 307  ARG307      0.5346
    106  NH1       22.4500   -0.6160    8.3590 N.pl3 307  ARG307      0.1354
    107  NH2       23.1620   -0.6520   10.5270 N.pl3 307  ARG307      0.1354
@<TRIPOS>BOND
     1    86    84   am
     2    84    83    1
     3    84    85    2
     4    83    80    1
     5    80    79    1
     6    80    81    1
     7    75    74    2
     8    72    73    1
     9    79    74   am
    10    74    73    1
    11    73    76    1
    12    82    81    2
    13    63    64    1
    14    81    87   am
    15    66    65    2
    16    87    88    1
    17    64    65    1
    18    64    67    1
    19    76    78    1
    20    76    77    1
    21    70    69   ar
    22    68    69    1
    23    68    67    1
    24    88    89    1
    25    88    91    1
    26    69    71   ar
    27    89    90    2
    28    91    92    1
    29    92    93   ar
    30    92    94   ar
    31    93    95   ar
    32   102   103    1
    33   102   101    1
    34   103   104    1
    35    94    96   ar
    36    19    18   ar
    37    19    17   ar
    38    18    16   ar
    39    62    60   ar
    40    95    96   ar
    41   106   105    1
    42   101    98    1
    43    98    99    1
    44    98    97    1
    45     7     6   ar
    46    17    15   ar
    47   104   105    2
    48    60    59    1
    49    60    61   ar
    50    54    52    1
    51   105   107    1
    52    16    14   ar
    53    99   100    2
    54    59    56    1
    55     2     1    1
    56     2     3    1
    57     2     5    1
    58    52    51    1
    59     6     5    1
    60     6     8   ar
    61    58    57    2
    62    15    14   ar
    63     3     4    2
    64    14    13    1
    65    40    41   ar
    66    40    38   ar
    67    41    39   ar
    68    50    49    2
    69    56    57    1
    70    56    55    1
    71    51    53    1
    72    51    48    1
    73    49    55   am
    74    49    48    1
    75    38    35   ar
    76    46    43    1
    77    47    48    1
    78    39    37   ar
    79     9    10    1
    80    13    10    1
    81    35    37   ar
    82    35    33   ar
    83    37    36   ar
    84    10    11    1
    85    43    42    1
    86    43    44    1
    87    42    30   am
    88    33    32    1
    89    33    34   ar
    90    36    34   ar
    91    45    44    2
    92    27    26    1
    93    32    29    1
    94    11    12    2
    95    26    25    1
    96    30    29    1
    97    30    31    2
    98    29    28    1
    99    25    24    1
   100    20    21    1
   101    24    21    1
   102    21    22    1
   103    22    23    2
