@<TRIPOS>MOLECULE
tmp/5glrB00.pdb
 99 94 0 0 0
SMALL
GASTEIGER

@<TRIPOS>ATOM
      1  N         32.3580   10.5460  -20.6410 N.3    13  ASP13      -0.1239
      2  CA        31.8270    9.8570  -21.8090 C.3    13  ASP13       0.1674
      3  C         32.8600    8.9150  -22.4410 C.2    13  ASP13       0.2266
      4  O         33.1030    8.9880  -23.6460 O.2    13  ASP13      -0.2867
      5  CB        31.3590   10.8600  -22.8630 C.3    13  ASP13       0.1410
      6  CG        30.5020   11.9780  -22.2990 C.2    13  ASP13       0.3668
      7  OD1       29.5490   11.6930  -21.5390 O.co2  13  ASP13      -0.2456
      8  OD2       30.7600   13.1490  -22.6670 O.co2  13  ASP13      -0.2456
      9  N         27.7950   22.1700  -20.7350 N.3    44  PHE44      -0.1241
     10  CA        28.7980   21.3060  -21.3700 C.3    44  PHE44       0.1605
     11  C         29.3550   22.0370  -22.5780 C.2    44  PHE44       0.2264
     12  O         28.7770   21.9750  -23.6540 O.2    44  PHE44      -0.2867
     13  CB        28.1590   19.9740  -21.8010 C.3    44  PHE44       0.0534
     14  CG        27.5110   19.2180  -20.6740 C.ar   44  PHE44      -0.0203
     15  CD1       28.2790   18.6040  -19.6970 C.ar   44  PHE44      -0.0042
     16  CD2       26.1310   19.1090  -20.5960 C.ar   44  PHE44      -0.0042
     17  CE1       27.6770   17.8920  -18.6540 C.ar   44  PHE44      -0.0003
     18  CE2       25.5240   18.4060  -19.5530 C.ar   44  PHE44      -0.0003
     19  CZ        26.2990   17.8020  -18.5810 C.ar   44  PHE44      -0.0000
     20  N         32.6630   21.9240  -24.0160 N.3    46  MET46      -0.1245
     21  CA        33.9940   21.4000  -24.2930 C.3    46  MET46       0.1570
     22  C         34.5260   21.8330  -25.6670 C.2    46  MET46       0.2261
     23  O         33.7610   22.0960  -26.5880 O.2    46  MET46      -0.2867
     24  CB        33.9810   19.8760  -24.1420 C.3    46  MET46       0.0387
     25  CG        33.5020   19.3940  -22.7870 C.3    46  MET46       0.0595
     26  SD        31.7050   19.2630  -22.6470 S.3    46  MET46      -0.1393
     27  CE        31.4720   17.5960  -23.2710 C.3    46  MET46       0.0692
     28  N         31.1220   17.1870  -27.9160 N.3    81  TRP81      -0.1227
     29  CA        30.4950   16.2630  -26.9920 C.3    81  TRP81       0.1737
     30  C         31.0230   14.8310  -27.1820 C.2    81  TRP81       0.2595
     31  O         32.0880   14.6380  -27.7960 O.2    81  TRP81      -0.2718
     32  CB        28.9730   16.4230  -27.0880 C.3    81  TRP81       0.0564
     33  CG        28.4310   17.5720  -26.2980 C.ar   81  TRP81       0.0003
     34  CD1       29.1030   18.6810  -25.8530 C.ar   81  TRP81       0.0946
     35  CD2       27.0710   17.7520  -25.9130 C.ar   81  TRP81       0.0152
     36  NE1       28.2410   19.5180  -25.1890 N.ar   81  TRP81      -0.2442
     37  CE2       26.9890   18.9690  -25.2140 C.ar   81  TRP81       0.0810
     38  CE3       25.9070   16.9870  -26.0810 C.ar   81  TRP81       0.0012
     39  CZ2       25.7850   19.4480  -24.6950 C.ar   81  TRP81       0.0191
     40  CZ3       24.7070   17.4640  -25.5510 C.ar   81  TRP81       0.0001
     41  CH2       24.6610   18.6790  -24.8650 C.ar   81  TRP81       0.0015
     42  N         30.3430   13.8430  -26.6030 N.am   82  ALA82      -0.1980
     43  CA        30.8760   12.4770  -26.4540 C.3    82  ALA82       0.1597
     44  C         31.3660   11.8130  -27.7520 C.2    82  ALA82       0.2287
     45  O         30.5540   11.5530  -28.6390 O.2    82  ALA82      -0.2864
     46  CB        29.8200   11.5870  -25.8090 C.3    82  ALA82       0.0319
     47  N         23.7040   13.4780  -31.4930 N.3   132  ILE132     -0.1231
     48  CA        24.9370   13.3570  -30.7260 C.3   132  ILE132      0.1692
     49  C         25.3750   11.9080  -30.4800 C.2   132  ILE132      0.2592
     50  O         24.7800   10.9600  -30.9750 O.2   132  ILE132     -0.2718
     51  CB        24.8050   14.1120  -29.3800 C.3   132  ILE132      0.0266
     52  CG1       23.7470   13.4800  -28.4630 C.3   132  ILE132      0.0019
     53  CG2       24.4630   15.5750  -29.6140 C.3   132  ILE132      0.0020
     54  CD1       23.7930   13.9920  -27.0380 C.3   132  ILE132      0.0001
     55  N         26.4430   11.7630  -29.7010 N.am  133  ASP133     -0.1974
     56  CA        26.8100   10.4900  -29.0840 C.3   133  ASP133      0.1709
     57  C         27.0040    9.3140  -30.0540 C.2   133  ASP133      0.2293
     58  O         26.4050    8.2550  -29.8890 O.2   133  ASP133     -0.2864
     59  CB        25.7970   10.1470  -27.9720 C.3   133  ASP133      0.1436
     60  CG        25.8600   11.1180  -26.8220 C.2   133  ASP133      0.3671
     61  OD1       26.6110   12.1290  -26.9150 O.co2 133  ASP133     -0.2456
     62  OD2       25.1910   10.8620  -25.7950 O.co2 133  ASP133     -0.2456
     63  N         20.3070    8.8860  -24.3590 N.3   224  GLU224     -0.1245
     64  CA        21.5740    9.2150  -25.0650 C.3   224  GLU224      0.1567
     65  C         22.6010    8.0880  -24.8600 C.2   224  GLU224      0.2260
     66  O         22.2830    7.0530  -24.2780 O.2   224  GLU224     -0.2867
     67  CB        22.1220   10.5660  -24.5630 C.3   224  GLU224      0.0388
     68  CG        22.6460   10.5750  -23.1300 C.3   224  GLU224      0.1160
     69  CD        22.7260   11.9740  -22.5150 C.2   224  GLU224      0.3649
     70  OE1       23.0080   12.0890  -21.3160 O.co2 224  GLU224     -0.2457
     71  OE2       22.4790   12.9820  -23.2160 O.co2 224  GLU224     -0.2457
     72  N         24.6910   13.2020  -15.3420 N.3   273  THR273     -0.1218
     73  CA        24.8870   12.3540  -16.5370 C.3   273  THR273      0.1862
     74  C         25.4500   10.9830  -16.1740 C.2   273  THR273      0.2287
     75  O         26.0570   10.7920  -15.1170 O.2   273  THR273     -0.2866
     76  CB        25.7910   13.0130  -17.6010 C.3   273  THR273      0.1770
     77  OG1       27.0940   13.2490  -17.0560 O.3   273  THR273     -0.2211
     78  CG2       25.1920   14.3020  -18.1120 C.3   273  THR273      0.0375
     79  N         27.3570    7.8940  -18.5920 N.3   275  HIS275     -0.1241
     80  CA        27.8030    7.6400  -19.9510 C.3   275  HIS275      0.1621
     81  C         28.9580    6.6700  -19.8910 C.2   275  HIS275      0.2264
     82  O         29.8460    6.8180  -19.0710 O.2   275  HIS275     -0.2867
     83  CB        28.2140    8.9550  -20.6130 C.3   275  HIS275      0.0745
     84  CG        28.2910    8.9050  -22.1070 C.ar  275  HIS275      0.0817
     85  ND1       27.5680    9.7610  -22.9070 N.ar  275  HIS275     -0.2268
     86  CD2       29.0180    8.1270  -22.9480 C.ar  275  HIS275      0.1154
     87  CE1       27.8270    9.4990  -24.1750 C.ar  275  HIS275      0.1986
     88  NE2       28.7030    8.5150  -24.2260 N.ar  275  HIS275     -0.2212
     89  N         33.5880   16.1060  -14.8770 N.3   302  ARG302     -0.1245
     90  CA        33.5050   14.6840  -14.5850 C.3   302  ARG302      0.1563
     91  C         34.8830   14.0150  -14.5800 C.2   302  ARG302      0.2260
     92  O         35.8890   14.6250  -14.9550 O.2   302  ARG302     -0.2867
     93  CB        32.5480   14.0460  -15.6000 C.3   302  ARG302      0.0307
     94  CG        31.1350   14.6070  -15.4430 C.3   302  ARG302      0.0489
     95  CD        30.2610   14.4100  -16.6560 C.3   302  ARG302      0.2205
     96  NE        30.6920   15.2270  -17.7920 N.pl3 302  ARG302     -0.0865
     97  CZ        30.0630   15.2500  -18.9640 C.cat 302  ARG302      0.5346
     98  NH1       30.5670   15.9680  -19.9560 N.pl3 302  ARG302      0.1354
     99  NH2       28.9400   14.5430  -19.1700 N.pl3 302  ARG302      0.1354
@<TRIPOS>BOND
     1    47    48    1
     2    50    49    2
     3    48    49    1
     4    48    51    1
     5    49    55   am
     6    57    58    2
     7    57    56    1
     8    55    56    1
     9    53    51    1
    10    51    52    1
    11    56    59    1
    12    45    44    2
    13    52    54    1
    14    59    60    1
    15    28    29    1
    16    31    30    2
    17    44    43    1
    18    30    29    1
    19    30    42   am
    20    32    29    1
    21    32    33    1
    22    61    60   ar
    23    60    62   ar
    24    42    43    1
    25    23    22    2
    26    43    46    1
    27    33    35   ar
    28    33    34   ar
    29    38    35   ar
    30    38    40   ar
    31    35    37   ar
    32    34    36   ar
    33    22    21    1
    34    40    41   ar
    35    37    36   ar
    36    37    39   ar
    37    64    65    1
    38    64    67    1
    39    64    63    1
    40    41    39   ar
    41    65    66    2
    42    67    68    1
    43    21    24    1
    44    21    20    1
    45    88    87   ar
    46    88    86   ar
    47    87    85   ar
    48    24    25    1
    49    12    11    2
    50     4     3    2
    51    27    26    1
    52    71    69   ar
    53    68    69    1
    54    86    84   ar
    55    85    84   ar
    56     5     6    1
    57     5     2    1
    58    25    26    1
    59     8     6   ar
    60    11    10    1
    61    69    70   ar
    62     3     2    1
    63     6     7   ar
    64    84    83    1
    65     2     1    1
    66    13    10    1
    67    13    14    1
    68    10     9    1
    69    14    16   ar
    70    14    15   ar
    71    83    80    1
    72    16    18   ar
    73    98    97    1
    74    80    81    1
    75    80    79    1
    76    81    82    2
    77    15    17   ar
    78    18    19   ar
    79    99    97    1
    80    97    96    2
    81    17    19   ar
    82    78    76    1
    83    96    95    1
    84    76    77    1
    85    76    73    1
    86    95    94    1
    87    73    74    1
    88    73    72    1
    89    74    75    2
    90    93    94    1
    91    93    90    1
    92    92    91    2
    93    89    90    1
    94    90    91    1
