@<TRIPOS>MOLECULE
tmp/5glyA01.pdb
 106 101 0 0 0
SMALL
GASTEIGER

@<TRIPOS>ATOM
      1  N        -21.3210   12.6790  -11.4280 N.3     8  THR8       -0.1203
      2  CA       -21.6400   12.6600  -10.0120 C.3     8  THR8        0.1994
      3  C        -20.6370   11.7620   -9.3070 C.2     8  THR8        0.2618
      4  O        -19.6820   11.2680   -9.9340 O.2     8  THR8       -0.2717
      5  CB       -23.0570   12.1030   -9.7500 C.3     8  THR8        0.1784
      6  OG1      -23.1020   10.7160  -10.1330 O.3     8  THR8       -0.2211
      7  CG2      -24.1040   12.8790  -10.4920 C.3     8  THR8        0.0376
      8  N        -20.7820   11.6290   -7.9920 N.am    9  ARG9       -0.1965
      9  CA       -19.9090   10.7340   -7.2060 C.3     9  ARG9        0.1729
     10  C        -20.7870    9.7520   -6.4310 C.2     9  ARG9        0.2616
     11  O        -21.8640   10.0950   -6.0030 O.2     9  ARG9       -0.2715
     12  CB       -18.9890   11.5000   -6.2320 C.3     9  ARG9        0.0348
     13  CG       -19.7460   12.4370   -5.2970 C.3     9  ARG9        0.0492
     14  CD       -18.8060   13.1580   -4.3530 C.3     9  ARG9        0.2205
     15  NE       -19.5430   14.0270   -3.4260 N.pl3   9  ARG9       -0.0865
     16  CZ       -19.8970   15.2760   -3.6830 C.cat   9  ARG9        0.5346
     17  NH1      -19.6690   15.8230   -4.8560 N.pl3   9  ARG9        0.1354
     18  NH2      -20.5730   15.9600   -2.7640 N.pl3   9  ARG9        0.1354
     19  N        -20.2950    8.5300   -6.2350 N.am   10  TYR10      -0.1974
     20  CA       -21.0940    7.4970   -5.5680 C.3    10  TYR10       0.1639
     21  C        -20.2090    6.4030   -4.9780 C.2    10  TYR10       0.2290
     22  O        -19.1300    6.1180   -5.4970 O.2    10  TYR10      -0.2864
     23  CB       -22.1260    6.8420   -6.5270 C.3    10  TYR10       0.0560
     24  CG       -21.6470    5.5810   -7.2680 C.ar   10  TYR10      -0.0198
     25  CD1      -20.8090    5.6550   -8.3780 C.ar   10  TYR10      -0.0009
     26  CD2      -22.0130    4.3280   -6.8370 C.ar   10  TYR10      -0.0009
     27  CE1      -20.3610    4.4970   -9.0200 C.ar   10  TYR10       0.0417
     28  CE2      -21.6400    3.1920   -7.5220 C.ar   10  TYR10       0.0417
     29  CZ       -20.7490    3.2820   -8.5590 C.ar   10  TYR10       0.1957
     30  OH       -20.4020    2.1230   -9.2270 O.3    10  TYR10      -0.2866
     31  N        -22.1610    2.7790   -3.4420 N.3    12  ASP12      -0.1239
     32  CA       -23.3380    2.1690   -2.8270 C.3    12  ASP12       0.1674
     33  C        -23.0780    0.7490   -2.3450 C.2    12  ASP12       0.2266
     34  O        -23.9540    0.1300   -1.7290 O.2    12  ASP12      -0.2867
     35  CB       -24.5230    2.1690   -3.8150 C.3    12  ASP12       0.1410
     36  CG       -24.2420    1.4270   -5.1140 C.2    12  ASP12       0.3668
     37  OD1      -23.2640    0.6850   -5.2060 O.co2  12  ASP12      -0.2456
     38  OD2      -25.1310    1.5050   -6.0180 O.co2  12  ASP12      -0.2456
     39  N        -24.2040   10.5740  -18.5510 N.3   120  GLN120     -0.1245
     40  CA       -23.8710   10.7280  -17.1420 C.3   120  GLN120      0.1566
     41  C        -22.8890    9.6440  -16.7150 C.2   120  GLN120      0.2260
     42  O        -23.1090    8.4560  -16.9610 O.2   120  GLN120     -0.2867
     43  CB       -25.1280   10.6160  -16.2840 C.3   120  GLN120      0.0367
     44  CG       -24.9770   10.9600  -14.8090 C.3   120  GLN120      0.0905
     45  CD       -26.3310   10.8610  -14.1030 C.2   120  GLN120      0.2608
     46  OE1      -27.3740   10.9990  -14.7820 O.2   120  GLN120     -0.2717
     47  NE2      -26.3320   10.2560  -12.9000 N.am  120  GLN120     -0.0878
     48  N        -21.2700    8.3550  -13.2480 N.3   122  ASP122     -0.1239
     49  CA       -21.2860    8.3740  -11.7950 C.3   122  ASP122      0.1674
     50  C        -19.9620    7.7830  -11.3520 C.2   122  ASP122      0.2266
     51  O        -19.7050    6.5740  -11.4960 O.2   122  ASP122     -0.2867
     52  CB       -22.4870    7.5880  -11.2740 C.3   122  ASP122      0.1410
     53  CG       -23.7530    7.9700  -12.0070 C.2   122  ASP122      0.3668
     54  OD1      -24.0680    9.1830  -11.9710 O.co2 122  ASP122     -0.2456
     55  OD2      -24.3830    7.1090  -12.6870 O.co2 122  ASP122     -0.2456
     56  N        -18.5840    8.9190   -1.5810 N.3   128  GLY128     -0.1210
     57  CA       -19.3050    9.7530   -2.5250 C.3   128  GLY128      0.1956
     58  C        -20.8140    9.8050   -2.3500 C.2   128  GLY128      0.2612
     59  O        -21.4690   10.7130   -2.8680 O.2   128  GLY128     -0.2717
     60  N        -21.3700    8.8180   -1.6570 N.am  129  GLY129     -0.1942
     61  CA       -22.8030    8.7930   -1.3370 C.3   129  GLY129      0.2014
     62  C        -23.4730    7.4960   -1.8130 C.2   129  GLY129      0.2639
     63  O        -23.2300    7.0270   -2.9330 O.2   129  GLY129     -0.2714
     64  N        -24.2130    6.8370   -0.9280 N.am  130  VAL130     -0.1963
     65  CA       -24.8020    5.5390   -1.2470 C.3   130  VAL130      0.1727
     66  C        -26.0490    5.6010   -2.1130 C.2   130  VAL130      0.2616
     67  O        -26.5380    4.5500   -2.5740 O.2   130  VAL130     -0.2715
     68  CB       -25.1250    4.7300    0.0250 C.3   130  VAL130      0.0290
     69  CG1      -23.8720    4.5180    0.8500 C.3   130  VAL130      0.0023
     70  CG2      -26.2570    5.4040    0.8280 C.3   130  VAL130      0.0023
     71  N        -26.6710    6.7740   -2.1590 N.am  131  GLY131     -0.1955
     72  CA       -27.8500    6.9840   -3.0010 C.3   131  GLY131      0.1869
     73  C        -29.0460    6.1890   -2.5260 C.2   131  GLY131      0.2309
     74  O        -29.2570    6.0310   -1.3350 O.2   131  GLY131     -0.2863
     75  N        -26.8370   11.3080   -0.3880 N.3   148  TYR148     -0.1227
     76  CA       -26.3770   11.8150   -1.6800 C.3   148  TYR148      0.1736
     77  C        -25.2310   12.8090   -1.4840 C.2   148  TYR148      0.2596
     78  O        -25.3540   13.8080   -0.7410 O.2   148  TYR148     -0.2718
     79  CB       -27.5370   12.4860   -2.4450 C.3   148  TYR148      0.0548
     80  CG       -28.6820   11.5480   -2.7520 C.ar  148  TYR148     -0.0200
     81  CD1      -29.5910   11.1380   -1.7450 C.ar  148  TYR148     -0.0009
     82  CD2      -28.7940   10.9260   -3.9920 C.ar  148  TYR148     -0.0009
     83  CE1      -30.5730   10.1960   -1.9900 C.ar  148  TYR148      0.0417
     84  CE2      -29.7890    9.9870   -4.2390 C.ar  148  TYR148      0.0417
     85  CZ       -30.6970    9.6470   -3.2440 C.ar  148  TYR148      0.1957
     86  OH       -31.7060    8.7590   -3.4990 O.3   148  TYR148     -0.2866
     87  N        -24.1110   12.5600   -2.1520 N.am  149  GLY149     -0.1957
     88  CA       -22.9090   13.3500   -1.9450 C.3   149  GLY149      0.1869
     89  C        -21.9460   12.8720   -0.8800 C.2   149  GLY149      0.2309
     90  O        -20.7550   13.1630   -0.9360 O.2   149  GLY149     -0.2863
     91  N        -16.9940   19.0110   -7.1300 N.3   179  ASP179     -0.1225
     92  CA       -18.4060   18.7440   -6.9870 C.3   179  ASP179      0.1805
     93  C        -19.0010   18.6460   -8.3670 C.2   179  ASP179      0.2597
     94  O        -19.1360   19.6400   -9.0860 O.2   179  ASP179     -0.2718
     95  CB       -19.0450   19.8650   -6.2110 C.3   179  ASP179      0.1424
     96  CG       -20.4590   19.5640   -5.8000 C.2   179  ASP179      0.3668
     97  OD1      -20.8390   18.3760   -5.6330 O.co2 179  ASP179     -0.2456
     98  OD2      -21.1910   20.5500   -5.5890 O.co2 179  ASP179     -0.2456
     99  N        -19.2410   17.4090   -8.8010 N.am  180  ASN180     -0.1974
    100  CA       -19.8970   17.1760  -10.0740 C.3   180  ASN180      0.1688
    101  C        -19.2930   17.9590  -11.2470 C.2   180  ASN180      0.2292
    102  O        -20.0290   18.5530  -12.0610 O.2   180  ASN180     -0.2864
    103  CB       -21.3830   17.4780   -9.9620 C.3   180  ASN180      0.1181
    104  CG       -22.0840   16.6490   -8.9110 C.2   180  ASN180      0.2629
    105  OD1      -21.5740   15.6580   -8.4000 O.2   180  ASN180     -0.2716
    106  ND2      -23.3120   17.0560   -8.6000 N.am  180  ASN180     -0.0877
@<TRIPOS>BOND
     1    39    40    1
     2    40    41    1
     3    40    43    1
     4    42    41    2
     5    43    44    1
     6    44    45    1
     7    46    45    2
     8    45    47   am
     9    48    49    1
    10    55    53   ar
    11   102   101    2
    12    53    54   ar
    13    53    52    1
    14    49    50    1
    15    49    52    1
    16    51    50    2
    17     1     2    1
    18   101   100    1
    19     7     5    1
    20     6     5    1
    21   100   103    1
    22   100    99    1
    23     2     5    1
    24     2     3    1
    25   103   104    1
    26     4     3    2
    27     3     8   am
    28    30    29    1
    29    94    93    2
    30    27    29   ar
    31    27    25   ar
    32   104   106   am
    33   104   105    2
    34    99    93   am
    35    29    28   ar
    36    25    24   ar
    37    93    92    1
    38     8     9    1
    39    28    26   ar
    40    24    26   ar
    41    24    23    1
    42     9    10    1
    43     9    12    1
    44    91    92    1
    45    92    95    1
    46    23    20    1
    47    10    19   am
    48    10    11    2
    49    19    20    1
    50    12    13    1
    51    95    96    1
    52    38    36   ar
    53    96    97   ar
    54    96    98   ar
    55    20    21    1
    56    22    21    2
    57    13    14    1
    58    37    36   ar
    59    36    35    1
    60    17    16    1
    61    14    15    1
    62    84    82   ar
    63    84    85   ar
    64    82    80   ar
    65    35    32    1
    66    16    15    2
    67    16    18    1
    68    86    85    1
    69    31    32    1
    70    85    83   ar
    71    72    73    1
    72    72    71    1
    73    63    62    2
    74    59    58    2
    75    32    33    1
    76    80    79    1
    77    80    81   ar
    78    67    66    2
    79    73    74    2
    80    57    58    1
    81    57    56    1
    82    79    76    1
    83    58    60   am
    84    33    34    2
    85    71    66   am
    86    87    88    1
    87    87    77   am
    88    66    65    1
    89    83    81   ar
    90    88    89    1
    91    62    61    1
    92    62    64   am
    93    76    77    1
    94    76    75    1
    95    60    61    1
    96    77    78    2
    97    65    64    1
    98    65    68    1
    99    90    89    2
   100    68    70    1
   101    68    69    1
