@<TRIPOS>MOLECULE
tmp/5glyA00.pdb
 180 174 0 0 0
SMALL
GASTEIGER

@<TRIPOS>ATOM
      1  N        -20.2950    8.5300   -6.2350 N.3    10  TYR10      -0.1241
      2  CA       -21.0940    7.4970   -5.5680 C.3    10  TYR10       0.1605
      3  C        -20.2090    6.4030   -4.9780 C.2    10  TYR10       0.2264
      4  O        -19.1300    6.1180   -5.4970 O.2    10  TYR10      -0.2867
      5  CB       -22.1260    6.8420   -6.5270 C.3    10  TYR10       0.0534
      6  CG       -21.6470    5.5810   -7.2680 C.ar   10  TYR10      -0.0201
      7  CD1      -20.8090    5.6550   -8.3780 C.ar   10  TYR10      -0.0009
      8  CD2      -22.0130    4.3280   -6.8370 C.ar   10  TYR10      -0.0009
      9  CE1      -20.3610    4.4970   -9.0200 C.ar   10  TYR10       0.0417
     10  CE2      -21.6400    3.1920   -7.5220 C.ar   10  TYR10       0.0417
     11  CZ       -20.7490    3.2820   -8.5590 C.ar   10  TYR10       0.1957
     12  OH       -20.4020    2.1230   -9.2270 O.3    10  TYR10      -0.2866
     13  N        -22.1610    2.7790   -3.4420 N.3    12  ASP12      -0.1239
     14  CA       -23.3380    2.1690   -2.8270 C.3    12  ASP12       0.1674
     15  C        -23.0780    0.7490   -2.3450 C.2    12  ASP12       0.2266
     16  O        -23.9540    0.1300   -1.7290 O.2    12  ASP12      -0.2867
     17  CB       -24.5230    2.1690   -3.8150 C.3    12  ASP12       0.1410
     18  CG       -24.2420    1.4270   -5.1140 C.2    12  ASP12       0.3668
     19  OD1      -23.2640    0.6850   -5.2060 O.co2  12  ASP12      -0.2456
     20  OD2      -25.1310    1.5050   -6.0180 O.co2  12  ASP12      -0.2456
     21  N        -22.9820   -1.9190   -3.8910 N.3    14  CYS14      -0.1221
     22  CA       -23.7080   -2.9310   -4.6380 C.3    14  CYS14       0.1808
     23  C        -22.7820   -3.6900   -5.5860 C.2    14  CYS14       0.2601
     24  O        -21.8130   -3.1360   -6.1250 O.2    14  CYS14      -0.2717
     25  CB       -24.8160   -2.2950   -5.4740 C.3    14  CYS14       0.0970
     26  SG       -26.0130   -1.3350   -4.5380 S.3    14  CYS14      -0.0800
     27  N        -23.1660   -4.9210   -5.9120 N.am   15  LYS15      -0.1966
     28  CA       -22.5990   -5.5740   -7.0800 C.3    15  LYS15       0.1713
     29  C        -22.7970   -4.6900   -8.3150 C.2    15  LYS15       0.2458
     30  O        -23.9400   -4.3380   -8.6690 O.2    15  LYS15      -0.2730
     31  CB       -23.2580   -6.9410   -7.2890 C.3    15  LYS15       0.0311
     32  CG       -22.7140   -7.7220   -8.4620 C.3    15  LYS15       0.0038
     33  CD       -23.4130   -9.0690   -8.5580 C.3    15  LYS15       0.0206
     34  CE       -22.8620   -9.8720   -9.7160 C.3    15  LYS15       0.1093
     35  NZ       -23.4510  -11.2470   -9.7330 N.3    15  LYS15      -0.1314
     36  N        -21.7020   -4.3730   -9.0380 N.am   16  PRO16      -0.2716
     37  CA       -21.8720   -3.5030  -10.2060 C.3    16  PRO16       0.1536
     38  C        -22.5800   -4.2450  -11.3270 C.2    16  PRO16       0.2599
     39  O        -22.4710   -5.4600  -11.4430 O.2    16  PRO16      -0.2715
     40  CB       -20.4240   -3.1670  -10.6270 C.3    16  PRO16       0.0310
     41  CG       -19.5540   -3.6130   -9.5010 C.3    16  PRO16       0.0237
     42  CD       -20.2860   -4.6300   -8.7000 C.3    16  PRO16       0.0939
     43  N        -23.2890   -3.5010  -12.1650 N.am   17  SER17      -0.1950
     44  CA       -24.0940   -4.1360  -13.2050 C.3    17  SER17       0.1924
     45  C        -23.2650   -5.0180  -14.1420 C.2    17  SER17       0.2314
     46  O        -23.7310   -6.0790  -14.5830 O.2    17  SER17      -0.2863
     47  CB       -24.9040   -3.1020  -13.9670 C.3    17  SER17       0.2116
     48  OG       -25.8810   -3.7490  -14.7620 O.3    17  SER17      -0.2180
     49  N        -22.2000   -9.0700  -13.9170 N.3    20  TRP20      -0.1228
     50  CA       -23.0370  -10.2130  -14.3190 C.3    20  TRP20       0.1722
     51  C        -22.5510  -10.7640  -15.6490 C.2    20  TRP20       0.2437
     52  O        -22.3020  -10.0070  -16.5820 O.2    20  TRP20      -0.2733
     53  CB       -24.4890   -9.7570  -14.4710 C.3    20  TRP20       0.0563
     54  CG       -25.1410   -9.4170  -13.1630 C.ar   20  TRP20       0.0003
     55  CD1      -25.2250   -8.1820  -12.6110 C.ar   20  TRP20       0.0946
     56  CD2      -25.6830  -10.3250  -12.1970 C.ar   20  TRP20       0.0152
     57  NE1      -25.8070   -8.2520  -11.3610 N.ar   20  TRP20      -0.2442
     58  CE2      -26.1200   -9.5590  -11.1030 C.ar   20  TRP20       0.0810
     59  CE3      -25.8730  -11.7200  -12.1630 C.ar   20  TRP20       0.0012
     60  CZ2      -26.7530  -10.1310  -10.0070 C.ar   20  TRP20       0.0191
     61  CZ3      -26.4560  -12.2810  -11.0620 C.ar   20  TRP20       0.0001
     62  CH2      -26.9030  -11.5020  -10.0060 C.ar   20  TRP20       0.0015
     63  N        -22.6260  -12.0940  -15.8230 N.am   21  PRO21      -0.2729
     64  CA       -22.3660  -12.6620  -17.1600 C.3    21  PRO21       0.1401
     65  C        -23.4140  -12.2510  -18.1720 C.2    21  PRO21       0.2269
     66  O        -24.5670  -11.9830  -17.7900 O.2    21  PRO21      -0.2865
     67  CB       -22.4650  -14.1620  -16.9350 C.3    21  PRO21       0.0296
     68  CG       -22.2850  -14.3670  -15.4760 C.3    21  PRO21       0.0237
     69  CD       -22.8210  -13.1290  -14.8070 C.3    21  PRO21       0.0939
     70  N        -23.7750   -9.5510  -20.0130 N.3    23  LYS23      -0.1245
     71  CA       -24.0850   -8.1270  -20.2100 C.3    23  LYS23       0.1561
     72  C        -23.3650   -7.5600  -21.4280 C.2    23  LYS23       0.2260
     73  O        -23.8360   -6.6060  -22.0370 O.2    23  LYS23      -0.2867
     74  CB       -23.6890   -7.3100  -18.9700 C.3    23  LYS23       0.0271
     75  CG       -24.5220   -7.5830  -17.7270 C.3    23  LYS23       0.0035
     76  CD       -25.8500   -6.8650  -17.7810 C.3    23  LYS23       0.0206
     77  CE       -26.5320   -6.8850  -16.4210 C.3    23  LYS23       0.1093
     78  NZ       -27.7770   -6.1010  -16.4380 N.3    23  LYS23      -0.1314
     79  N        -26.8540   -9.7130   -5.7120 N.3    47  SER47      -0.1217
     80  CA       -26.3080   -8.4660   -5.2000 C.3    47  SER47       0.1889
     81  C        -26.6990   -8.2240   -3.7470 C.2    47  SER47       0.2288
     82  O        -27.8380   -8.4890   -3.3390 O.2    47  SER47      -0.2866
     83  CB       -26.7920   -7.2980   -6.0350 C.3    47  SER47       0.2089
     84  OG       -26.3640   -6.0770   -5.4640 O.3    47  SER47      -0.2183
     85  N        -27.3130   -5.5500   -2.5520 N.3    49  CYS49      -0.1221
     86  CA       -28.3340   -4.5060   -2.5530 C.3    49  CYS49       0.1808
     87  C        -29.6990   -5.0820   -2.8490 C.2    49  CYS49       0.2601
     88  O        -30.6800   -4.3690   -2.8460 O.2    49  CYS49      -0.2717
     89  CB       -27.9580   -3.4350   -3.5800 C.3    49  CYS49       0.0970
     90  SG       -26.5490   -2.4840   -2.9840 S.3    49  CYS49      -0.0800
     91  N        -29.7440   -6.3850   -3.1080 N.am   50  ASN50      -0.1974
     92  CA       -30.9720   -7.0710   -3.4650 C.3    50  ASN50       0.1688
     93  C        -31.1290   -8.3480   -2.6320 C.2    50  ASN50       0.2292
     94  O        -31.4800   -9.4130   -3.1540 O.2    50  ASN50      -0.2864
     95  CB       -30.9510   -7.3840   -4.9660 C.3    50  ASN50       0.1181
     96  CG       -32.2790   -7.8640   -5.4790 C.2    50  ASN50       0.2629
     97  OD1      -33.3380   -7.4850   -4.9600 O.2    50  ASN50      -0.2716
     98  ND2      -32.2340   -8.7930   -6.4170 N.am   50  ASN50      -0.0877
     99  N        -20.1470    4.2320  -13.0690 N.3    75  ALA75      -0.1245
    100  CA       -21.3660    3.8160  -13.7270 C.3    75  ALA75       0.1562
    101  C        -21.6690    4.7980  -14.8280 C.2    75  ALA75       0.2260
    102  O        -21.4360    5.9950  -14.6840 O.2    75  ALA75      -0.2867
    103  CB       -22.5050    3.7580  -12.7400 C.3    75  ALA75       0.0290
    104  N        -25.6870   -1.4700  -22.1710 N.3    83  GLU83      -0.1245
    105  CA       -24.6850   -2.2590  -21.4200 C.3    83  GLU83       0.1567
    106  C        -23.7910   -3.0790  -22.3550 C.2    83  GLU83       0.2260
    107  O        -22.6030   -3.2120  -22.1260 O.2    83  GLU83      -0.2867
    108  CB       -25.3430   -3.1490  -20.3730 C.3    83  GLU83       0.0388
    109  CG       -26.0490   -2.3810  -19.2940 C.3    83  GLU83       0.1160
    110  CD       -26.3150   -3.2090  -18.0570 C.2    83  GLU83       0.3649
    111  OE1      -27.4240   -3.8250  -17.9360 O.co2  83  GLU83      -0.2457
    112  OE2      -25.4260   -3.1690  -17.1750 O.co2  83  GLU83      -0.2457
    113  N        -20.7540   -0.2840  -14.4980 N.3   111  SER111     -0.1202
    114  CA       -22.1390   -0.2830  -14.0170 C.3   111  SER111      0.2020
    115  C        -22.9250    0.7750  -14.7510 C.2   111  SER111      0.2619
    116  O        -22.4060    1.3950  -15.6730 O.2   111  SER111     -0.2717
    117  CB       -22.2070   -0.0280  -12.5240 C.3   111  SER111      0.2103
    118  OG       -23.4060   -0.5500  -11.9440 O.3   111  SER111     -0.2182
    119  N        -24.1980    0.9190  -14.3820 N.am  112  THR112     -0.1938
    120  CA       -25.0550    1.9240  -14.9730 C.3   112  THR112      0.2028
    121  C        -26.1430    2.2930  -13.9810 C.2   112  THR112      0.2643
    122  O        -26.1650    1.7910  -12.8760 O.2   112  THR112     -0.2714
    123  CB       -25.6610    1.4230  -16.2910 C.3   112  THR112      0.1808
    124  OG1      -26.3230    2.5020  -16.9690 O.3   112  THR112     -0.2208
    125  CG2      -26.6310    0.3110  -16.0490 C.3   112  THR112      0.0379
    126  N        -27.0530    3.1640  -14.4210 N.am  113  GLY113     -0.1939
    127  CA       -28.1670    3.6240  -13.6070 C.3   113  GLY113      0.2014
    128  C        -28.5840    5.0590  -13.9300 C.2   113  GLY113      0.2639
    129  O        -29.6390    5.4890  -13.4760 O.2   113  GLY113     -0.2714
    130  N        -27.6790    5.8540  -14.5220 N.am  114  GLY114     -0.1954
    131  CA       -27.9660    7.2660  -14.8980 C.3   114  GLY114      0.1869
    132  C        -29.1240    7.3990  -15.8880 C.2   114  GLY114      0.2309
    133  O        -29.6700    6.3960  -16.3700 O.2   114  GLY114     -0.2863
    134  N        -24.2040   10.5740  -18.5510 N.3   120  GLN120     -0.1245
    135  CA       -23.8710   10.7280  -17.1420 C.3   120  GLN120      0.1566
    136  C        -22.8890    9.6440  -16.7150 C.2   120  GLN120      0.2260
    137  O        -23.1090    8.4560  -16.9610 O.2   120  GLN120     -0.2867
    138  CB       -25.1280   10.6160  -16.2840 C.3   120  GLN120      0.0367
    139  CG       -24.9770   10.9600  -14.8090 C.3   120  GLN120      0.0905
    140  CD       -26.3310   10.8610  -14.1030 C.2   120  GLN120      0.2608
    141  OE1      -27.3740   10.9990  -14.7820 O.2   120  GLN120     -0.2717
    142  NE2      -26.3320   10.2560  -12.9000 N.am  120  GLN120     -0.0878
    143  N        -21.2700    8.3550  -13.2480 N.3   122  ASP122     -0.1239
    144  CA       -21.2860    8.3740  -11.7950 C.3   122  ASP122      0.1674
    145  C        -19.9620    7.7830  -11.3520 C.2   122  ASP122      0.2266
    146  O        -19.7050    6.5740  -11.4960 O.2   122  ASP122     -0.2867
    147  CB       -22.4870    7.5880  -11.2740 C.3   122  ASP122      0.1410
    148  CG       -23.7530    7.9700  -12.0070 C.2   122  ASP122      0.3668
    149  OD1      -24.0680    9.1830  -11.9710 O.co2 122  ASP122     -0.2456
    150  OD2      -24.3830    7.1090  -12.6870 O.co2 122  ASP122     -0.2456
    151  N        -24.2130    6.8370   -0.9280 N.3   130  VAL130     -0.1231
    152  CA       -24.8020    5.5390   -1.2470 C.3   130  VAL130      0.1692
    153  C        -26.0490    5.6010   -2.1130 C.2   130  VAL130      0.2593
    154  O        -26.5380    4.5500   -2.5740 O.2   130  VAL130     -0.2718
    155  CB       -25.1250    4.7300    0.0250 C.3   130  VAL130      0.0266
    156  CG1      -23.8720    4.5180    0.8500 C.3   130  VAL130      0.0020
    157  CG2      -26.2570    5.4040    0.8280 C.3   130  VAL130      0.0020
    158  N        -26.6710    6.7740   -2.1590 N.am  131  GLY131     -0.1942
    159  CA       -27.8500    6.9840   -3.0010 C.3   131  GLY131      0.2014
    160  C        -29.0460    6.1890   -2.5260 C.2   131  GLY131      0.2639
    161  O        -29.2570    6.0310   -1.3350 O.2   131  GLY131     -0.2714
    162  N        -29.7710    5.6080   -3.4760 N.am  132  ILE132     -0.1963
    163  CA       -31.0650    4.9990   -3.1930 C.3   132  ILE132      0.1727
    164  C        -30.9230    3.6600   -2.4560 C.2   132  ILE132      0.2616
    165  O        -31.7600    3.3030   -1.6340 O.2   132  ILE132     -0.2715
    166  CB       -31.8690    4.8420   -4.5050 C.3   132  ILE132      0.0290
    167  CG1      -33.1850    5.6170   -4.4220 C.3   132  ILE132      0.0022
    168  CG2      -32.0760    3.3850   -4.8880 C.3   132  ILE132      0.0023
    169  CD1      -33.1720    6.8970   -5.2340 C.3   132  ILE132      0.0001
    170  N        -29.9040    2.8820   -2.7910 N.am  133  PHE133     -0.1974
    171  CA       -29.6500    1.6580   -2.0390 C.3   133  PHE133      0.1639
    172  C        -28.4370    1.8820   -1.1700 C.2   133  PHE133      0.2290
    173  O        -27.3340    2.0830   -1.6590 O.2   133  PHE133     -0.2864
    174  CB       -29.4590    0.3960   -2.9090 C.3   133  PHE133      0.0560
    175  CG       -29.3560    0.6580   -4.3790 C.ar  133  PHE133     -0.0200
    176  CD1      -28.2960    1.3820   -4.8890 C.ar  133  PHE133     -0.0042
    177  CD2      -30.2350    0.0520   -5.2660 C.ar  133  PHE133     -0.0042
    178  CE1      -28.2320    1.6690   -6.2420 C.ar  133  PHE133     -0.0003
    179  CE2      -30.1420    0.2910   -6.6250 C.ar  133  PHE133     -0.0003
    180  CZ       -29.1520    1.1170   -7.1110 C.ar  133  PHE133     -0.0000
@<TRIPOS>BOND
     1   106   107    2
     2   106   105    1
     3   104   105    1
     4    73    72    2
     5    72    71    1
     6   105   108    1
     7   108   109    1
     8    71    70    1
     9    71    74    1
    10   109   110    1
    11    74    75    1
    12   134   135    1
    13    65    66    2
    14    65    64    1
    15   110   111   ar
    16   110   112   ar
    17    76    75    1
    18    76    77    1
    19    64    67    1
    20    64    63    1
    21   135   136    1
    22   135   138    1
    23   124   123    1
    24   137   136    2
    25    67    68    1
    26    52    51    2
    27    78    77    1
    28   133   132    2
    29   123   125    1
    30   123   120    1
    31   138   139    1
    32   132   131    1
    33    63    51   am
    34    63    69    1
    35   116   115    2
    36    51    50    1
    37    68    69    1
    38   120   119    1
    39   120   121    1
    40   131   130    1
    41   101   102    2
    42   101   100    1
    43   139   140    1
    44   141   140    2
    45    48    47    1
    46   115   119   am
    47   115   114    1
    48    46    45    2
    49   130   128   am
    50   113   114    1
    51    53    50    1
    52    53    54    1
    53   126   121   am
    54   126   127    1
    55    50    49    1
    56    45    44    1
    57   140   142   am
    58   114   117    1
    59   121   122    2
    60    47    44    1
    61   128   127    1
    62   128   129    2
    63   100    99    1
    64   100   103    1
    65   143   144    1
    66    44    43    1
    67    54    55   ar
    68    54    56   ar
    69   150   148   ar
    70    55    57   ar
    71   117   118    1
    72    56    59   ar
    73    56    58   ar
    74    43    38   am
    75    59    61   ar
    76   148   149   ar
    77   148   147    1
    78   144   145    1
    79   144   147    1
    80   146   145    2
    81    39    38    2
    82    57    58   ar
    83    38    37    1
    84    58    60   ar
    85    61    62   ar
    86    40    37    1
    87    40    41    1
    88    37    36    1
    89    60    62   ar
    90    35    34    1
    91    34    33    1
    92    41    42    1
    93    12    11    1
    94    36    42    1
    95    36    29   am
    96     9    11   ar
    97     9     7   ar
    98    30    29    2
    99    11    10   ar
   100    33    32    1
   101    32    31    1
   102     7     6   ar
   103    29    28    1
   104    10     8   ar
   105    31    28    1
   106     6     8   ar
   107     6     5    1
   108   180   179   ar
   109   180   178   ar
   110    28    27    1
   111   179   177   ar
   112     5     2    1
   113    98    96   am
   114   178   176   ar
   115     1     2    1
   116    24    23    2
   117    83    84    1
   118    83    80    1
   119    20    18   ar
   120    27    23   am
   121    79    80    1
   122    23    22    1
   123     2     3    1
   124     4     3    2
   125    96    95    1
   126    96    97    2
   127    25    22    1
   128    25    26    1
   129   177   175   ar
   130   169   167    1
   131    19    18   ar
   132    80    81    1
   133    18    17    1
   134    95    92    1
   135   176   175   ar
   136   168   166    1
   137    22    21    1
   138    26    90    1
   139   166   167    1
   140   166   163    1
   141   175   174    1
   142    17    14    1
   143    81    82    2
   144    89    90    1
   145    89    86    1
   146   162   163    1
   147   162   160   am
   148    92    91    1
   149    92    93    1
   150    13    14    1
   151   163   164    1
   152    94    93    2
   153    91    87   am
   154   159   160    1
   155   159   158    1
   156   174   171    1
   157    87    88    2
   158    87    86    1
   159    14    15    1
   160   170   164   am
   161   170   171    1
   162   154   153    2
   163    86    85    1
   164   160   161    2
   165   164   165    2
   166    15    16    2
   167   158   153   am
   168   153   152    1
   169   171   172    1
   170   173   172    2
   171   152   151    1
   172   152   155    1
   173   155   157    1
   174   155   156    1
