@<TRIPOS>MOLECULE
tmp/5gm2B02.pdb
 137 130 0 0 0
SMALL
GASTEIGER

@<TRIPOS>ATOM
      1  N        -83.3710   23.5250   72.4780 N.3    75  ASP75      -0.1239
      2  CA       -84.3570   24.6000   72.4290 C.3    75  ASP75       0.1674
      3  C        -85.7050   24.0230   72.8540 C.2    75  ASP75       0.2266
      4  O        -86.4000   23.3850   72.0580 O.2    75  ASP75      -0.2867
      5  CB       -84.4120   25.2190   71.0380 C.3    75  ASP75       0.1410
      6  CG       -85.1070   26.5660   71.0250 C.2    75  ASP75       0.3668
      7  OD1      -85.9880   26.7950   71.8810 O.co2  75  ASP75      -0.2456
      8  OD2      -84.7780   27.3990   70.1570 O.co2  75  ASP75      -0.2456
      9  N        -89.2790   23.9870   73.2890 N.3    77  GLY77      -0.1210
     10  CA       -90.3680   24.7230   72.6740 C.3    77  GLY77       0.1956
     11  C        -89.8580   25.6970   71.6340 C.2    77  GLY77       0.2612
     12  O        -90.0090   26.9120   71.7850 O.2    77  GLY77      -0.2717
     13  N        -89.2660   25.1680   70.5620 N.am   78  CYS78      -0.1956
     14  CA       -88.4480   25.9560   69.6460 C.3    78  CYS78       0.1843
     15  C        -89.2490   26.7460   68.6180 C.2    78  CYS78       0.2626
     16  O        -88.6390   27.4350   67.7930 O.2    78  CYS78      -0.2714
     17  CB       -87.4540   25.0450   68.9190 C.3    78  CYS78       0.0997
     18  SG       -88.2240   23.8320   67.8250 S.3    78  CYS78      -0.0797
     19  N        -90.5770   26.6780   68.6400 N.am   79  GLY79      -0.1940
     20  CA       -91.3530   27.4370   67.6710 C.3    79  GLY79       0.2014
     21  C        -91.0630   26.9830   66.2550 C.2    79  GLY79       0.2639
     22  O        -91.1150   25.7900   65.9400 O.2    79  GLY79      -0.2714
     23  N        -90.7340   27.9410   65.3880 N.am   80  THR80      -0.1950
     24  CA       -90.4510   27.6630   63.9860 C.3    80  THR80       0.1897
     25  C        -88.9690   27.7800   63.6400 C.2    80  THR80       0.2313
     26  O        -88.6190   27.7960   62.4540 O.2    80  THR80      -0.2863
     27  CB       -91.2830   28.5790   63.0850 C.3    80  THR80       0.1794
     28  OG1      -91.0580   29.9470   63.4450 O.3    80  THR80      -0.2208
     29  CG2      -92.7700   28.2580   63.2310 C.3    80  THR80       0.0378
     30  N        -84.7810   31.1540   66.3970 N.3    83  THR83      -0.1218
     31  CA       -83.8730   31.3030   67.5300 C.3    83  THR83       0.1862
     32  C        -82.6940   30.3450   67.4210 C.2    83  THR83       0.2287
     33  O        -81.5370   30.7380   67.6080 O.2    83  THR83      -0.2866
     34  CB       -84.6240   31.0700   68.8400 C.3    83  THR83       0.1770
     35  OG1      -85.8320   31.8390   68.8500 O.3    83  THR83      -0.2211
     36  CG2      -83.7620   31.4830   70.0090 C.3    83  THR83       0.0375
     37  N        -87.3240   21.1510   70.1150 N.3    98  VAL98      -0.1231
     38  CA       -88.5110   20.3180   70.2370 C.3    98  VAL98       0.1692
     39  C        -89.7370   21.2120   70.3470 C.2    98  VAL98       0.2592
     40  O        -89.6720   22.3240   70.8790 O.2    98  VAL98      -0.2718
     41  CB       -88.4130   19.3700   71.4520 C.3    98  VAL98       0.0266
     42  CG1      -87.3400   18.3190   71.2170 C.3    98  VAL98       0.0020
     43  CG2      -88.1150   20.1600   72.7200 C.3    98  VAL98       0.0020
     44  N        -90.8620   20.7180   69.8330 N.am   99  ALA99      -0.1966
     45  CA       -92.1260   21.4380   69.9050 C.3    99  ALA99       0.1728
     46  C        -93.2550   20.4570   69.6370 C.2    99  ALA99       0.2616
     47  O        -93.0810   19.4790   68.9070 O.2    99  ALA99      -0.2715
     48  CB       -92.1790   22.6010   68.9090 C.3    99  ALA99       0.0334
     49  N        -94.4170   20.7300   70.2390 N.am  100  VAL100     -0.1963
     50  CA       -95.5670   19.8400   70.1010 C.3   100  VAL100      0.1727
     51  C        -96.3750   20.1040   68.8430 C.2   100  VAL100      0.2616
     52  O        -97.4180   19.4670   68.6460 O.2   100  VAL100     -0.2715
     53  CB       -96.4920   19.9560   71.3290 C.3   100  VAL100      0.0290
     54  CG1      -95.7990   19.4200   72.5710 C.3   100  VAL100      0.0023
     55  CG2      -96.9220   21.4010   71.5420 C.3   100  VAL100      0.0023
     56  N        -95.9360   21.0190   67.9840 N.am  101  SER101     -0.1950
     57  CA       -96.6870   21.4060   66.7940 C.3   101  SER101      0.1924
     58  C        -96.0090   20.8430   65.5510 C.2   101  SER101      0.2314
     59  O        -94.8140   21.0740   65.3320 O.2   101  SER101     -0.2863
     60  CB       -96.8070   22.9260   66.7020 C.3   101  SER101      0.2116
     61  OG       -97.2850   23.3240   65.4290 O.3   101  SER101     -0.2180
     62  N        -95.1220   23.6200   62.9520 N.3   104  GLN104     -0.1245
     63  CA       -93.9870   24.3920   63.4500 C.3   104  GLN104      0.1566
     64  C        -92.6690   23.6740   63.1890 C.2   104  GLN104      0.2260
     65  O        -91.7060   24.2780   62.7040 O.2   104  GLN104     -0.2867
     66  CB       -94.1480   24.6640   64.9440 C.3   104  GLN104      0.0367
     67  CG       -95.1420   25.7500   65.2810 C.3   104  GLN104      0.0905
     68  CD       -94.9970   26.2290   66.7090 C.2   104  GLN104      0.2608
     69  OE1      -95.0490   25.4410   67.6520 O.2   104  GLN104     -0.2717
     70  NE2      -94.7960   27.5300   66.8740 N.am  104  GLN104     -0.0878
     71  N        -91.7120   16.6760   69.9980 N.3   126  ALA126     -0.1231
     72  CA       -91.5020   16.0120   71.2730 C.3   126  ALA126      0.1694
     73  C        -92.1440   16.8280   72.3820 C.2   126  ALA126      0.2592
     74  O        -92.2850   18.0490   72.2740 O.2   126  ALA126     -0.2718
     75  CB       -90.0120   15.8140   71.5690 C.3   126  ALA126      0.0304
     76  N        -92.5360   16.1370   73.4490 N.am  127  ASP127     -0.1960
     77  CA       -93.0650   16.7860   74.6390 C.3   127  ASP127      0.1840
     78  C        -91.9140   17.1040   75.5870 C.2   127  ASP127      0.2622
     79  O        -91.0980   16.2310   75.8960 O.2   127  ASP127     -0.2715
     80  CB       -94.0980   15.8920   75.3300 C.3   127  ASP127      0.1450
     81  CG       -94.8860   16.6200   76.4160 C.2   127  ASP127      0.3671
     82  OD1      -94.3310   17.5250   77.0760 O.co2 127  ASP127     -0.2456
     83  OD2      -96.0700   16.2810   76.6160 O.co2 127  ASP127     -0.2456
     84  N        -91.8570   18.3560   76.0490 N.am  128  ALA128     -0.1963
     85  CA       -90.8120   18.7670   76.9800 C.3   128  ALA128      0.1728
     86  C        -90.9750   18.1310   78.3520 C.2   128  ALA128      0.2616
     87  O        -89.9970   18.0470   79.1040 O.2   128  ALA128     -0.2715
     88  CB       -90.7970   20.2900   77.1190 C.3   128  ALA128      0.0334
     89  N        -92.1800   17.6870   78.6970 N.am  129  MET129     -0.1977
     90  CA       -92.4170   17.0250   79.9720 C.3   129  MET129      0.1605
     91  C        -92.0540   15.5500   79.9290 C.2   129  MET129      0.2287
     92  O        -92.1500   14.8640   80.9520 O.2   129  MET129     -0.2864
     93  CB       -93.8770   17.2270   80.3820 C.3   129  MET129      0.0413
     94  CG       -94.2400   18.7030   80.5110 C.3   129  MET129      0.0598
     95  SD       -95.9700   19.0850   80.1600 S.3   129  MET129     -0.1393
     96  CE       -96.8150   17.9760   81.2870 C.3   129  MET129      0.0692
     97  N        -87.5690   29.4020   76.0440 N.3   144  ILE144     -0.1231
     98  CA       -87.9170   30.7750   75.6920 C.3   144  ILE144      0.1692
     99  C        -89.4350   30.8670   75.5650 C.2   144  ILE144      0.2592
    100  O        -90.0020   30.5320   74.5250 O.2   144  ILE144     -0.2718
    101  CB       -87.2150   31.2100   74.4060 C.3   144  ILE144      0.0266
    102  CG1      -85.7030   31.2320   74.6230 C.3   144  ILE144      0.0019
    103  CG2      -87.7110   32.5680   73.9530 C.3   144  ILE144      0.0020
    104  CD1      -84.9060   31.4140   73.3650 C.3   144  ILE144      0.0001
    105  N        -90.0940   31.3290   76.6350 N.am  145  GLU145     -0.1966
    106  CA       -91.5280   31.6350   76.6170 C.3   145  GLU145      0.1733
    107  C        -92.3430   30.4220   76.1850 C.2   145  GLU145      0.2617
    108  O        -93.2870   30.5200   75.3920 O.2   145  GLU145     -0.2715
    109  CB       -91.8200   32.8460   75.7310 C.3   145  GLU145      0.0429
    110  CG       -90.9860   34.0440   76.0970 C.3   145  GLU145      0.1163
    111  CD       -91.1400   35.1630   75.0980 C.2   145  GLU145      0.3649
    112  OE1      -92.1330   35.1490   74.3430 O.co2 145  GLU145     -0.2457
    113  OE2      -90.2690   36.0540   75.0540 O.co2 145  GLU145     -0.2457
    114  N        -91.9620   29.2670   76.7280 N.am  146  SER146     -0.1950
    115  CA       -92.6750   28.0130   76.5160 C.3   146  SER146      0.1924
    116  C        -93.2390   27.3830   77.7780 C.2   146  SER146      0.2314
    117  O        -94.2430   26.6780   77.6820 O.2   146  SER146     -0.2863
    118  CB       -91.7590   26.9800   75.8390 C.3   146  SER146      0.2116
    119  OG       -90.6030   26.7640   76.6210 O.3   146  SER146     -0.2180
    120  N        -96.9590   26.6740   78.7750 N.3   149  HIS149     -0.1226
    121  CA       -97.7980   25.6470   78.1760 C.3   149  HIS149      0.1752
    122  C        -97.6210   24.2910   78.8410 C.2   149  HIS149      0.2595
    123  O        -98.3070   23.3350   78.4660 O.2   149  HIS149     -0.2718
    124  CB       -97.4980   25.5190   76.6790 C.3   149  HIS149      0.0759
    125  CG       -97.7060   26.7850   75.9120 C.ar  149  HIS149      0.0818
    126  ND1      -98.9270   27.4180   75.8470 N.ar  149  HIS149     -0.2268
    127  CD2      -96.8520   27.5380   75.1800 C.ar  149  HIS149      0.1154
    128  CE1      -98.8170   28.5070   75.1090 C.ar  149  HIS149      0.1986
    129  NE2      -97.5680   28.6030   74.6910 N.ar  149  HIS149     -0.2212
    130  N        -96.7260   24.1890   79.8170 N.am  150  MET150     -0.1979
    131  CA       -96.2940   22.9080   80.3480 C.3   150  MET150      0.1605
    132  C        -96.4820   22.8710   81.8560 C.2   150  MET150      0.2287
    133  O        -96.7840   23.8790   82.5010 O.2   150  MET150     -0.2864
    134  CB       -94.8200   22.6400   80.0160 C.3   150  MET150      0.0413
    135  CG       -94.3740   23.1470   78.6540 C.3   150  MET150      0.0598
    136  SD       -92.5830   23.3500   78.5800 S.3   150  MET150     -0.1393
    137  CE       -92.3480   23.6300   76.8300 C.3   150  MET150      0.0692
@<TRIPOS>BOND
     1    26    25    2
     2    65    64    2
     3    62    63    1
     4    27    29    1
     5    27    28    1
     6    27    24    1
     7    64    63    1
     8    63    66    1
     9    25    24    1
    10    24    23    1
    11    66    67    1
    12    67    68    1
    13    59    58    2
    14    23    21   am
    15    61    60    1
    16    58    57    1
    17    22    21    2
    18    21    20    1
    19    30    31    1
    20    60    57    1
    21    68    70   am
    22    68    69    2
    23    57    56    1
    24    32    31    1
    25    32    33    2
    26    31    34    1
    27    20    19    1
    28    16    15    2
    29    18    17    1
    30    56    51   am
    31    15    19   am
    32    15    14    1
    33    52    51    2
    34    34    35    1
    35    34    36    1
    36    51    50    1
    37    47    46    2
    38    48    45    1
    39    17    14    1
    40    46    45    1
    41    46    49   am
    42    14    13    1
    43    44    45    1
    44    44    39   am
    45    71    72    1
    46    50    49    1
    47    50    53    1
    48    37    38    1
    49     8     6   ar
    50    38    39    1
    51    38    41    1
    52    39    40    2
    53    13    11   am
    54     6     5    1
    55     6     7   ar
    56     5     2    1
    57    42    41    1
    58    72    75    1
    59    72    73    1
    60    53    55    1
    61    53    54    1
    62    41    43    1
    63    11    12    2
    64    11    10    1
    65     4     3    2
    66    74    73    2
    67    73    76   am
    68     2     1    1
    69     2     3    1
    70    10     9    1
    71   104   102    1
    72    76    77    1
    73   103   101    1
    74   112   111   ar
    75   101   102    1
    76   101    98    1
    77   100    99    2
    78    77    80    1
    79    77    78    1
    80   129   128   ar
    81   129   127   ar
    82   113   111   ar
    83   111   110    1
    84   128   126   ar
    85   127   125   ar
    86    80    81    1
    87   108   107    2
    88    99    98    1
    89    99   105   am
    90    78    79    2
    91    78    84   am
    92    98    97    1
    93   109   110    1
    94   109   106    1
    95   118   115    1
    96   118   119    1
    97   126   125   ar
    98   125   124    1
    99    84    85    1
   100   107   106    1
   101   107   114   am
   102    81    83   ar
   103    81    82   ar
   104   115   114    1
   105   115   116    1
   106   106   105    1
   107   124   121    1
   108   137   136    1
   109    85    88    1
   110    85    86    1
   111   117   116    2
   112   121   120    1
   113   121   122    1
   114    86    89   am
   115    86    87    2
   116   123   122    2
   117   136   135    1
   118   135   134    1
   119    89    90    1
   120   122   130   am
   121   130   131    1
   122    91    90    1
   123    91    92    2
   124    90    93    1
   125   134   131    1
   126    95    94    1
   127    95    96    1
   128   131   132    1
   129    93    94    1
   130   132   133    2
