@<TRIPOS>MOLECULE
tmp/5gm2B03.pdb
 176 166 0 0 0
SMALL
GASTEIGER

@<TRIPOS>ATOM
      1  N        -87.2870   41.3110   67.7620 N.3    54  GLN54      -0.1245
      2  CA       -87.1680   39.9130   68.1640 C.3    54  GLN54       0.1566
      3  C        -85.7460   39.4060   67.9590 C.2    54  GLN54       0.2260
      4  O        -85.1900   38.7160   68.8200 O.2    54  GLN54      -0.2867
      5  CB       -88.1590   39.0550   67.3820 C.3    54  GLN54       0.0367
      6  CG       -89.6170   39.3070   67.7150 C.3    54  GLN54       0.0905
      7  CD       -90.5500   38.3720   66.9670 C.2    54  GLN54       0.2608
      8  OE1      -90.2410   37.9110   65.8670 O.2    54  GLN54      -0.2717
      9  NE2      -91.6970   38.0840   67.5660 N.am   54  GLN54      -0.0878
     10  N        -90.0940   31.3290   76.6350 N.3   145  GLU145     -0.1245
     11  CA       -91.5280   31.6350   76.6170 C.3   145  GLU145      0.1567
     12  C        -92.3430   30.4220   76.1850 C.2   145  GLU145      0.2260
     13  O        -93.2870   30.5200   75.3920 O.2   145  GLU145     -0.2867
     14  CB       -91.8200   32.8460   75.7310 C.3   145  GLU145      0.0388
     15  CG       -90.9860   34.0440   76.0970 C.3   145  GLU145      0.1160
     16  CD       -91.1400   35.1630   75.0980 C.2   145  GLU145      0.3649
     17  OE1      -92.1330   35.1490   74.3430 O.co2 145  GLU145     -0.2457
     18  OE2      -90.2690   36.0540   75.0540 O.co2 145  GLU145     -0.2457
     19  N        -92.5880   27.5620   78.9350 N.3   147  LEU147     -0.1231
     20  CA       -92.9940   26.9250   80.1880 C.3   147  LEU147      0.1693
     21  C        -94.4560   27.1710   80.5680 C.2   147  LEU147      0.2592
     22  O        -95.0290   26.4040   81.3580 O.2   147  LEU147     -0.2718
     23  CB       -92.0850   27.4190   81.3200 C.3   147  LEU147      0.0284
     24  CG       -90.6460   26.9100   81.2970 C.3   147  LEU147      0.0019
     25  CD1      -89.8430   27.5300   82.4290 C.3   147  LEU147      0.0001
     26  CD2      -90.6420   25.3960   81.4040 C.3   147  LEU147      0.0001
     27  N        -95.0750   28.2210   80.0340 N.am  148  CYS148     -0.1956
     28  CA       -96.4730   28.4910   80.3500 C.3   148  CYS148      0.1843
     29  C        -97.4370   27.5430   79.6580 C.2   148  CYS148      0.2625
     30  O        -98.6380   27.6180   79.9220 O.2   148  CYS148     -0.2714
     31  CB       -96.8530   29.9260   79.9860 C.3   148  CYS148      0.0997
     32  SG       -96.6830   30.2980   78.2480 S.3   148  CYS148     -0.0797
     33  N        -96.9590   26.6740   78.7750 N.am  149  HIS149     -0.1973
     34  CA       -97.7980   25.6470   78.1760 C.3   149  HIS149      0.1656
     35  C        -97.6210   24.2910   78.8410 C.2   149  HIS149      0.2291
     36  O        -98.3070   23.3350   78.4660 O.2   149  HIS149     -0.2864
     37  CB       -97.4980   25.5190   76.6790 C.3   149  HIS149      0.0771
     38  CG       -97.7060   26.7850   75.9120 C.ar  149  HIS149      0.0820
     39  ND1      -98.9270   27.4180   75.8470 N.ar  149  HIS149     -0.2267
     40  CD2      -96.8520   27.5380   75.1800 C.ar  149  HIS149      0.1154
     41  CE1      -98.8170   28.5070   75.1090 C.ar  149  HIS149      0.1986
     42  NE2      -97.5680   28.6030   74.6910 N.ar  149  HIS149     -0.2212
     43  N        -94.4320   22.9830   84.8820 N.3   152  ARG152     -0.1245
     44  CA       -93.0840   23.4900   85.1020 C.3   152  ARG152      0.1563
     45  C        -92.2450   22.5070   85.9090 C.2   152  ARG152      0.2260
     46  O        -91.0450   22.3640   85.6570 O.2   152  ARG152     -0.2867
     47  CB       -93.1500   24.8580   85.7780 C.3   152  ARG152      0.0307
     48  CG       -93.6230   25.9650   84.8390 C.3   152  ARG152      0.0489
     49  CD       -94.5490   26.9550   85.5400 C.3   152  ARG152      0.2205
     50  NE       -94.8410   28.1270   84.7130 N.pl3 152  ARG152     -0.0865
     51  CZ       -95.9990   28.3500   84.0960 C.cat 152  ARG152      0.5346
     52  NH1      -96.9960   27.4830   84.2090 N.pl3 152  ARG152      0.1354
     53  NH2      -96.1630   29.4490   83.3700 N.pl3 152  ARG152      0.1354
     54  N        -87.0680   31.9610   80.4100 N.3   172  LEU172     -0.1231
     55  CA       -87.8150   33.1980   80.1910 C.3   172  LEU172      0.1693
     56  C        -89.2530   32.9310   80.6250 C.2   172  LEU172      0.2592
     57  O        -90.0520   32.3940   79.8510 O.2   172  LEU172     -0.2718
     58  CB       -87.7400   33.6410   78.7310 C.3   172  LEU172      0.0284
     59  CG       -86.5820   34.5200   78.2430 C.3   172  LEU172      0.0019
     60  CD1      -85.2350   34.0700   78.7750 C.3   172  LEU172      0.0001
     61  CD2      -86.5600   34.4950   76.7350 C.3   172  LEU172      0.0001
     62  N        -89.5840   33.3090   81.8610 N.am  173  GLU173     -0.1966
     63  CA       -90.8330   32.9110   82.4930 C.3   173  GLU173      0.1733
     64  C        -91.5430   34.1190   83.0960 C.2   173  GLU173      0.2617
     65  O        -90.9120   35.1170   83.4570 O.2   173  GLU173     -0.2715
     66  CB       -90.5670   31.8430   83.5770 C.3   173  GLU173      0.0429
     67  CG       -91.7830   31.4030   84.3770 C.3   173  GLU173      0.1163
     68  CD       -92.7760   30.6160   83.5500 C.2   173  GLU173      0.3649
     69  OE1      -92.7900   29.3740   83.6640 O.co2 173  GLU173     -0.2457
     70  OE2      -93.5420   31.2360   82.7820 O.co2 173  GLU173     -0.2457
     71  N        -92.8700   34.0220   83.1870 N.am  174  SER174     -0.1950
     72  CA       -93.7100   35.0140   83.8430 C.3   174  SER174      0.1924
     73  C        -94.0870   34.5490   85.2450 C.2   174  SER174      0.2314
     74  O        -94.0010   33.3650   85.5790 O.2   174  SER174     -0.2863
     75  CB       -94.9780   35.2870   83.0300 C.3   174  SER174      0.2116
     76  OG       -94.6780   35.9430   81.8120 O.3   174  SER174     -0.2180
     77  N       -106.1370   33.3150   80.2300 N.3   188  PHE188     -0.1241
     78  CA      -104.9160   32.5970   79.8840 C.3   188  PHE188      0.1605
     79  C       -105.2210   31.3960   78.9970 C.2   188  PHE188      0.2264
     80  O       -104.4980   31.1280   78.0310 O.2   188  PHE188     -0.2867
     81  CB      -104.1870   32.1630   81.1540 C.3   188  PHE188      0.0534
     82  CG      -103.3900   33.2580   81.7950 C.ar  188  PHE188     -0.0203
     83  CD1     -103.9930   34.1760   82.6340 C.ar  188  PHE188     -0.0042
     84  CD2     -102.0370   33.3730   81.5540 C.ar  188  PHE188     -0.0042
     85  CE1     -103.2620   35.1850   83.2190 C.ar  188  PHE188     -0.0003
     86  CE2     -101.3080   34.3740   82.1390 C.ar  188  PHE188     -0.0003
     87  CZ      -101.9180   35.2850   82.9690 C.ar  188  PHE188     -0.0000
     88  N       -104.4530   32.5540   74.8060 N.3   192  TYR192     -0.1241
     89  CA      -103.2640   31.8130   74.4100 C.3   192  TYR192      0.1605
     90  C       -103.4790   30.3300   74.6800 C.2   192  TYR192      0.2264
     91  O       -104.5410   29.7860   74.3610 O.2   192  TYR192     -0.2867
     92  CB      -102.0400   32.3410   75.1590 C.3   192  TYR192      0.0534
     93  CG      -102.1920   33.7820   75.5970 C.ar  192  TYR192     -0.0201
     94  CD1     -102.0420   34.8230   74.6910 C.ar  192  TYR192     -0.0009
     95  CD2     -102.4920   34.1020   76.9150 C.ar  192  TYR192     -0.0009
     96  CE1     -102.1850   36.1430   75.0850 C.ar  192  TYR192      0.0417
     97  CE2     -102.6360   35.4190   77.3200 C.ar  192  TYR192      0.0417
     98  CZ      -102.4820   36.4370   76.4010 C.ar  192  TYR192      0.1957
     99  OH      -102.6250   37.7490   76.8000 O.3   192  TYR192     -0.2866
    100  N       -102.9800   28.9430   78.0150 N.3   194  ALA194     -0.1245
    101  CA      -103.2720   28.6240   79.4090 C.3   194  ALA194      0.1562
    102  C       -102.0850   28.5280   80.3580 C.2   194  ALA194      0.2260
    103  O       -101.0220   29.1130   80.1250 O.2   194  ALA194     -0.2867
    104  CB      -104.0490   27.3100   79.4750 C.3   194  ALA194      0.0290
    105  N        -99.3410   31.7880   85.3940 N.3   197  PRO197     -0.2116
    106  CA       -97.9880   31.7210   85.9390 C.3   197  PRO197      0.1372
    107  C        -98.0220   31.4550   87.4320 C.2   197  PRO197      0.2244
    108  O        -98.9960   31.8110   88.1260 O.2   197  PRO197     -0.2868
    109  CB       -97.4080   33.1070   85.6220 C.3   197  PRO197      0.0268
    110  CG       -98.5760   33.9670   85.2560 C.3   197  PRO197      0.0207
    111  CD       -99.5960   33.0500   84.6870 C.3   197  PRO197      0.0892
    112  N        -92.2740   42.7230   77.5770 N.3   224  LEU224     -0.1245
    113  CA       -93.4910   41.9460   77.3760 C.3   224  LEU224      0.1561
    114  C        -94.6990   42.8570   77.1900 C.2   224  LEU224      0.2260
    115  O        -95.6100   42.5380   76.4180 O.2   224  LEU224     -0.2867
    116  CB       -93.7030   40.9880   78.5510 C.3   224  LEU224      0.0270
    117  CG       -94.9530   40.1020   78.5010 C.3   224  LEU224      0.0019
    118  CD1      -95.0210   39.3160   77.2040 C.3   224  LEU224      0.0001
    119  CD2      -94.9960   39.1600   79.6850 C.3   224  LEU224      0.0001
    120  N        -94.4860   44.3600   73.6200 N.3   227  THR227     -0.1203
    121  CA       -94.8300   43.3450   72.6300 C.3   227  THR227      0.1994
    122  C        -96.3250   43.0480   72.6390 C.2   227  THR227      0.2617
    123  O        -96.9470   42.9220   71.5770 O.2   227  THR227     -0.2717
    124  CB       -94.0290   42.0710   72.8900 C.3   227  THR227      0.1784
    125  OG1      -92.6340   42.3410   72.7090 O.3   227  THR227     -0.2211
    126  CG2      -94.4630   40.9610   71.9430 C.3   227  THR227      0.0376
    127  N        -96.9170   42.9270   73.8300 N.am  228  MET228     -0.1979
    128  CA       -98.3570   42.7150   73.9200 C.3   228  MET228      0.1605
    129  C        -99.1300   43.8990   73.3460 C.2   228  MET228      0.2287
    130  O       -100.2500   43.7270   72.8510 O.2   228  MET228     -0.2864
    131  CB       -98.7510   42.4540   75.3760 C.3   228  MET228      0.0413
    132  CG      -100.1610   41.9150   75.5650 C.3   228  MET228      0.0598
    133  SD      -100.4450   40.3210   74.7670 S.3   228  MET228     -0.1393
    134  CE       -99.6390   39.1960   75.9050 C.3   228  MET228      0.0692
    135  N        -98.8240   43.5260   69.4790 N.3   231  PHE231     -0.1241
    136  CA       -99.7960   42.5040   69.1030 C.3   231  PHE231      0.1605
    137  C       -101.2030   43.0890   69.0220 C.2   231  PHE231      0.2264
    138  O       -101.8690   43.0030   67.9830 O.2   231  PHE231     -0.2867
    139  CB       -99.7320   41.3580   70.1160 C.3   231  PHE231      0.0534
    140  CG      -100.6020   40.1860   69.7740 C.ar  231  PHE231     -0.0203
    141  CD1     -100.3240   39.4000   68.6700 C.ar  231  PHE231     -0.0042
    142  CD2     -101.6810   39.8530   70.5770 C.ar  231  PHE231     -0.0042
    143  CE1     -101.1160   38.3160   68.3590 C.ar  231  PHE231     -0.0003
    144  CE2     -102.4770   38.7690   70.2740 C.ar  231  PHE231     -0.0003
    145  CZ      -102.1940   37.9990   69.1630 C.ar  231  PHE231     -0.0000
    146  N       -106.6570   41.5000   79.2570 N.3   261  ALA261     -0.1245
    147  CA      -105.4090   40.7630   79.4370 C.3   261  ALA261      0.1562
    148  C       -104.2060   41.6930   79.5370 C.2   261  ALA261      0.2260
    149  O       -103.2540   41.3900   80.2640 O.2   261  ALA261     -0.2867
    150  CB      -105.2070   39.7680   78.2940 C.3   261  ALA261      0.0290
    151  N       -101.7150   41.8600   82.7860 N.3   265  LEU265     -0.1245
    152  CA      -100.2670   41.7960   82.6210 C.3   265  LEU265      0.1561
    153  C        -99.5760   42.9950   83.2620 C.2   265  LEU265      0.2260
    154  O        -98.5660   42.8490   83.9590 O.2   265  LEU265     -0.2867
    155  CB       -99.9450   41.7110   81.1280 C.3   265  LEU265      0.0270
    156  CG       -98.5600   42.1070   80.6310 C.3   265  LEU265      0.0019
    157  CD1      -97.5200   41.1460   81.1610 C.3   265  LEU265      0.0001
    158  CD2      -98.5420   42.1420   79.1130 C.3   265  LEU265      0.0001
    159  N        -98.5450   40.8370   86.8310 N.3   269  THR269     -0.1218
    160  CA       -97.4890   39.8880   86.4970 C.3   269  THR269      0.1862
    161  C        -96.1690   40.6010   86.2340 C.2   269  THR269      0.2287
    162  O        -96.1130   41.8180   86.0410 O.2   269  THR269     -0.2866
    163  CB       -97.8430   39.0310   85.2710 C.3   269  THR269      0.1770
    164  OG1      -97.6060   39.7800   84.0740 O.3   269  THR269     -0.2211
    165  CG2      -99.3020   38.5820   85.3070 C.3   269  THR269      0.0375
    166  N        -92.2510   39.5480   84.0790 N.3   271  PHE271     -0.1241
    167  CA       -91.6090   38.6680   83.1100 C.3   271  PHE271      0.1605
    168  C        -90.1040   38.8420   83.2330 C.2   271  PHE271      0.2264
    169  O        -89.6170   39.9760   83.2890 O.2   271  PHE271     -0.2867
    170  CB       -92.0910   39.0040   81.6940 C.3   271  PHE271      0.0534
    171  CG       -91.4250   38.2140   80.6040 C.ar  271  PHE271     -0.0203
    172  CD1      -91.7350   36.8790   80.4130 C.ar  271  PHE271     -0.0042
    173  CD2      -90.5250   38.8220   79.7400 C.ar  271  PHE271     -0.0042
    174  CE1      -91.1390   36.1540   79.4050 C.ar  271  PHE271     -0.0003
    175  CE2      -89.9240   38.1020   78.7260 C.ar  271  PHE271     -0.0003
    176  CZ       -90.2330   36.7650   78.5590 C.ar  271  PHE271     -0.0000
@<TRIPOS>BOND
     1     8     7    2
     2     7     9   am
     3     7     6    1
     4     5     6    1
     5     5     2    1
     6     1     2    1
     7     3     2    1
     8     3     4    2
     9   138   137    2
    10   143   141   ar
    11   143   145   ar
    12   141   140   ar
    13   137   136    1
    14   136   135    1
    15   136   139    1
    16   145   144   ar
    17   140   139    1
    18   140   142   ar
    19   144   142   ar
    20   123   122    2
    21   126   124    1
    22   121   122    1
    23   121   124    1
    24   121   120    1
    25   122   127   am
    26   125   124    1
    27   130   129    2
    28   129   128    1
    29   127   128    1
    30   128   131    1
    31    17    16   ar
    32    91    90    2
    33    89    90    1
    34    89    88    1
    35    89    92    1
    36    94    96   ar
    37    94    93   ar
    38    42    41   ar
    39    42    40   ar
    40   133   132    1
    41   133   134    1
    42    18    16   ar
    43    96    98   ar
    44    16    15    1
    45    41    39   ar
    46    92    93    1
    47    40    38   ar
    48   131   132    1
    49    13    12    2
    50    93    95   ar
    51    14    15    1
    52    14    11    1
    53    39    38   ar
    54    38    37    1
    55    12    11    1
    56    98    99    1
    57    98    97   ar
    58   115   114    2
    59    11    10    1
    60    37    34    1
    61    61    59    1
    62    95    97   ar
    63   114   113    1
    64   118   117    1
    65   113   112    1
    66   113   116    1
    67   100   101    1
    68    80    79    2
    69    34    33    1
    70    34    35    1
    71    59    58    1
    72    59    60    1
    73    32    31    1
    74   150   147    1
    75    36    35    2
    76   117   116    1
    77   117   119    1
    78   176   175   ar
    79   176   174   ar
    80   175   173   ar
    81    58    55    1
    82    33    29   am
    83    19    20    1
    84    79    78    1
    85   158   156    1
    86   146   147    1
    87   174   172   ar
    88   101   104    1
    89   101   102    1
    90   147   148    1
    91   148   149    2
    92    29    30    2
    93    29    28    1
    94   173   171   ar
    95    57    56    2
    96    78    77    1
    97    78    81    1
    98    31    28    1
    99    27    28    1
   100    27    21   am
   101   103   102    2
   102    20    21    1
   103    20    23    1
   104    55    54    1
   105    55    56    1
   106   172   171   ar
   107    21    22    2
   108   171   170    1
   109    56    62   am
   110   156   155    1
   111   156   157    1
   112   155   152    1
   113    81    82    1
   114    24    23    1
   115    24    26    1
   116    24    25    1
   117    84    82   ar
   118    84    86   ar
   119   170   167    1
   120    82    83   ar
   121    76    75    1
   122    62    63    1
   123    86    87   ar
   124    63    64    1
   125    63    66    1
   126   152   151    1
   127   152   153    1
   128    83    85   ar
   129    70    68   ar
   130    87    85   ar
   131    75    72    1
   132    64    71   am
   133    64    65    2
   134   167   168    1
   135   167   166    1
   136    71    72    1
   137   168   169    2
   138   153   154    2
   139    53    51    1
   140    68    69   ar
   141    68    67    1
   142    66    67    1
   143    72    73    1
   144   164   163    1
   145    51    52    1
   146    51    50    2
   147   111   110    1
   148   111   105    1
   149    50    49    1
   150    48    49    1
   151    48    47    1
   152    43    44    1
   153    44    47    1
   154    44    45    1
   155    73    74    2
   156   110   109    1
   157   163   165    1
   158   163   160    1
   159   105   106    1
   160   109   106    1
   161    46    45    2
   162   106   107    1
   163   162   161    2
   164   161   160    1
   165   160   159    1
   166   107   108    2
