@<TRIPOS>MOLECULE
tmp/5gm4B00.pdb
 220 210 0 0 0
SMALL
GASTEIGER

@<TRIPOS>ATOM
      1  N         43.1340   24.1290  -36.8670 N.3     6  TYR6       -0.1241
      2  CA        43.3630   22.7510  -37.3030 C.3     6  TYR6        0.1605
      3  C         44.8050   22.3130  -37.1360 C.2     6  TYR6        0.2264
      4  O         45.2760   21.4900  -37.8970 O.2     6  TYR6       -0.2867
      5  CB        42.8790   22.5330  -38.7410 C.3     6  TYR6        0.0534
      6  CG        41.4210   22.8460  -38.9350 C.ar    6  TYR6       -0.0201
      7  CD1       40.4490   22.1480  -38.2260 C.ar    6  TYR6       -0.0009
      8  CD2       41.0180   23.9190  -39.7120 C.ar    6  TYR6       -0.0009
      9  CE1       39.1060   22.4350  -38.3950 C.ar    6  TYR6        0.0417
     10  CE2       39.6780   24.2420  -39.8440 C.ar    6  TYR6        0.0417
     11  CZ        38.7350   23.5170  -39.1500 C.ar    6  TYR6        0.1957
     12  OH        37.4130   23.8340  -39.2630 O.3     6  TYR6       -0.2866
     13  N         44.4150   16.3760  -33.4850 N.3    17  ASN17      -0.1240
     14  CA        43.9580   17.5800  -34.1480 C.3    17  ASN17       0.1653
     15  C         43.2290   18.4370  -33.1290 C.2    17  ASN17       0.2266
     16  O         42.3590   17.9330  -32.4320 O.2    17  ASN17      -0.2867
     17  CB        43.0210   17.2020  -35.3010 C.3    17  ASN17       0.1155
     18  CG        42.7610   18.3550  -36.2550 C.2    17  ASN17       0.2627
     19  OD1       42.8720   19.5340  -35.8720 O.2    17  ASN17      -0.2716
     20  ND2       42.4990   18.0220  -37.5360 N.am   17  ASN17      -0.0877
     21  N         41.2130   20.8030  -33.9380 N.3    19  ASN19      -0.1240
     22  CA        39.8990   20.8000  -34.5570 C.3    19  ASN19       0.1653
     23  C         38.8870   21.7280  -33.9050 C.2    19  ASN19       0.2266
     24  O         37.7830   21.2960  -33.5330 O.2    19  ASN19      -0.2867
     25  CB        39.3720   19.3680  -34.5480 C.3    19  ASN19       0.1155
     26  CG        38.1770   19.1730  -35.4400 C.2    19  ASN19       0.2627
     27  OD1       37.9600   19.9040  -36.4220 O.2    19  ASN19      -0.2716
     28  ND2       37.3560   18.2040  -35.0810 N.am   19  ASN19      -0.0877
     29  N         36.5680   23.4670  -35.0030 N.3    21  TRP21      -0.1241
     30  CA        35.7560   23.6730  -36.1680 C.3    21  TRP21       0.1605
     31  C         34.6150   24.6520  -35.8940 C.2    21  TRP21       0.2264
     32  O         34.1160   25.2750  -36.8140 O.2    21  TRP21      -0.2867
     33  CB        35.2070   22.3110  -36.6470 C.3    21  TRP21       0.0550
     34  CG        34.2110   21.6480  -35.7260 C.ar   21  TRP21       0.0003
     35  CD1       34.4770   20.6780  -34.7790 C.ar   21  TRP21       0.0946
     36  CD2       32.7990   21.8830  -35.6620 C.ar   21  TRP21       0.0152
     37  NE1       33.3120   20.2390  -34.2250 N.ar   21  TRP21      -0.2442
     38  CE2       32.2720   20.9900  -34.7130 C.ar   21  TRP21       0.0810
     39  CE3       31.9220   22.7460  -36.3370 C.ar   21  TRP21       0.0012
     40  CZ2       30.9010   20.9250  -34.4200 C.ar   21  TRP21       0.0191
     41  CZ3       30.5600   22.6570  -36.0720 C.ar   21  TRP21       0.0001
     42  CH2       30.0660   21.7680  -35.1000 C.ar   21  TRP21       0.0015
     43  N         24.2700   26.4450  -27.5040 N.3    55  ASN55      -0.1240
     44  CA        23.7950   25.1880  -28.0780 C.3    55  ASN55       0.1653
     45  C         24.5580   24.7170  -29.2900 C.2    55  ASN55       0.2266
     46  O         24.1200   23.7640  -29.9700 O.2    55  ASN55      -0.2867
     47  CB        22.3140   25.3120  -28.3830 C.3    55  ASN55       0.1155
     48  CG        21.5200   25.6090  -27.1220 C.2    55  ASN55       0.2627
     49  OD1       21.5560   24.8320  -26.1680 O.2    55  ASN55      -0.2716
     50  ND2       20.8930   26.7580  -27.0760 N.am   55  ASN55      -0.0877
     51  N         28.3860   23.3260  -30.6190 N.3    57  VAL57      -0.1245
     52  CA        29.7010   22.7740  -30.3630 C.3    57  VAL57       0.1561
     53  C         30.7980   23.6920  -30.8780 C.2    57  VAL57       0.2260
     54  O         30.7380   24.2370  -31.9840 O.2    57  VAL57      -0.2867
     55  CB        29.8330   21.3600  -30.9600 C.3    57  VAL57       0.0252
     56  CG1       31.2390   20.8320  -30.7840 C.3    57  VAL57       0.0019
     57  CG2       28.8660   20.3930  -30.2880 C.3    57  VAL57       0.0019
     58  N         36.0750   19.7390  -31.5940 N.3    60  TYR60      -0.1241
     59  CA        36.1610   18.3270  -31.3030 C.3    60  TYR60       0.1605
     60  C         37.6460   17.9780  -31.4230 C.2    60  TYR60       0.2264
     61  O         38.0520   17.2730  -32.3320 O.2    60  TYR60      -0.2867
     62  CB        35.2460   17.5040  -32.2140 C.3    60  TYR60       0.0534
     63  CG        35.3100   15.9990  -31.9290 C.ar   60  TYR60      -0.0201
     64  CD1       34.9210   15.4780  -30.7000 C.ar   60  TYR60      -0.0009
     65  CD2       35.8030   15.1340  -32.8640 C.ar   60  TYR60      -0.0009
     66  CE1       35.0110   14.1250  -30.4500 C.ar   60  TYR60       0.0417
     67  CE2       35.8370   13.7680  -32.6540 C.ar   60  TYR60       0.0417
     68  CZ        35.4680   13.2680  -31.4370 C.ar   60  TYR60       0.1957
     69  OH        35.5710   11.9250  -31.2070 O.3    60  TYR60      -0.2866
     70  N         30.7840   16.8650  -23.9300 N.3    94  ASP94      -0.1239
     71  CA        30.7940   15.4180  -23.9130 C.3    94  ASP94       0.1674
     72  C         32.1610   14.8480  -24.2740 C.2    94  ASP94       0.2266
     73  O         33.0330   15.5700  -24.7700 O.2    94  ASP94      -0.2867
     74  CB        29.6410   14.8790  -24.7620 C.3    94  ASP94       0.1410
     75  CG        29.6950   15.3030  -26.1900 C.2    94  ASP94       0.3668
     76  OD1       30.3400   14.6110  -26.9980 O.co2  94  ASP94      -0.2456
     77  OD2       28.9320   16.2330  -26.5310 O.co2  94  ASP94      -0.2456
     78  N         33.9360    9.1550  -32.2500 N.3    98  ASP98      -0.1239
     79  CA        33.2540    9.6640  -33.4440 C.3    98  ASP98       0.1674
     80  C         33.7710    8.9240  -34.6610 C.2    98  ASP98       0.2266
     81  O         34.9690    8.8430  -34.8940 O.2    98  ASP98      -0.2867
     82  CB        33.4590   11.1600  -33.6050 C.3    98  ASP98       0.1410
     83  CG        32.3950   11.7950  -34.4690 C.2    98  ASP98       0.3668
     84  OD1       31.2930   11.2020  -34.5930 O.co2  98  ASP98      -0.2456
     85  OD2       32.6670   12.8740  -35.0220 O.co2  98  ASP98      -0.2456
     86  N         32.7120    8.0450  -38.8160 N.3   100  PHE100     -0.1241
     87  CA        31.8980    8.2810  -40.0020 C.3   100  PHE100      0.1605
     88  C         31.9700    7.1350  -40.9770 C.2   100  PHE100      0.2264
     89  O         33.0060    6.4680  -41.0910 O.2   100  PHE100     -0.2867
     90  CB        32.3660    9.5480  -40.6990 C.3   100  PHE100      0.0534
     91  CG        32.1790   10.7830  -39.8770 C.ar  100  PHE100     -0.0203
     92  CD1       30.9120   11.2000  -39.5410 C.ar  100  PHE100     -0.0042
     93  CD2       33.2660   11.5740  -39.4980 C.ar  100  PHE100     -0.0042
     94  CE1       30.7320   12.3360  -38.7700 C.ar  100  PHE100     -0.0003
     95  CE2       33.0910   12.7260  -38.7460 C.ar  100  PHE100     -0.0003
     96  CZ        31.8250   13.0930  -38.3690 C.ar  100  PHE100     -0.0000
     97  N         35.4560   14.2530  -42.5500 N.3   110  TRP110     -0.1227
     98  CA        34.8690   15.0390  -41.4620 C.3   110  TRP110      0.1737
     99  C         33.3370   15.0080  -41.4080 C.2   110  TRP110      0.2596
    100  O         32.7180   15.6400  -40.5500 O.2   110  TRP110     -0.2718
    101  CB        35.3920   16.4780  -41.5170 C.3   110  TRP110      0.0564
    102  CG        35.1980   17.1870  -42.8110 C.ar  110  TRP110      0.0003
    103  CD1       36.1370   17.3620  -43.7850 C.ar  110  TRP110      0.0946
    104  CD2       34.0080   17.8450  -43.2720 C.ar  110  TRP110      0.0152
    105  NE1       35.6050   18.0980  -44.8260 N.ar  110  TRP110     -0.2442
    106  CE2       34.2920   18.3710  -44.5520 C.ar  110  TRP110      0.0810
    107  CE3       32.7370   18.0380  -42.7350 C.ar  110  TRP110      0.0012
    108  CZ2       33.3650   19.1220  -45.2770 C.ar  110  TRP110      0.0191
    109  CZ3       31.7990   18.7470  -43.4800 C.ar  110  TRP110      0.0001
    110  CH2       32.1130   19.2510  -44.7450 C.ar  110  TRP110      0.0015
    111  N         32.7320   14.1490  -42.2150 N.am  111  SER111     -0.1952
    112  CA        31.3110   13.9010  -42.1260 C.3   111  SER111      0.1924
    113  C         31.0550   12.5880  -42.8540 C.2   111  SER111      0.2314
    114  O         31.9590   12.0170  -43.4380 O.2   111  SER111     -0.2863
    115  CB        30.5160   15.0520  -42.7860 C.3   111  SER111      0.2116
    116  OG        30.8400   15.1070  -44.1570 O.3   111  SER111     -0.2180
    117  N         26.9820    8.5090  -39.0880 N.3   115  GLU115     -0.1245
    118  CA        27.9240    8.7280  -37.9930 C.3   115  GLU115      0.1567
    119  C         27.5600    7.7900  -36.8730 C.2   115  GLU115      0.2260
    120  O         26.3930    7.6640  -36.5010 O.2   115  GLU115     -0.2867
    121  CB        27.8370   10.1870  -37.5700 C.3   115  GLU115      0.0388
    122  CG        28.6190   10.5560  -36.3090 C.3   115  GLU115      0.1160
    123  CD        28.5050   12.0430  -35.9610 C.2   115  GLU115      0.3649
    124  OE1       27.4840   12.7000  -36.2600 O.co2 115  GLU115     -0.2457
    125  OE2       29.4970   12.6090  -35.4690 O.co2 115  GLU115     -0.2457
    126  N         28.5120    7.5020  -32.8340 N.3   117  MET117     -0.1245
    127  CA        29.2240    8.0780  -31.6970 C.3   117  MET117      0.1570
    128  C         29.0570    7.2160  -30.4860 C.2   117  MET117      0.2261
    129  O         28.0390    6.5320  -30.3500 O.2   117  MET117     -0.2867
    130  CB        28.7430    9.4720  -31.3570 C.3   117  MET117      0.0387
    131  CG        28.7350   10.4300  -32.5120 C.3   117  MET117      0.0595
    132  SD        28.4640   12.1260  -31.9460 S.3   117  MET117     -0.1393
    133  CE        30.1470   12.5590  -31.5140 C.3   117  MET117      0.0692
    134  N         29.4800    7.8340  -26.4910 N.3   119  TRP119     -0.1241
    135  CA        29.7000    8.9000  -25.5300 C.3   119  TRP119      0.1605
    136  C         30.0500    8.2810  -24.2210 C.2   119  TRP119      0.2264
    137  O         29.1770    7.6810  -23.5850 O.2   119  TRP119     -0.2867
    138  CB        28.4230    9.7450  -25.3100 C.3   119  TRP119      0.0550
    139  CG        28.0910   10.6910  -26.4140 C.ar  119  TRP119      0.0003
    140  CD1       28.2980   10.5060  -27.7500 C.ar  119  TRP119      0.0946
    141  CD2       27.3890   11.9480  -26.2910 C.ar  119  TRP119      0.0152
    142  NE1       27.8170   11.5810  -28.4620 N.ar  119  TRP119     -0.2442
    143  CE2       27.2800   12.4910  -27.5880 C.ar  119  TRP119      0.0810
    144  CE3       26.8510   12.6520  -25.2170 C.ar  119  TRP119      0.0012
    145  CZ2       26.7140   13.7330  -27.8340 C.ar  119  TRP119      0.0191
    146  CZ3       26.2720   13.8960  -25.4620 C.ar  119  TRP119      0.0001
    147  CH2       26.2110   14.4190  -26.7610 C.ar  119  TRP119      0.0015
    148  N         22.9700   16.8650  -25.1370 N.3   127  GLN127     -0.1231
    149  CA        22.4320   15.6110  -25.6600 C.3   127  GLN127      0.1683
    150  C         22.9590   15.4200  -27.0610 C.2   127  GLN127      0.2434
    151  O         23.2270   16.3720  -27.7750 O.2   127  GLN127     -0.2733
    152  CB        20.8940   15.5390  -25.6460 C.3   127  GLN127      0.0380
    153  CG        20.1290   16.8070  -25.3210 C.3   127  GLN127      0.0905
    154  CD        18.6060   16.6430  -25.3510 C.2   127  GLN127      0.2608
    155  OE1       18.0130   16.4050  -26.4100 O.2   127  GLN127     -0.2717
    156  NE2       17.9700   16.7940  -24.2030 N.am  127  GLN127     -0.0878
    157  N         23.0180   14.1700  -27.5000 N.am  128  PRO128     -0.2718
    158  CA        23.2550   13.8550  -28.9070 C.3   128  PRO128      0.1535
    159  C         22.2210   14.4810  -29.8440 C.2   128  PRO128      0.2598
    160  O         21.1470   14.9320  -29.4020 O.2   128  PRO128     -0.2715
    161  CB        23.0860   12.3400  -28.9320 C.3   128  PRO128      0.0310
    162  CG        23.3310   11.8820  -27.5560 C.3   128  PRO128      0.0237
    163  CD        22.7690   12.9700  -26.6880 C.3   128  PRO128      0.0939
    164  N         22.5430   14.5550  -31.1260 N.am  129  ILE129     -0.1978
    165  CA        21.5390   14.9370  -32.1240 C.3   129  ILE129      0.1596
    166  C         20.3520   13.9560  -32.1150 C.2   129  ILE129      0.2287
    167  O         20.5230   12.7540  -31.8840 O.2   129  ILE129     -0.2864
    168  CB        22.1750   15.1630  -33.5030 C.3   129  ILE129      0.0276
    169  CG1       21.1560   15.8170  -34.4310 C.3   129  ILE129      0.0022
    170  CG2       22.7390   13.8600  -34.0630 C.3   129  ILE129      0.0022
    171  CD1       21.6910   16.1640  -35.7900 C.3   129  ILE129      0.0001
    172  N         20.5450   15.3640  -39.8270 N.3   150  ASN150     -0.1240
    173  CA        20.8460   16.7740  -40.0340 C.3   150  ASN150      0.1653
    174  C         21.3870   16.8330  -41.4250 C.2   150  ASN150      0.2266
    175  O         22.5480   16.3750  -41.6580 O.2   150  ASN150     -0.2867
    176  CB        21.9700   17.2360  -39.0950 C.3   150  ASN150      0.1155
    177  CG        22.4030   18.6870  -39.3290 C.2   150  ASN150      0.2627
    178  OD1       21.8000   19.4150  -40.1190 O.2   150  ASN150     -0.2716
    179  ND2       23.4010   19.1360  -38.5620 N.am  150  ASN150     -0.0877
    180  N         23.5410   13.7370  -43.0490 N.3   153  GLN153     -0.1245
    181  CA        24.2450   12.8770  -42.1040 C.3   153  GLN153      0.1566
    182  C         23.3100   12.3280  -41.0490 C.2   153  GLN153      0.2260
    183  O         22.7110   13.0870  -40.2750 O.2   153  GLN153     -0.2867
    184  CB        25.3990   13.6560  -41.4900 C.3   153  GLN153      0.0367
    185  CG        26.1880   12.8590  -40.4690 C.3   153  GLN153      0.0905
    186  CD        27.2910   13.7100  -39.8920 C.2   153  GLN153      0.2608
    187  OE1       27.0930   14.3760  -38.8750 O.2   153  GLN153     -0.2717
    188  NE2       28.3540   13.8700  -40.6480 N.am  153  GLN153     -0.0878
    189  N         22.9420   10.1720  -37.6370 N.3   155  THR155     -0.1218
    190  CA        23.8400    9.8940  -36.5110 C.3   155  THR155      0.1862
    191  C         23.2050    9.0170  -35.4860 C.2   155  THR155      0.2287
    192  O         22.1980    9.3980  -34.9010 O.2   155  THR155     -0.2866
    193  CB        24.2550   11.2100  -35.8460 C.3   155  THR155      0.1770
    194  OG1       24.8760   12.0410  -36.8130 O.3   155  THR155     -0.2211
    195  CG2       25.1730   10.9700  -34.6610 C.3   155  THR155      0.0375
    196  N         37.7680    8.3630  -34.4920 N.3   195  GLN195     -0.1245
    197  CA        38.3660    9.3800  -33.6260 C.3   195  GLN195      0.1566
    198  C         37.8570    9.2550  -32.2010 C.2   195  GLN195      0.2260
    199  O         36.7950    8.6880  -31.9540 O.2   195  GLN195     -0.2867
    200  CB        38.0010   10.7760  -34.1370 C.3   195  GLN195      0.0367
    201  CG        38.5740   11.0530  -35.5120 C.3   195  GLN195      0.0905
    202  CD        38.1470   12.3800  -36.0880 C.2   195  GLN195      0.2608
    203  OE1       37.1040   12.9380  -35.7450 O.2   195  GLN195     -0.2717
    204  NE2       38.9830   12.9050  -36.9700 N.am  195  GLN195     -0.0878
    205  N         33.7970   17.1320  -27.1900 N.3   199  ALA199     -0.1245
    206  CA        33.0600   18.2600  -27.7630 C.3   199  ALA199      0.1562
    207  C         32.5070   19.2080  -26.6810 C.2   199  ALA199      0.2260
    208  O         31.5000   18.9260  -26.0320 O.2   199  ALA199     -0.2867
    209  CB        31.9540   17.7290  -28.6630 C.3   199  ALA199      0.0290
    210  N         30.6460   22.7010  -25.3920 N.3   201  PHE201     -0.1241
    211  CA        29.6840   23.7190  -25.7200 C.3   201  PHE201      0.1605
    212  C         30.0860   24.9890  -24.9410 C.2   201  PHE201      0.2264
    213  O         30.4050   26.0330  -25.5660 O.2   201  PHE201     -0.2867
    214  CB        28.2750   23.2880  -25.3460 C.3   201  PHE201      0.0534
    215  CG        27.7400   22.1620  -26.1570 C.ar  201  PHE201     -0.0203
    216  CD1       28.1290   20.8480  -25.9000 C.ar  201  PHE201     -0.0042
    217  CD2       26.7750   22.3950  -27.1220 C.ar  201  PHE201     -0.0042
    218  CE1       27.5980   19.8050  -26.6260 C.ar  201  PHE201     -0.0003
    219  CE2       26.2390   21.3360  -27.8500 C.ar  201  PHE201     -0.0003
    220  CZ        26.5940   20.0460  -27.5400 C.ar  201  PHE201     -0.0000
@<TRIPOS>BOND
     1   108   110   ar
     2   108   106   ar
     3   105   106   ar
     4   105   103   ar
     5   110   109   ar
     6   106   104   ar
     7   116   115    1
     8   103   102   ar
     9   109   107   ar
    10   114   113    2
    11   104   102   ar
    12   104   107   ar
    13   180   181    1
    14   113   112    1
    15   102   101    1
    16   115   112    1
    17    97    98    1
    18   111   112    1
    19   111    99   am
    20   181   184    1
    21   181   182    1
    22   175   174    2
    23   101    98    1
    24   184   185    1
    25    98    99    1
    26   174   173    1
    27    99   100    2
    28    89    88    2
    29   182   183    2
    30    88    87    1
    31    90    87    1
    32    90    91    1
    33   188   186   am
    34   185   186    1
    35   178   177    2
    36   173   172    1
    37   173   176    1
    38    87    86    1
    39   186   187    2
    40    91    92   ar
    41    91    93   ar
    42    10     8   ar
    43    10    11   ar
    44     8     6   ar
    45    92    94   ar
    46    93    95   ar
    47   177   176    1
    48   177   179   am
    49    12    11    1
    50    11     9   ar
    51   117   118    1
    52     6     5    1
    53     6     7   ar
    54    94    96   ar
    55    95    96   ar
    56     5     2    1
    57     9     7   ar
    58   118   121    1
    59   118   119    1
    60     4     3    2
    61   189   190    1
    62   121   122    1
    63    20    18   am
    64     2     3    1
    65     2     1    1
    66   204   202   am
    67   119   120    2
    68    32    31    2
    69   194   193    1
    70    33    30    1
    71    33    34    1
    72   190   193    1
    73   190   191    1
    74    27    26    2
    75    39    41   ar
    76    39    36   ar
    77   122   123    1
    78   124   123   ar
    79    18    19    2
    80    18    17    1
    81    30    31    1
    82    30    29    1
    83   202   203    2
    84   202   201    1
    85    41    42   ar
    86   123   125   ar
    87   193   195    1
    88   171   169    1
    89    34    36   ar
    90    34    35   ar
    91    36    38   ar
    92   201   200    1
    93   191   192    2
    94    26    28   am
    95    26    25    1
    96    17    14    1
    97    42    40   ar
    98    85    83   ar
    99    81    80    2
   100    35    37   ar
   101    38    40   ar
   102    38    37   ar
   103    80    79    1
   104    84    83   ar
   105    22    25    1
   106    22    21    1
   107    22    23    1
   108   196   197    1
   109    83    82    1
   110   169   168    1
   111    14    13    1
   112    14    15    1
   113   200   197    1
   114   170   168    1
   115    23    24    2
   116   197   198    1
   117    82    79    1
   118   168   165    1
   119    79    78    1
   120    15    16    2
   121    65    67   ar
   122    65    63   ar
   123   126   127    1
   124    67    68   ar
   125   131   132    1
   126   131   130    1
   127    61    60    2
   128    62    63    1
   129    62    59    1
   130   198   199    2
   131   165   166    1
   132   165   164    1
   133   166   167    2
   134    54    53    2
   135   132   133    1
   136    63    64   ar
   137   127   130    1
   138   127   128    1
   139    58    59    1
   140    68    69    1
   141    68    66   ar
   142    60    59    1
   143   164   159   am
   144    55    56    1
   145    55    52    1
   146    55    57    1
   147    53    52    1
   148    64    66   ar
   149    51    52    1
   150   128   129    2
   151    46    45    2
   152   159   160    2
   153   159   158    1
   154    45    44    1
   155   161   158    1
   156   161   162    1
   157   158   157    1
   158   209   206    1
   159   142   140   ar
   160   142   143   ar
   161    47    44    1
   162    47    48    1
   163    44    43    1
   164   219   220   ar
   165   219   217   ar
   166   145   143   ar
   167   145   147   ar
   168   151   150    2
   169   206   205    1
   170   206   207    1
   171   140   139   ar
   172   143   141   ar
   173   162   163    1
   174   220   218   ar
   175   157   150   am
   176   157   163    1
   177    48    50   am
   178    48    49    2
   179   217   215   ar
   180   150   149    1
   181    76    75   ar
   182   147   146   ar
   183   207   208    2
   184   218   216   ar
   185    77    75   ar
   186   134   135    1
   187   139   141   ar
   188   139   138    1
   189   155   154    2
   190   141   144   ar
   191    75    74    1
   192   215   216   ar
   193   215   214    1
   194   211   210    1
   195   211   214    1
   196   211   212    1
   197   149   152    1
   198   149   148    1
   199   152   153    1
   200   213   212    2
   201   135   138    1
   202   135   136    1
   203   146   144   ar
   204   154   153    1
   205   154   156   am
   206    73    72    2
   207    74    71    1
   208    72    71    1
   209   136   137    2
   210    70    71    1
