@<TRIPOS>MOLECULE
tmp/5gm5G00.pdb
 161 154 0 0 0
SMALL
GASTEIGER

@<TRIPOS>ATOM
      1  N         25.7370  -41.6540  -48.3780 N.3     7  TYR7       -0.1241
      2  CA        25.4100  -40.2910  -47.9280 C.3     7  TYR7        0.1605
      3  C         24.9380  -40.2460  -46.4710 C.2     7  TYR7        0.2264
      4  O         24.1520  -39.3760  -46.0810 O.2     7  TYR7       -0.2867
      5  CB        24.3800  -39.6690  -48.8780 C.3     7  TYR7        0.0534
      6  CG        24.8990  -39.4230  -50.2790 C.ar    7  TYR7       -0.0201
      7  CD1       26.0280  -38.6370  -50.5000 C.ar    7  TYR7       -0.0009
      8  CD2       24.2630  -39.9680  -51.3930 C.ar    7  TYR7       -0.0009
      9  CE1       26.5100  -38.4340  -51.7750 C.ar    7  TYR7        0.0417
     10  CE2       24.7410  -39.7770  -52.6660 C.ar    7  TYR7        0.0417
     11  CZ        25.8690  -38.9990  -52.8560 C.ar    7  TYR7        0.1957
     12  OH        26.3720  -38.8290  -54.1220 O.3     7  TYR7       -0.2866
     13  N         29.6700  -38.9220  -47.7150 N.3    20  ASN20      -0.1240
     14  CA        29.7380  -38.3390  -49.0490 C.3    20  ASN20       0.1653
     15  C         30.6050  -39.1600  -50.0190 C.2    20  ASN20       0.2266
     16  O         31.5290  -38.6410  -50.6540 O.2    20  ASN20      -0.2867
     17  CB        30.3020  -36.9170  -48.9570 C.3    20  ASN20       0.1155
     18  CG        30.1750  -36.1200  -50.2340 C.2    20  ASN20       0.2627
     19  OD1       29.2400  -36.2610  -51.0390 O.2    20  ASN20      -0.2716
     20  ND2       31.0870  -35.1650  -50.3730 N.am   20  ASN20      -0.0877
     21  N         30.5590  -39.7790  -53.0460 N.3    22  TRP22      -0.1241
     22  CA        29.9170  -39.3480  -54.2690 C.3    22  TRP22       0.1605
     23  C         30.4740  -40.0480  -55.5110 C.2    22  TRP22       0.2264
     24  O         29.7460  -40.2210  -56.4860 O.2    22  TRP22      -0.2867
     25  CB        29.9690  -37.8200  -54.4290 C.3    22  TRP22       0.0550
     26  CG        31.3430  -37.2470  -54.6200 C.ar   22  TRP22       0.0003
     27  CD1       32.1770  -36.7800  -53.6420 C.ar   22  TRP22       0.0946
     28  CD2       32.0540  -37.0860  -55.8630 C.ar   22  TRP22       0.0152
     29  NE1       33.3080  -36.2320  -54.2040 N.ar   22  TRP22      -0.2442
     30  CE2       33.2720  -36.4370  -55.5610 C.ar   22  TRP22       0.0810
     31  CE3       31.7350  -37.3310  -57.2010 C.ar   22  TRP22       0.0012
     32  CZ2       34.1870  -36.0640  -56.5490 C.ar   22  TRP22       0.0191
     33  CZ3       32.6370  -36.9340  -58.2000 C.ar   22  TRP22       0.0001
     34  CH2       33.8680  -36.3520  -57.8630 C.ar   22  TRP22       0.0015
     35  N         38.2990  -38.9850  -58.1300 N.3    58  VAL58      -0.1245
     36  CA        37.9710  -38.9240  -56.6950 C.3    58  VAL58       0.1561
     37  C         36.8080  -39.8680  -56.3630 C.2    58  VAL58       0.2260
     38  O         35.7840  -39.8560  -57.0630 O.2    58  VAL58      -0.2867
     39  CB        37.6400  -37.4890  -56.2710 C.3    58  VAL58       0.0252
     40  CG1       37.1100  -37.4710  -54.8480 C.3    58  VAL58       0.0019
     41  CG2       38.9120  -36.6560  -56.3610 C.3    58  VAL58       0.0019
     42  N         34.2830  -37.4160  -50.7380 N.3    61  TYR61      -0.1241
     43  CA        34.7890  -36.2770  -49.9620 C.3    61  TYR61       0.1605
     44  C         34.0640  -36.2450  -48.6290 C.2    61  TYR61       0.2264
     45  O         33.1770  -35.3870  -48.3980 O.2    61  TYR61      -0.2867
     46  CB        34.6500  -34.9890  -50.7600 C.3    61  TYR61       0.0534
     47  CG        35.1160  -33.7250  -50.0410 C.ar   61  TYR61      -0.0201
     48  CD1       36.4310  -33.5550  -49.6200 C.ar   61  TYR61      -0.0009
     49  CD2       34.2130  -32.7350  -49.7400 C.ar   61  TYR61      -0.0009
     50  CE1       36.8290  -32.4010  -48.9630 C.ar   61  TYR61       0.0417
     51  CE2       34.6000  -31.5630  -49.1110 C.ar   61  TYR61       0.0417
     52  CZ        35.9100  -31.3820  -48.7470 C.ar   61  TYR61       0.1957
     53  OH        36.2380  -30.2380  -48.0150 O.3    61  TYR61      -0.2866
     54  N         36.7980  -26.9710  -48.8930 N.3    99  ASP99      -0.1239
     55  CA        35.9860  -26.8530  -50.0990 C.3    99  ASP99       0.1674
     56  C         34.8510  -25.8750  -49.8450 C.2    99  ASP99       0.2266
     57  O         34.0800  -26.0270  -48.9100 O.2    99  ASP99      -0.2867
     58  CB        35.3870  -28.2120  -50.5110 C.3    99  ASP99       0.1410
     59  CG        34.9840  -28.2800  -51.9770 C.2    99  ASP99       0.3668
     60  OD1       35.5120  -27.5040  -52.8260 O.co2  99  ASP99      -0.2456
     61  OD2       34.2930  -29.2740  -52.3080 O.co2  99  ASP99      -0.2456
     62  N         31.8220  -23.4460  -52.0630 N.3   101  PHE101     -0.1241
     63  CA        31.1460  -23.1450  -53.3160 C.3   101  PHE101      0.1605
     64  C         30.5470  -21.7670  -53.2150 C.2   101  PHE101      0.2264
     65  O         30.0710  -21.3370  -52.1430 O.2   101  PHE101     -0.2867
     66  CB        30.0630  -24.1480  -53.6730 C.3   101  PHE101      0.0534
     67  CG        30.5780  -25.5350  -53.9300 C.ar  101  PHE101     -0.0203
     68  CD1       31.4260  -25.7980  -54.9950 C.ar  101  PHE101     -0.0042
     69  CD2       30.1590  -26.5950  -53.1360 C.ar  101  PHE101     -0.0042
     70  CE1       31.9220  -27.0900  -55.2110 C.ar  101  PHE101     -0.0003
     71  CE2       30.5910  -27.8830  -53.3940 C.ar  101  PHE101     -0.0003
     72  CZ        31.5060  -28.1220  -54.3930 C.ar  101  PHE101     -0.0000
     73  N         26.0010  -28.7500  -53.3900 N.3   111  TRP111     -0.1227
     74  CA        27.0160  -29.7160  -53.8030 C.3   111  TRP111      0.1737
     75  C         27.7840  -29.2850  -55.0560 C.2   111  TRP111      0.2596
     76  O         28.6030  -30.0320  -55.5900 O.2   111  TRP111     -0.2718
     77  CB        26.3660  -31.0920  -54.0330 C.3   111  TRP111      0.0564
     78  CG        25.1660  -31.0940  -54.9340 C.ar  111  TRP111      0.0003
     79  CD1       23.8540  -31.0870  -54.5300 C.ar  111  TRP111      0.0946
     80  CD2       25.1410  -31.2500  -56.3620 C.ar  111  TRP111      0.0152
     81  NE1       23.0170  -31.1530  -55.6200 N.ar  111  TRP111     -0.2442
     82  CE2       23.7770  -31.2910  -56.7560 C.ar  111  TRP111      0.0810
     83  CE3       26.1320  -31.3410  -57.3510 C.ar  111  TRP111      0.0012
     84  CZ2       23.3870  -31.4000  -58.1000 C.ar  111  TRP111      0.0191
     85  CZ3       25.7480  -31.4590  -58.6870 C.ar  111  TRP111      0.0001
     86  CH2       24.3880  -31.4570  -59.0530 C.ar  111  TRP111      0.0015
     87  N         27.5570  -28.0630  -55.5110 N.am  112  SER112     -0.1952
     88  CA        28.3400  -27.4820  -56.5820 C.3   112  SER112      0.1924
     89  C         28.2350  -25.9670  -56.5270 C.2   112  SER112      0.2314
     90  O         27.3890  -25.4470  -55.8200 O.2   112  SER112     -0.2863
     91  CB        27.8340  -27.9800  -57.9560 C.3   112  SER112      0.2116
     92  OG        26.5130  -27.5200  -58.2330 O.3   112  SER112     -0.2180
     93  N         34.2960  -22.5120  -57.2180 N.3   116  GLU116     -0.1245
     94  CA        34.6690  -23.3600  -56.1030 C.3   116  GLU116      0.1567
     95  C         36.0380  -22.8440  -55.6650 C.2   116  GLU116      0.2260
     96  O         36.9200  -22.5740  -56.4980 O.2   116  GLU116     -0.2867
     97  CB        34.8010  -24.7960  -56.5720 C.3   116  GLU116      0.0388
     98  CG        35.2720  -25.7640  -55.5040 C.3   116  GLU116      0.1160
     99  CD        35.3880  -27.1940  -55.9900 C.2   116  GLU116      0.3649
    100  OE1       35.5300  -27.3920  -57.2170 O.co2 116  GLU116     -0.2457
    101  OE2       35.2910  -28.1290  -55.1600 O.co2 116  GLU116     -0.2457
    102  N         39.1050  -24.1820  -53.2490 N.3   118  MET118     -0.1245
    103  CA        39.6370  -25.2520  -52.4070 C.3   118  MET118      0.1570
    104  C         40.9290  -24.7280  -51.8110 C.2   118  MET118      0.2261
    105  O         41.7150  -24.0740  -52.5000 O.2   118  MET118     -0.2867
    106  CB        39.9430  -26.5240  -53.1900 C.3   118  MET118      0.0387
    107  CG        38.7950  -26.9160  -54.0860 C.3   118  MET118      0.0595
    108  SD        39.0250  -28.5720  -54.7460 S.3   118  MET118     -0.1393
    109  CE        38.5340  -29.6060  -53.3720 C.3   118  MET118      0.0692
    110  N         44.0180  -26.8520  -50.2230 N.3   120  TRP120     -0.1241
    111  CA        44.5540  -28.1720  -49.9870 C.3   120  TRP120      0.1605
    112  C         45.6330  -28.0660  -48.9190 C.2   120  TRP120      0.2264
    113  O         46.7450  -27.6380  -49.1920 O.2   120  TRP120     -0.2867
    114  CB        45.1680  -28.7740  -51.2630 C.3   120  TRP120      0.0550
    115  CG        44.1760  -29.1820  -52.3010 C.ar  120  TRP120      0.0003
    116  CD1       43.0090  -28.5690  -52.6080 C.ar  120  TRP120      0.0946
    117  CD2       44.4080  -30.1350  -53.3510 C.ar  120  TRP120      0.0152
    118  NE1       42.4030  -29.1910  -53.6860 N.ar  120  TRP120     -0.2442
    119  CE2       43.2480  -30.1570  -54.1630 C.ar  120  TRP120      0.0810
    120  CE3       45.4620  -31.0000  -53.6510 C.ar  120  TRP120      0.0012
    121  CZ2       43.0960  -31.0350  -55.2510 C.ar  120  TRP120      0.0191
    122  CZ3       45.3090  -31.8830  -54.7310 C.ar  120  TRP120      0.0001
    123  CH2       44.1060  -31.9290  -55.4640 C.ar  120  TRP120      0.0015
    124  N         42.0650  -29.6770  -60.4630 N.3   130  ILE130     -0.1245
    125  CA        41.6560  -29.4160  -61.8290 C.3   130  ILE130      0.1561
    126  C         42.3850  -28.2420  -62.4480 C.2   130  ILE130      0.2260
    127  O         42.7260  -27.2290  -61.7920 O.2   130  ILE130     -0.2867
    128  CB        40.1380  -29.2250  -61.9620 C.3   130  ILE130      0.0252
    129  CG1       39.7490  -29.2060  -63.4550 C.3   130  ILE130      0.0019
    130  CG2       39.6800  -27.9260  -61.3260 C.3   130  ILE130      0.0019
    131  CD1       38.2830  -29.4730  -63.7290 C.3   130  ILE130      0.0001
    132  N         31.1890  -25.0980  -63.5190 N.3   154  GLN154     -0.1245
    133  CA        31.9240  -24.9040  -62.2500 C.3   154  GLN154      0.1566
    134  C         33.4040  -24.5280  -62.4370 C.2   154  GLN154      0.2260
    135  O         34.1960  -25.3010  -62.9660 O.2   154  GLN154     -0.2867
    136  CB        31.8060  -26.1430  -61.3630 C.3   154  GLN154      0.0367
    137  CG        32.4470  -26.0100  -59.9840 C.3   154  GLN154      0.0905
    138  CD        32.2610  -27.2630  -59.1610 C.2   154  GLN154      0.2608
    139  OE1       33.0950  -28.1780  -59.1760 O.2   154  GLN154     -0.2717
    140  NE2       31.0840  -27.3880  -58.5780 N.am  154  GLN154     -0.0878
    141  N         37.0130  -23.5820  -60.7970 N.3   156  THR156     -0.1218
    142  CA        37.6290  -23.9620  -59.5120 C.3   156  THR156      0.1862
    143  C         39.0210  -23.3960  -59.3090 C.2   156  THR156      0.2287
    144  O         39.9340  -23.6560  -60.0890 O.2   156  THR156     -0.2866
    145  CB        37.6730  -25.4900  -59.3340 C.3   156  THR156      0.1770
    146  OG1       36.3650  -26.0620  -59.4440 O.3   156  THR156     -0.2211
    147  CG2       38.3120  -25.8910  -58.0020 C.3   156  THR156      0.0375
    148  N         33.1860  -26.4860  -46.1940 N.3   196  GLN196     -0.1245
    149  CA        33.4810  -27.8260  -45.7310 C.3   196  GLN196      0.1566
    150  C         34.9670  -28.0400  -45.5970 C.2   196  GLN196      0.2260
    151  O         35.7910  -27.3460  -46.2150 O.2   196  GLN196     -0.2867
    152  CB        32.9730  -28.8440  -46.7790 C.3   196  GLN196      0.0367
    153  CG        31.4680  -28.7740  -46.9140 C.3   196  GLN196      0.0905
    154  CD        30.9130  -29.6570  -47.9920 C.2   196  GLN196      0.2608
    155  OE1       31.5760  -29.8870  -48.9850 O.2   196  GLN196     -0.2717
    156  NE2       29.6030  -29.8310  -47.9540 N.am  196  GLN196     -0.0878
    157  N         39.7240  -35.9640  -49.8970 N.3   200  ALA200     -0.1245
    158  CA        39.3060  -36.5760  -51.1610 C.3   200  ALA200      0.1562
    159  C         40.3100  -37.6510  -51.5980 C.2   200  ALA200      0.2260
    160  O         41.4370  -37.3410  -52.0080 O.2   200  ALA200     -0.2867
    161  CB        39.1780  -35.5030  -52.2300 C.3   200  ALA200      0.0290
@<TRIPOS>BOND
     1   131   129    1
     2   132   133    1
     3   129   128    1
     4   135   134    2
     5   126   125    1
     6   126   127    2
     7   134   133    1
     8   133   136    1
     9   128   125    1
    10   128   130    1
    11   125   124    1
    12   136   137    1
    13   141   142    1
    14   144   143    2
    15   137   138    1
    16   142   145    1
    17   142   143    1
    18   146   145    1
    19   145   147    1
    20   139   138    2
    21   138   140   am
    22    86    85   ar
    23    86    84   ar
    24    85    83   ar
    25    92    91    1
    26    33    34   ar
    27    33    31   ar
    28    35    36    1
    29    84    82   ar
    30    91    88    1
    31    34    32   ar
    32    83    80   ar
    33    93    94    1
    34   100    99   ar
    35    31    28   ar
    36    38    37    2
    37    82    80   ar
    38    82    81   ar
    39    36    37    1
    40    36    39    1
    41    88    89    1
    42    88    87    1
    43    97    94    1
    44    97    98    1
    45    32    30   ar
    46    89    90    2
    47    96    95    2
    48    24    23    2
    49    80    78   ar
    50    41    39    1
    51    39    40    1
    52    94    95    1
    53    99    98    1
    54    99   101   ar
    55    28    30   ar
    56    28    26   ar
    57    81    79   ar
    58    76    75    2
    59    30    29   ar
    60    87    75   am
    61    23    22    1
    62   123   121   ar
    63   123   122   ar
    64   121   119   ar
    65    70    68   ar
    66    70    72   ar
    67    75    74    1
    68    68    67   ar
    69    78    79   ar
    70    78    77    1
    71   108   107    1
    72   108   109    1
    73   122   120   ar
    74    26    25    1
    75    26    27   ar
    76    25    22    1
    77    72    71   ar
    78    22    21    1
    79    29    27   ar
    80   119   118   ar
    81   119   117   ar
    82    12    11    1
    83   107   106    1
    84    77    74    1
    85    67    66    1
    86    67    69   ar
    87    74    73    1
    88   118   116   ar
    89    66    63    1
    90   120   117   ar
    91    71    69   ar
    92   117   115   ar
    93    63    64    1
    94    63    62    1
    95   102   103    1
    96    64    65    2
    97   106   103    1
    98    11    10   ar
    99    11     9   ar
   100    60    59   ar
   101    10     8   ar
   102   116   115   ar
   103   105   104    2
   104   103   104    1
   105    61    59   ar
   106   115   114    1
   107   161   158    1
   108   160   159    2
   109    59    58    1
   110     9     7   ar
   111   159   158    1
   112     8     6   ar
   113   114   111    1
   114   158   157    1
   115    19    18    2
   116    46    47    1
   117    46    43    1
   118    42    43    1
   119    16    15    2
   120    58    55    1
   121     7     6   ar
   122    20    18   am
   123     6     5    1
   124    18    17    1
   125   110   111    1
   126    55    56    1
   127    55    54    1
   128    47    49   ar
   129    47    48   ar
   130    15    14    1
   131   111   112    1
   132    43    44    1
   133    56    57    2
   134    49    51   ar
   135    48    50   ar
   136   113   112    2
   137    51    52   ar
   138    14    17    1
   139    14    13    1
   140   155   154    2
   141    50    52   ar
   142     5     2    1
   143    52    53    1
   144    44    45    2
   145     1     2    1
   146   154   156   am
   147   154   153    1
   148     2     3    1
   149   153   152    1
   150   152   149    1
   151     3     4    2
   152   151   150    2
   153   148   149    1
   154   149   150    1
