@<TRIPOS>MOLECULE
tmp/5gm6W00.pdb
 168 159 0 0 0
SMALL
GASTEIGER

@<TRIPOS>ATOM
      1  N        296.5110  340.9640  423.0030 N.3    10  ALA10      -0.1231
      2  CA       296.4480  341.0770  421.5480 C.3    10  ALA10       0.1694
      3  C        295.0220  340.7780  421.0680 C.2    10  ALA10       0.2591
      4  O        294.5000  341.4670  420.1940 O.2    10  ALA10      -0.2718
      5  CB       297.4610  340.1510  420.8830 C.3    10  ALA10       0.0304
      6  N        294.3830  339.7650  421.6520 N.am   11  ARG11      -0.1980
      7  CA       293.0690  339.3230  421.1870 C.3    11  ARG11       0.1597
      8  C        291.9090  340.1290  421.7810 C.2    11  ARG11       0.2287
      9  O        290.7520  339.8480  421.4770 O.2    11  ARG11      -0.2864
     10  CB       292.8770  337.8270  421.4590 C.3    11  ARG11       0.0334
     11  CG       292.7530  337.4310  422.9270 C.3    11  ARG11       0.0492
     12  CD       292.7000  335.9130  423.0590 C.3    11  ARG11       0.2205
     13  NE       292.5370  335.4420  424.4380 N.pl3  11  ARG11      -0.0865
     14  CZ       291.3690  335.2690  425.0570 C.cat  11  ARG11       0.5346
     15  NH1      290.2280  335.5490  424.4420 N.pl3  11  ARG11       0.1354
     16  NH2      291.3400  334.8300  426.3100 N.pl3  11  ARG11       0.1354
     17  N        289.6190  343.0780  419.3530 N.3    14  LEU14      -0.1245
     18  CA       288.5870  342.7090  418.3940 C.3    14  LEU14       0.1561
     19  C        287.2820  343.4610  418.6490 C.2    14  LEU14       0.2260
     20  O        287.0570  343.9540  419.7520 O.2    14  LEU14      -0.2867
     21  CB       288.3520  341.1990  418.4180 C.3    14  LEU14       0.0270
     22  CG       289.5730  340.3960  417.9840 C.3    14  LEU14       0.0019
     23  CD1      289.3490  338.9010  418.1600 C.3    14  LEU14       0.0001
     24  CD2      289.8990  340.7340  416.5380 C.3    14  LEU14       0.0001
     25  N        284.9880  338.5710  408.5920 N.3    39  THR39      -0.1203
     26  CA       286.0780  337.7540  409.1030 C.3    39  THR39       0.1994
     27  C        287.2360  338.6250  409.5750 C.2    39  THR39       0.2618
     28  O        287.4500  339.7270  409.0670 O.2    39  THR39      -0.2717
     29  CB       286.5640  336.7670  408.0350 C.3    39  THR39       0.1784
     30  OG1      286.8910  337.4910  406.8460 O.3    39  THR39      -0.2211
     31  CG2      285.4790  335.7490  407.7120 C.3    39  THR39       0.0376
     32  N        287.9710  338.1210  410.5590 N.am   40  GLY40      -0.1942
     33  CA       288.9820  338.9090  411.2520 C.3    40  GLY40       0.2014
     34  C        288.4730  339.5350  412.5410 C.2    40  GLY40       0.2640
     35  O        289.2580  340.1180  413.2900 O.2    40  GLY40      -0.2714
     36  N        287.1720  339.4160  412.8110 N.am   41  SER41      -0.1935
     37  CA       286.5840  339.9600  414.0350 C.3    41  SER41       0.2055
     38  C        286.7230  339.0140  415.2320 C.2    41  SER41       0.2644
     39  O        286.4300  339.4070  416.3570 O.2    41  SER41      -0.2714
     40  CB       285.1020  340.2720  413.8200 C.3    41  SER41       0.2130
     41  OG       284.3650  339.0920  413.5400 O.3    41  SER41      -0.2179
     42  N        287.1560  337.7770  414.9940 N.am   42  GLY42      -0.1939
     43  CA       287.2570  336.7790  416.0540 C.3    42  GLY42       0.2014
     44  C        286.0310  335.9120  416.2660 C.2    42  GLY42       0.2639
     45  O        285.8270  335.4220  417.3740 O.2    42  GLY42      -0.2714
     46  N        285.2220  335.7040  415.2260 N.am   43  LYS43      -0.1963
     47  CA       284.0140  334.8770  415.3540 C.3    43  LYS43       0.1728
     48  C        284.3560  333.4750  415.8670 C.2    43  LYS43       0.2617
     49  O        283.8400  333.0370  416.8960 O.2    43  LYS43      -0.2715
     50  CB       283.2820  334.7700  414.0180 C.3    43  LYS43       0.0311
     51  CG       282.7580  336.0770  413.4530 C.3    43  LYS43       0.0038
     52  CD       281.9210  335.8320  412.2060 C.3    43  LYS43       0.0206
     53  CE       282.7220  335.1390  411.1140 C.3    43  LYS43       0.1093
     54  NZ       283.8780  335.9580  410.6610 N.3    43  LYS43      -0.1314
     55  N        285.2620  332.7930  415.1790 N.am   44  THR44      -0.1937
     56  CA       285.5960  331.4230  415.5380 C.3    44  THR44       0.2028
     57  C        286.3310  331.3710  416.8800 C.2    44  THR44       0.2643
     58  O        285.9880  330.5630  417.7410 O.2    44  THR44      -0.2714
     59  CB       286.4490  330.7490  414.4500 C.3    44  THR44       0.1808
     60  OG1      285.7550  330.8220  413.1990 O.3    44  THR44      -0.2208
     61  CG2      286.7170  329.2880  414.8000 C.3    44  THR44       0.0379
     62  N        287.3230  332.2340  417.0620 N.am   45  THR45      -0.1936
     63  CA       288.1320  332.2100  418.2730 C.3    45  THR45       0.2028
     64  C        287.3400  332.6730  419.5030 C.2    45  THR45       0.2642
     65  O        287.2190  331.9350  420.4830 O.2    45  THR45      -0.2714
     66  CB       289.3890  333.0840  418.1140 C.3    45  THR45       0.1808
     67  OG1      289.0020  334.4370  417.8590 O.3    45  THR45      -0.2208
     68  CG2      290.2480  332.5790  416.9640 C.3    45  THR45       0.0379
     69  N        286.7750  333.8770  419.4390 N.am   46  GLN46      -0.1976
     70  CA       286.2610  334.5450  420.6310 C.3    46  GLN46       0.1601
     71  C        284.8880  334.0860  421.0660 C.2    46  GLN46       0.2287
     72  O        284.6760  333.8460  422.2510 O.2    46  GLN46      -0.2864
     73  CB       286.2620  336.0670  420.4460 C.3    46  GLN46       0.0394
     74  CG       287.6600  336.6480  420.3660 C.3    46  GLN46       0.0908
     75  CD       288.4950  336.3010  421.5830 C.2    46  GLN46       0.2608
     76  OE1      288.0050  336.3270  422.7120 O.2    46  GLN46      -0.2717
     77  NE2      289.7580  335.9610  421.3600 N.am   46  GLN46      -0.0878
     78  N        293.5250  324.5670  412.8170 N.3    76  SER76      -0.1202
     79  CA       294.4190  325.6750  413.0630 C.3    76  SER76       0.2020
     80  C        293.9290  326.5340  414.2340 C.2    76  SER76       0.2618
     81  O        294.7060  326.9570  415.0750 O.2    76  SER76      -0.2717
     82  CB       294.6100  326.5210  411.7970 C.3    76  SER76       0.2103
     83  OG       293.3840  327.0920  411.3810 O.3    76  SER76      -0.2182
     84  N        292.6340  326.8150  414.2450 N.am   77  VAL77      -0.1979
     85  CA       292.0710  327.6920  415.2650 C.3    77  VAL77       0.1595
     86  C        292.1230  327.0380  416.6400 C.2    77  VAL77       0.2287
     87  O        292.2710  327.7270  417.6480 O.2    77  VAL77      -0.2864
     88  CB       290.6320  328.1380  414.8900 C.3    77  VAL77       0.0276
     89  CG1      289.6800  326.9490  414.8400 C.3    77  VAL77       0.0022
     90  CG2      290.1370  329.2120  415.8510 C.3    77  VAL77       0.0022
     91  N        295.1900  327.8710  417.9530 N.3    80  ARG80      -0.1245
     92  CA       295.2050  329.2750  418.3220 C.3    80  ARG80       0.1563
     93  C        294.6380  329.4970  419.7300 C.2    80  ARG80       0.2260
     94  O        295.2780  330.1200  420.5940 O.2    80  ARG80      -0.2867
     95  CB       294.4370  330.1120  417.2880 C.3    80  ARG80       0.0307
     96  CG       294.3520  331.5950  417.6220 C.3    80  ARG80       0.0489
     97  CD       295.7290  332.2320  417.7580 C.3    80  ARG80       0.2205
     98  NE       295.6540  333.6500  418.1190 N.pl3  80  ARG80      -0.0865
     99  CZ       296.6810  334.3790  418.5630 C.cat  80  ARG80       0.5346
    100  NH1      297.8880  333.8390  418.7060 N.pl3  80  ARG80       0.1354
    101  NH2      296.5020  335.6600  418.8700 N.pl3  80  ARG80       0.1354
    102  N        295.5550  330.7880  423.4840 N.3    84  GLU84      -0.1245
    103  CA       294.7780  331.9200  423.9870 C.3    84  GLU84       0.1567
    104  C        294.1380  331.6550  425.3510 C.2    84  GLU84       0.2260
    105  O        293.8560  332.6010  426.0830 O.2    84  GLU84      -0.2867
    106  CB       293.7010  332.3290  422.9770 C.3    84  GLU84       0.0388
    107  CG       294.2510  332.8760  421.6660 C.3    84  GLU84       0.1160
    108  CD       293.1650  333.2190  420.6580 C.2    84  GLU84       0.3649
    109  OE1      291.9940  332.8600  420.8860 O.co2  84  GLU84      -0.2457
    110  OE2      293.4750  333.8630  419.6360 O.co2  84  GLU84      -0.2457
    111  N        301.3720  331.4770  408.8160 N.3   270  PHE270     -0.1241
    112  CA       301.2260  332.6040  409.7450 C.3   270  PHE270      0.1605
    113  C        302.5670  333.1780  410.2010 C.2   270  PHE270      0.2264
    114  O        302.5960  334.1900  410.9030 O.2   270  PHE270     -0.2867
    115  CB       300.4360  332.1640  410.9830 C.3   270  PHE270      0.0534
    116  CG       299.0250  331.7440  410.6870 C.ar  270  PHE270     -0.0203
    117  CD1      298.0000  332.6840  410.6680 C.ar  270  PHE270     -0.0042
    118  CD2      298.7160  330.4090  410.4260 C.ar  270  PHE270     -0.0042
    119  CE1      296.6960  332.3060  410.3970 C.ar  270  PHE270     -0.0003
    120  CE2      297.4110  330.0260  410.1570 C.ar  270  PHE270     -0.0003
    121  CZ       296.4010  330.9760  410.1420 C.ar  270  PHE270     -0.0000
    122  N        287.0690  332.7730  403.8160 N.3   287  THR287     -0.1203
    123  CA       286.1730  332.8280  404.9650 C.3   287  THR287      0.1994
    124  C        286.6590  332.0550  406.2020 C.2   287  THR287      0.2619
    125  O        286.0930  332.2190  407.2800 O.2   287  THR287     -0.2717
    126  CB       284.7830  332.2930  404.5730 C.3   287  THR287      0.1784
    127  OG1      284.9010  330.9400  404.1180 O.3   287  THR287     -0.2211
    128  CG2      284.1730  333.1480  403.4640 C.3   287  THR287      0.0376
    129  N        287.6840  331.2160  406.0630 N.am  288  SER288     -0.1937
    130  CA       288.0810  330.3320  407.1620 C.3   288  SER288      0.2055
    131  C        288.9810  331.0100  408.1900 C.2   288  SER288      0.2643
    132  O        288.7760  330.8440  409.3930 O.2   288  SER288     -0.2714
    133  CB       288.7570  329.0690  406.6300 C.3   288  SER288      0.2130
    134  OG       287.8390  328.2860  405.8940 O.3   288  SER288     -0.2179
    135  N        289.9730  331.7640  407.7230 N.am  289  LEU289     -0.1963
    136  CA       290.9580  332.3640  408.6200 C.3   289  LEU289      0.1728
    137  C        291.5600  333.6130  408.0000 C.2   289  LEU289      0.2616
    138  O        291.4180  333.8490  406.7950 O.2   289  LEU289     -0.2715
    139  CB       292.0610  331.3410  408.9810 C.3   289  LEU289      0.0311
    140  CG       292.9610  330.7320  407.8830 C.3   289  LEU289      0.0022
    141  CD1      294.1370  331.6360  407.5160 C.3   289  LEU289      0.0001
    142  CD2      293.4590  329.3510  408.3050 C.3   289  LEU289      0.0001
    143  N        292.2170  334.4050  408.8430 N.am  290  THR290     -0.1951
    144  CA       292.9580  335.5810  408.4130 C.3   290  THR290      0.1897
    145  C        294.3650  335.5390  409.0050 C.2   290  THR290      0.2313
    146  O        294.5380  335.2750  410.1970 O.2   290  THR290     -0.2863
    147  CB       292.2650  336.8870  408.8570 C.3   290  THR290      0.1794
    148  OG1      292.1240  336.8980  410.2820 O.3   290  THR290     -0.2208
    149  CG2      290.8930  337.0210  408.2080 C.3   290  THR290      0.0378
    150  N        297.6440  337.7770  409.9440 N.3   292  ASP292     -0.1239
    151  CA       297.7610  339.1660  410.3870 C.3   292  ASP292      0.1674
    152  C        298.9720  339.8440  409.7550 C.2   292  ASP292      0.2266
    153  O        300.0780  339.3010  409.7660 O.2   292  ASP292     -0.2867
    154  CB       297.8220  339.2370  411.9120 C.3   292  ASP292      0.1410
    155  CG       296.5650  338.6900  412.5710 C.2   292  ASP292      0.3668
    156  OD1      295.5350  338.5360  411.8750 O.co2 292  ASP292     -0.2456
    157  OD2      296.6100  338.4100  413.7860 O.co2 292  ASP292     -0.2456
    158  N        292.7910  344.2090  406.4790 N.3   336  ARG336     -0.1245
    159  CA       292.7790  343.8370  407.8910 C.3   336  ARG336      0.1563
    160  C        293.5350  344.8440  408.7580 C.2   336  ARG336      0.2260
    161  O        292.9260  345.5250  409.5840 O.2   336  ARG336     -0.2867
    162  CB       293.3420  342.4340  408.1100 C.3   336  ARG336      0.0307
    163  CG       293.3030  342.0000  409.5690 C.3   336  ARG336      0.0489
    164  CD       291.8760  341.9010  410.0970 C.3   336  ARG336      0.2205
    165  NE       291.8270  341.5980  411.5290 N.pl3 336  ARG336     -0.0865
    166  CZ       291.8410  342.5120  412.5000 C.cat 336  ARG336      0.5346
    167  NH1      291.8990  343.8100  412.2150 N.pl3 336  ARG336      0.1354
    168  NH2      291.7990  342.1280  413.7700 N.pl3 336  ARG336      0.1354
@<TRIPOS>BOND
     1   128   126    1
     2   122   123    1
     3   127   126    1
     4   126   123    1
     5   123   124    1
     6   134   133    1
     7   129   124   am
     8   129   130    1
     9   124   125    2
    10   158   159    1
    11   133   130    1
    12   138   137    2
    13    30    29    1
    14   130   131    1
    15   141   140    1
    16    31    29    1
    17   135   131   am
    18   135   136    1
    19   140   142    1
    20   140   139    1
    21   159   162    1
    22   159   160    1
    23   137   136    1
    24   137   143   am
    25    29    26    1
    26   162   163    1
    27   131   132    2
    28   149   147    1
    29   144   143    1
    30   144   147    1
    31   144   145    1
    32    25    26    1
    33   136   139    1
    34   160   161    2
    35   111   112    1
    36   147   148    1
    37   145   146    2
    38    28    27    2
    39    26    27    1
    40   163   164    1
    41    27    32   am
    42   112   113    1
    43   112   115    1
    44   152   153    2
    45   152   151    1
    46   150   151    1
    47   164   165    1
    48   121   120   ar
    49   121   119   ar
    50   120   118   ar
    51   113   114    2
    52   151   154    1
    53   119   117   ar
    54   118   116   ar
    55    32    33    1
    56    54    53    1
    57   117   116   ar
    58   116   115    1
    59    53    52    1
    60    33    34    1
    61    83    82    1
    62   165   166    2
    63    82    79    1
    64   156   155   ar
    65   154   155    1
    66    52    51    1
    67   167   166    1
    68   166   168    1
    69    34    36   am
    70    34    35    2
    71   155   157   ar
    72    36    37    1
    73    78    79    1
    74    79    80    1
    75    60    59    1
    76    51    50    1
    77    41    40    1
    78    40    37    1
    79    50    47    1
    80    37    38    1
    81    80    84   am
    82    80    81    2
    83    84    85    1
    84    59    61    1
    85    59    56    1
    86    89    88    1
    87    88    85    1
    88    88    90    1
    89    42    38   am
    90    42    43    1
    91    55    56    1
    92    55    48   am
    93    46    47    1
    94    46    44   am
    95    38    39    2
    96    85    86    1
    97    47    48    1
    98    56    57    1
    99    48    49    2
   100    43    44    1
   101    44    45    2
   102    24    22    1
   103    86    87    2
   104    57    62   am
   105    57    58    2
   106    68    66    1
   107    62    63    1
   108    95    96    1
   109    95    92    1
   110    96    97    1
   111    97    98    1
   112    67    66    1
   113    91    92    1
   114    22    23    1
   115    22    21    1
   116    66    63    1
   117    98    99    2
   118    63    64    1
   119    92    93    1
   120    18    21    1
   121    18    19    1
   122    18    17    1
   123    99   100    1
   124    99   101    1
   125    19    20    2
   126    69    64   am
   127    69    70    1
   128    64    65    2
   129   110   108   ar
   130    93    94    2
   131     4     3    2
   132    74    73    1
   133    74    75    1
   134    73    70    1
   135    70    71    1
   136   108   109   ar
   137   108   107    1
   138     5     2    1
   139    71    72    2
   140     3     2    1
   141     3     6   am
   142     7    10    1
   143     7     6    1
   144     7     8    1
   145    77    75   am
   146    10    11    1
   147     9     8    2
   148     2     1    1
   149    75    76    2
   150   107   106    1
   151    11    12    1
   152   106   103    1
   153    12    13    1
   154   102   103    1
   155   103   104    1
   156    13    14    2
   157    15    14    1
   158    14    16    1
   159   104   105    2
