@<TRIPOS>MOLECULE
tmp/5gm8B00.pdb
 159 156 0 0 0
SMALL
GASTEIGER

@<TRIPOS>ATOM
      1  N         -4.2170   -7.0720   -0.1850 N.3    85  THR85      -0.1203
      2  CA        -3.4550   -6.7100    0.9660 C.3    85  THR85       0.1994
      3  C         -4.1430   -5.7080    1.8490 C.2    85  THR85       0.2619
      4  O         -4.7470   -4.8110    1.3950 O.2    85  THR85      -0.2717
      5  CB        -2.0690   -6.2120    0.5540 C.3    85  THR85       0.1784
      6  OG1       -2.1890   -5.2240   -0.4570 O.3    85  THR85      -0.2211
      7  CG2       -1.3110   -7.3090   -0.0060 C.3    85  THR85       0.0376
      8  N         -4.0660   -5.9260    3.1260 N.am   86  SER86      -0.1937
      9  CA        -4.6690   -5.0670    4.1090 C.3    86  SER86       0.2055
     10  C         -3.6900   -4.6630    5.1900 C.2    86  SER86       0.2643
     11  O         -3.1360   -5.4880    5.8260 O.2    86  SER86      -0.2714
     12  CB        -5.9150   -5.7540    4.6730 C.3    86  SER86       0.2130
     13  OG        -6.2530   -5.3850    5.9740 O.3    86  SER86      -0.2179
     14  N         -3.5030   -3.3710    5.3610 N.am   87  ALA87      -0.1963
     15  CA        -2.6540   -2.8020    6.3730 C.3    87  ALA87       0.1728
     16  C         -3.2210   -3.0090    7.7470 C.2    87  ALA87       0.2616
     17  O         -2.5360   -2.9570    8.7080 O.2    87  ALA87      -0.2715
     18  CB        -2.4500   -1.3490    6.1200 C.3    87  ALA87       0.0334
     19  N         -4.5050   -3.2390    7.8300 N.am   88  ARG88      -0.1977
     20  CA        -5.1310   -3.4390    9.1330 C.3    88  ARG88       0.1597
     21  C         -5.4310   -4.8780    9.2850 C.2    88  ARG88       0.2287
     22  O         -5.9300   -5.5310    8.3880 O.2    88  ARG88      -0.2864
     23  CB        -6.3950   -2.6470    9.3230 C.3    88  ARG88       0.0334
     24  CG        -6.6180   -1.5990    8.2780 C.3    88  ARG88       0.0492
     25  CD        -7.3910   -2.1320    7.0890 C.3    88  ARG88       0.2205
     26  NE        -7.6600   -1.0980    6.1000 N.pl3  88  ARG88      -0.0865
     27  CZ        -7.9640    0.1640    6.3770 C.cat  88  ARG88       0.5346
     28  NH1       -8.1650    1.0210    5.3820 N.pl3  88  ARG88       0.1354
     29  NH2       -8.0730    0.5820    7.6410 N.pl3  88  ARG88       0.1354
     30  N         -2.2110   -4.4230   -4.2560 N.3   120  PHE120     -0.1227
     31  CA        -1.7820   -3.4330   -3.3230 C.3   120  PHE120      0.1736
     32  C         -2.5750   -2.1260   -3.5180 C.2   120  PHE120      0.2596
     33  O         -2.9220   -1.7820   -4.6150 O.2   120  PHE120     -0.2718
     34  CB        -0.2510   -3.2320   -3.4480 C.3   120  PHE120      0.0547
     35  CG         0.5680   -4.4820   -3.2740 C.ar  120  PHE120     -0.0202
     36  CD1        0.7010   -5.3950   -4.2920 C.ar  120  PHE120     -0.0042
     37  CD2        1.2260   -4.7300   -2.1030 C.ar  120  PHE120     -0.0042
     38  CE1        1.4400   -6.5210   -4.1170 C.ar  120  PHE120     -0.0003
     39  CE2        1.9820   -5.8580   -1.9410 C.ar  120  PHE120     -0.0003
     40  CZ         2.0880   -6.7550   -2.9460 C.ar  120  PHE120     -0.0000
     41  N         -2.8100   -1.4260   -2.4270 N.am  121  GLY121     -0.1942
     42  CA        -3.4990   -0.1640   -2.3560 C.3   121  GLY121      0.2014
     43  C         -2.8010    1.1930   -2.3090 C.2   121  GLY121      0.2639
     44  O         -1.6120    1.3320   -2.3540 O.2   121  GLY121     -0.2714
     45  N         -3.6190    2.2100   -2.1790 N.am  122  ARG122     -0.1963
     46  CA        -3.1820    3.5780   -2.1390 C.3   122  ARG122      0.1729
     47  C         -2.3620    3.8710   -0.9060 C.2   122  ARG122      0.2616
     48  O         -2.6770    3.3720    0.1110 O.2   122  ARG122     -0.2715
     49  CB        -4.4000    4.4590   -2.1790 C.3   122  ARG122      0.0348
     50  CG        -5.2360    4.3360   -3.4060 C.3   122  ARG122      0.0492
     51  CD        -6.6290    4.8310   -3.1480 C.3   122  ARG122      0.2205
     52  NE        -7.5070    4.5480   -4.2450 N.pl3 122  ARG122     -0.0865
     53  CZ        -8.2420    3.4540   -4.4050 C.cat 122  ARG122      0.5346
     54  NH1       -8.2740    2.4900   -3.5210 N.pl3 122  ARG122      0.1354
     55  NH2       -8.9700    3.3420   -5.4660 N.pl3 122  ARG122      0.1354
     56  N         -1.3610    4.7130   -1.0260 N.am  123  GLU123     -0.1963
     57  CA        -0.4670    5.0020    0.0680 C.3   123  GLU123      0.1733
     58  C         -1.2220    5.4820    1.2990 C.2   123  GLU123      0.2616
     59  O         -0.9260    5.0450    2.3700 O.2   123  GLU123     -0.2715
     60  CB         0.5940    6.0180   -0.3510 C.3   123  GLU123      0.0429
     61  CG         1.5950    5.5390   -1.3860 C.3   123  GLU123      0.1163
     62  CD         1.2440    5.8530   -2.8280 C.2   123  GLU123      0.3649
     63  OE1        0.0860    5.8130   -3.2220 O.co2 123  GLU123     -0.2457
     64  OE2        2.1570    6.1120   -3.5740 O.co2 123  GLU123     -0.2457
     65  N         -2.2300    6.3200    1.1420 N.am  124  TYR124     -0.1960
     66  CA        -2.9670    6.7040    2.3000 C.3   124  TYR124      0.1771
     67  C         -4.2090    5.8830    2.5880 C.2   124  TYR124      0.2619
     68  O         -4.3940    5.4800    3.6860 O.2   124  TYR124     -0.2715
     69  CB        -3.3220    8.2120    2.3360 C.3   124  TYR124      0.0574
     70  CG        -4.2770    8.5540    3.4720 C.ar  124  TYR124     -0.0198
     71  CD1       -3.9370    8.2750    4.7770 C.ar  124  TYR124     -0.0009
     72  CD2       -5.5340    9.0400    3.2310 C.ar  124  TYR124     -0.0009
     73  CE1       -4.8090    8.4950    5.8110 C.ar  124  TYR124      0.0417
     74  CE2       -6.4110    9.2780    4.2740 C.ar  124  TYR124      0.0417
     75  CZ        -6.0370    9.0000    5.5570 C.ar  124  TYR124      0.1957
     76  OH        -6.8770    9.2270    6.5800 O.3   124  TYR124     -0.2866
     77  N         -5.0780    5.7430    1.6010 N.am  125  ALA125     -0.1963
     78  CA        -6.3550    5.0600    1.7020 C.3   125  ALA125      0.1728
     79  C         -6.4030    3.5420    1.5970 C.2   125  ALA125      0.2617
     80  O         -7.3620    2.9470    2.0040 O.2   125  ALA125     -0.2715
     81  CB        -7.3300    5.6590    0.7310 C.3   125  ALA125      0.0334
     82  N         -5.3810    2.9410    1.0340 N.am  126  GLY126     -0.1940
     83  CA        -5.3260    1.5010    0.8550 C.3   126  GLY126      0.2014
     84  C         -6.2600    1.0740   -0.2460 C.2   126  GLY126      0.2638
     85  O         -6.4190    1.7840   -1.2450 O.2   126  GLY126     -0.2714
     86  N         -6.9230   -0.0430   -0.0420 N.am  127  LEU127     -0.1977
     87  CA        -7.8910   -0.5830   -1.0010 C.3   127  LEU127      0.1596
     88  C         -9.3120   -0.3790   -0.4730 C.2   127  LEU127      0.2287
     89  O         -9.5460   -0.5030    0.6840 O.2   127  LEU127     -0.2864
     90  CB        -7.6280   -2.0500   -1.2950 C.3   127  LEU127      0.0297
     91  CG        -6.3560   -2.4990   -1.9930 C.3   127  LEU127      0.0022
     92  CD1       -6.1190   -3.9810   -1.9200 C.3   127  LEU127      0.0001
     93  CD2       -6.2580   -2.0010   -3.3950 C.3   127  LEU127      0.0001
     94  N         -4.3770  -10.6010    2.6550 N.3   139  VAL139     -0.1231
     95  CA        -3.0960  -10.7410    3.2880 C.3   139  VAL139      0.1692
     96  C         -2.6870   -9.5840    4.1690 C.2   139  VAL139      0.2592
     97  O         -2.7610   -8.4610    3.7910 O.2   139  VAL139     -0.2718
     98  CB        -2.0120  -10.9680    2.2000 C.3   139  VAL139      0.0266
     99  CG1       -0.6430  -11.1510    2.7940 C.3   139  VAL139      0.0020
    100  CG2       -2.3510  -12.1080    1.2990 C.3   139  VAL139      0.0020
    101  N         -2.2460   -9.8930    5.3590 N.am  140  HIS140     -0.1962
    102  CA        -1.7670   -8.8920    6.2860 C.3   140  HIS140      0.1787
    103  C         -0.3350   -9.2360    6.6850 C.2   140  HIS140      0.2620
    104  O         -0.0640  -10.3650    7.1010 O.2   140  HIS140     -0.2715
    105  CB        -2.6600   -8.7950    7.5420 C.3   140  HIS140      0.0785
    106  CG        -2.1400   -7.8230    8.5490 C.ar  140  HIS140      0.0821
    107  ND1       -2.1070   -6.4550    8.2860 N.ar  140  HIS140     -0.2267
    108  CD2       -1.6110   -8.0380    9.7760 C.ar  140  HIS140      0.1154
    109  CE1       -1.5770   -5.8920    9.3600 C.ar  140  HIS140      0.1986
    110  NE2       -1.2670   -6.7960   10.2820 N.ar  140  HIS140     -0.2212
    111  N          0.5530   -8.2660    6.6320 N.am  141  ILE141     -0.1977
    112  CA         1.9090   -8.4450    7.0680 C.3   141  ILE141      0.1596
    113  C          1.9170   -8.0370    8.5220 C.2   141  ILE141      0.2287
    114  O          1.6200   -6.9360    8.8130 O.2   141  ILE141     -0.2864
    115  CB         2.8840   -7.5190    6.3480 C.3   141  ILE141      0.0276
    116  CG1        2.8860   -7.7670    4.8580 C.3   141  ILE141      0.0022
    117  CG2        4.2580   -7.6390    6.9450 C.3   141  ILE141      0.0022
    118  CD1        3.7650   -6.8560    4.0570 C.3   141  ILE141      0.0001
    119  N          2.8070   -6.3810   11.7620 N.3   143  SER143     -0.1217
    120  CA         3.5070   -5.1570   12.0600 C.3   143  SER143      0.1889
    121  C          3.0690   -4.6090   13.4010 C.2   143  SER143      0.2288
    122  O          2.1080   -5.0530   13.9210 O.2   143  SER143     -0.2866
    123  CB         3.2690   -4.1460   10.9380 C.3   143  SER143      0.2089
    124  OG         1.9250   -3.8980   10.7320 O.3   143  SER143     -0.2183
    125  N          1.5110    1.7890    8.8560 N.3   149  SER149     -0.1202
    126  CA         1.4610    0.9080    7.7250 C.3   149  SER149      0.2020
    127  C          2.7990    0.9330    7.0430 C.2   149  SER149      0.2619
    128  O          3.5350    1.8610    7.1710 O.2   149  SER149     -0.2717
    129  CB         0.3970    1.3510    6.7470 C.3   149  SER149      0.2103
    130  OG         0.7700    2.4740    6.0130 O.3   149  SER149     -0.2182
    131  N          3.1140   -0.1040    6.3170 N.am  150  LEU150     -0.1965
    132  CA         4.3550   -0.1590    5.5950 C.3   150  LEU150      0.1728
    133  C          4.2800    0.6750    4.3560 C.2   150  LEU150      0.2616
    134  O          3.2340    0.8660    3.8290 O.2   150  LEU150     -0.2715
    135  CB         4.6710   -1.5750    5.1840 C.3   150  LEU150      0.0311
    136  CG         5.3810   -2.5380    6.1000 C.3   150  LEU150      0.0022
    137  CD1        4.5800   -2.9450    7.2850 C.3   150  LEU150      0.0001
    138  CD2        5.8410   -3.7540    5.3230 C.3   150  LEU150      0.0001
    139  N          5.3970    1.1710    3.8800 N.am  151  ASN151     -0.1958
    140  CA         5.4500    1.8920    2.6450 C.3   151  ASN151      0.1819
    141  C          4.9930    0.8780    1.6140 C.2   151  ASN151      0.2621
    142  O          5.2250   -0.2810    1.8120 O.2   151  ASN151     -0.2715
    143  CB         6.9010    2.2960    2.3430 C.3   151  ASN151      0.1195
    144  CG         7.0910    2.7400    0.9190 C.2   151  ASN151      0.2630
    145  OD1        7.5340    2.0020    0.1070 O.2   151  ASN151     -0.2716
    146  ND2        6.7180    3.9350    0.6330 N.am  151  ASN151     -0.0877
    147  N          4.3710    1.3420    0.5450 N.am  152  LEU152     -0.1977
    148  CA         3.8180    0.5080   -0.4860 C.3   152  LEU152      0.1596
    149  C          4.8250   -0.4120   -1.2020 C.2   152  LEU152      0.2287
    150  O          4.5500   -1.5600   -1.3790 O.2   152  LEU152     -0.2864
    151  CB         3.1370    1.4040   -1.4850 C.3   152  LEU152      0.0297
    152  CG         2.6360    0.8380   -2.7880 C.3   152  LEU152      0.0022
    153  CD1        1.5870   -0.2110   -2.5660 C.3   152  LEU152      0.0001
    154  CD2        2.0900    1.9650   -3.6210 C.3   152  LEU152      0.0001
    155  N          6.0440   -3.1760    1.2690 N.3   155  ALA155     -0.1245
    156  CA         5.0430   -4.2260    1.3290 C.3   155  ALA155      0.1562
    157  C          5.1680   -5.1780    0.1230 C.2   155  ALA155      0.2260
    158  O          5.0950   -6.3540    0.3000 O.2   155  ALA155     -0.2867
    159  CB         3.6400   -3.6680    1.4530 C.3   155  ALA155      0.0290
@<TRIPOS>BOND
     1    55    53    1
     2    33    32    2
     3    53    52    2
     4    53    54    1
     5    36    38   ar
     6    36    35   ar
     7    30    31    1
     8    52    51    1
     9    38    40   ar
    10   154   152    1
    11    64    62   ar
    12    32    31    1
    13    32    41   am
    14    34    31    1
    15    34    35    1
    16    50    51    1
    17    50    49    1
    18    93    91    1
    19    35    37   ar
    20    63    62   ar
    21    40    39   ar
    22    62    61    1
    23   152   153    1
    24   152   151    1
    25    41    42    1
    26    42    43    1
    27    44    43    2
    28    43    45   am
    29    49    46    1
    30    45    46    1
    31    46    47    1
    32    37    39   ar
    33    91    92    1
    34    91    90    1
    35   151   148    1
    36    61    60    1
    37   150   149    2
    38    90    87    1
    39    85    84    2
    40   149   148    1
    41    56    47   am
    42    56    57    1
    43    87    88    1
    44    87    86    1
    45    47    48    2
    46   148   147    1
    47    88    89    2
    48     6     5    1
    49    60    57    1
    50    84    86   am
    51    84    83    1
    52     1     2    1
    53     7     5    1
    54    57    58    1
    55   145   144    2
    56   157   158    2
    57   157   156    1
    58   147   141   am
    59     5     2    1
    60   146   144   am
    61    81    78    1
    62    83    82    1
    63   144   143    1
    64     2     3    1
    65    82    79   am
    66    65    58   am
    67    65    66    1
    68   155   156    1
    69    58    59    2
    70   100    98    1
    71   156   159    1
    72     4     3    2
    73    79    78    1
    74    79    80    2
    75    77    78    1
    76    77    67   am
    77   141   142    2
    78   141   140    1
    79     3     8   am
    80    98    99    1
    81    98    95    1
    82    66    69    1
    83    66    67    1
    84    69    70    1
    85   143   140    1
    86    67    68    2
    87   140   139    1
    88    94    95    1
    89     8     9    1
    90    72    70   ar
    91    72    74   ar
    92    95    96    1
    93    70    71   ar
    94    97    96    2
    95   134   133    2
    96   139   133   am
    97   118   116    1
    98     9    12    1
    99     9    10    1
   100    96   101   am
   101    74    75   ar
   102   133   132    1
   103    12    13    1
   104    71    73   ar
   105   116   115    1
   106   135   132    1
   107   135   136    1
   108    10    14   am
   109    10    11    2
   110   138   136    1
   111   101   102    1
   112    14    15    1
   113    28    27    1
   114    75    73   ar
   115    75    76    1
   116   132   131    1
   117   130   129    1
   118   136   137    1
   119    26    27    2
   120    26    25    1
   121    18    15    1
   122   102   103    1
   123   102   105    1
   124   131   127   am
   125   115   117    1
   126   115   112    1
   127    15    16    1
   128    27    29    1
   129   111   103   am
   130   111   112    1
   131   103   104    2
   132   129   126    1
   133   127   128    2
   134   127   126    1
   135   112   113    1
   136    25    24    1
   137   105   106    1
   138   126   125    1
   139    16    19   am
   140    16    17    2
   141    19    20    1
   142    24    23    1
   143   107   106   ar
   144   107   109   ar
   145    22    21    2
   146   113   114    2
   147   106   108   ar
   148    20    21    1
   149    20    23    1
   150   109   110   ar
   151   108   110   ar
   152   124   123    1
   153   123   120    1
   154   119   120    1
   155   120   121    1
   156   121   122    2
