@<TRIPOS>MOLECULE
tmp/5gm9A01.pdb
 140 136 0 0 0
SMALL
GASTEIGER

@<TRIPOS>ATOM
      1  N        -19.4380    8.1460   -6.3890 N.3    10  TYR10      -0.1241
      2  CA       -20.2360    7.1380   -5.7080 C.3    10  TYR10       0.1605
      3  C        -19.3700    6.0620   -5.0770 C.2    10  TYR10       0.2264
      4  O        -18.2480    5.7760   -5.5660 O.2    10  TYR10      -0.2867
      5  CB       -21.2640    6.4360   -6.6210 C.3    10  TYR10       0.0534
      6  CG       -20.7500    5.1860   -7.3330 C.ar   10  TYR10      -0.0201
      7  CD1      -19.8870    5.2910   -8.4380 C.ar   10  TYR10      -0.0009
      8  CD2      -21.1170    3.9260   -6.9430 C.ar   10  TYR10      -0.0009
      9  CE1      -19.4490    4.1540   -9.1090 C.ar   10  TYR10       0.0417
     10  CE2      -20.6660    2.7870   -7.6150 C.ar   10  TYR10       0.0417
     11  CZ       -19.8330    2.9350   -8.6820 C.ar   10  TYR10       0.1957
     12  OH       -19.3880    1.7390   -9.2930 O.3    10  TYR10      -0.2866
     13  N        -21.2250    2.4310   -3.4020 N.3    12  ASP12      -0.1239
     14  CA       -22.3980    1.7990   -2.7700 C.3    12  ASP12       0.1674
     15  C        -22.1720    0.3970   -2.2530 C.2    12  ASP12       0.2266
     16  O        -23.0700   -0.1910   -1.6540 O.2    12  ASP12      -0.2867
     17  CB       -23.6690    1.8570   -3.6440 C.3    12  ASP12       0.1410
     18  CG       -23.5340    1.0960   -4.8920 C.2    12  ASP12       0.3668
     19  OD1      -22.5700    0.3310   -5.1050 O.co2  12  ASP12      -0.2456
     20  OD2      -24.5150    1.2110   -5.7310 O.co2  12  ASP12      -0.2456
     21  N        -22.2090   -2.3140   -3.7960 N.3    14  CYS14      -0.1221
     22  CA       -22.9690   -3.3350   -4.5100 C.3    14  CYS14       0.1808
     23  C        -22.0990   -4.0850   -5.4800 C.2    14  CYS14       0.2601
     24  O        -21.1230   -3.5580   -6.0340 O.2    14  CYS14      -0.2717
     25  CB       -24.1410   -2.7230   -5.2730 C.3    14  CYS14       0.0970
     26  SG       -25.3400   -1.8280   -4.2710 S.3    14  CYS14      -0.0800
     27  N        -22.4570   -5.3260   -5.7660 N.am   15  LYS15      -0.1966
     28  CA       -21.8310   -6.0170   -6.8850 C.3    15  LYS15       0.1713
     29  C        -21.9450   -5.2010   -8.1590 C.2    15  LYS15       0.2458
     30  O        -23.0570   -4.8420   -8.5100 O.2    15  LYS15      -0.2730
     31  CB       -22.4890   -7.3720   -7.0770 C.3    15  LYS15       0.0311
     32  CG       -21.8880   -8.1660   -8.2230 C.3    15  LYS15       0.0038
     33  CD       -22.4800   -9.5590   -8.3280 C.3    15  LYS15       0.0206
     34  CE       -21.9500  -10.3530   -9.5000 C.3    15  LYS15       0.1093
     35  NZ       -22.4940  -11.7500   -9.4970 N.3    15  LYS15      -0.1314
     36  N        -20.8430   -4.8830   -8.8380 N.am   16  PRO16      -0.2716
     37  CA       -20.9570   -4.0500  -10.0440 C.3    16  PRO16       0.1536
     38  C        -21.7370   -4.7850  -11.1420 C.2    16  PRO16       0.2599
     39  O        -21.6540   -6.0080  -11.2740 O.2    16  PRO16      -0.2715
     40  CB       -19.4930   -3.7920  -10.4650 C.3    16  PRO16       0.0310
     41  CG       -18.6530   -4.2230   -9.3530 C.3    16  PRO16       0.0237
     42  CD       -19.4450   -5.1330   -8.4740 C.3    16  PRO16       0.0939
     43  N        -22.4330   -4.0430  -11.9920 N.am   17  SER17      -0.1950
     44  CA       -23.2330   -4.7000  -13.0120 C.3    17  SER17       0.1924
     45  C        -22.3870   -5.5290  -13.9690 C.2    17  SER17       0.2314
     46  O        -22.7980   -6.6220  -14.4390 O.2    17  SER17      -0.2863
     47  CB       -24.0280   -3.6440  -13.7630 C.3    17  SER17       0.2116
     48  OG       -25.0120   -4.2710  -14.5820 O.3    17  SER17      -0.2180
     49  N        -21.2740   -9.4840  -13.6750 N.3    20  TRP20      -0.1241
     50  CA       -22.1010  -10.6330  -14.1160 C.3    20  TRP20       0.1605
     51  C        -21.6040  -11.1600  -15.4330 C.2    20  TRP20       0.2264
     52  O        -21.3010  -10.3610  -16.3150 O.2    20  TRP20      -0.2867
     53  CB       -23.5590  -10.2190  -14.2160 C.3    20  TRP20       0.0550
     54  CG       -24.1770   -9.9250  -12.9150 C.ar   20  TRP20       0.0003
     55  CD1      -24.3240   -8.7060  -12.3250 C.ar   20  TRP20       0.0946
     56  CD2      -24.7080  -10.8820  -12.0100 C.ar   20  TRP20       0.0152
     57  NE1      -24.9130   -8.8420  -11.0880 N.ar   20  TRP20      -0.2442
     58  CE2      -25.2070  -10.1720  -10.8940 C.ar   20  TRP20       0.0810
     59  CE3      -24.8570  -12.2740  -12.0520 C.ar   20  TRP20       0.0012
     60  CZ2      -25.7670  -10.8170   -9.7920 C.ar   20  TRP20       0.0191
     61  CZ3      -25.4640  -12.9120  -10.9480 C.ar   20  TRP20       0.0001
     62  CH2      -25.9130  -12.1860   -9.8700 C.ar   20  TRP20       0.0015
     63  N        -22.7280   -9.9470  -19.8390 N.3    23  LYS23      -0.1245
     64  CA       -23.0400   -8.5270  -20.0170 C.3    23  LYS23       0.1561
     65  C        -22.3840   -7.9570  -21.2580 C.2    23  LYS23       0.2260
     66  O        -22.8550   -6.9590  -21.8430 O.2    23  LYS23      -0.2867
     67  CB       -22.6340   -7.7100  -18.7850 C.3    23  LYS23       0.0271
     68  CG       -23.5100   -7.9200  -17.5530 C.3    23  LYS23       0.0035
     69  CD       -24.8720   -7.2930  -17.6790 C.3    23  LYS23       0.0206
     70  CE       -25.6460   -7.3410  -16.3580 C.3    23  LYS23       0.1093
     71  NZ       -26.9000   -6.5650  -16.4730 N.3    23  LYS23      -0.1314
     72  N        -25.9080  -10.3530   -5.5330 N.3    47  SER47      -0.1217
     73  CA       -25.4000   -9.1080   -4.9930 C.3    47  SER47       0.1889
     74  C        -25.8380   -8.9150   -3.5440 C.2    47  SER47       0.2288
     75  O        -27.0000   -9.1940   -3.1730 O.2    47  SER47      -0.2866
     76  CB       -25.8860   -7.9160   -5.8120 C.3    47  SER47       0.2089
     77  OG       -25.4560   -6.7040   -5.2290 O.3    47  SER47      -0.2183
     78  N        -26.5580   -6.1240   -2.3950 N.3    49  CYS49      -0.1221
     79  CA       -27.6360   -5.1400   -2.4560 C.3    49  CYS49       0.1808
     80  C        -28.9640   -5.7950   -2.7930 C.2    49  CYS49       0.2601
     81  O        -29.9720   -5.0970   -2.9480 O.2    49  CYS49      -0.2717
     82  CB       -27.3070   -4.0520   -3.4670 C.3    49  CYS49       0.0970
     83  SG       -25.8710   -3.1710   -2.8160 S.3    49  CYS49      -0.0800
     84  N        -28.9740   -7.1030   -2.9810 N.am   50  ASN50      -0.1974
     85  CA       -30.2160   -7.8340   -3.3190 C.3    50  ASN50       0.1688
     86  C        -30.3900   -9.0870   -2.4630 C.2    50  ASN50       0.2292
     87  O        -30.7370  -10.1430   -2.9760 O.2    50  ASN50      -0.2864
     88  CB       -30.1640   -8.1720   -4.8220 C.3    50  ASN50       0.1181
     89  CG       -31.4450   -8.7820   -5.3640 C.2    50  ASN50       0.2629
     90  OD1      -31.3900   -9.5900   -6.3030 O.2    50  ASN50      -0.2716
     91  ND2      -32.5780   -8.2650   -4.9360 N.am   50  ASN50      -0.0877
     92  N        -24.8150   -1.8210  -22.0280 N.3    83  GLU83      -0.1245
     93  CA       -23.8320   -2.5960  -21.2960 C.3    83  GLU83       0.1567
     94  C        -22.9740   -3.4240  -22.2210 C.2    83  GLU83       0.2260
     95  O        -21.7630   -3.5990  -21.9980 O.2    83  GLU83      -0.2867
     96  CB       -24.4820   -3.4890  -20.2270 C.3    83  GLU83       0.0388
     97  CG       -25.1670   -2.7070  -19.1320 C.3    83  GLU83       0.1160
     98  CD       -25.4670   -3.5450  -17.9300 C.2    83  GLU83       0.3649
     99  OE1      -26.5170   -4.2120  -17.9160 O.co2  83  GLU83      -0.2457
    100  OE2      -24.6270   -3.5910  -17.0320 O.co2  83  GLU83      -0.2457
    101  N        -19.9000   -0.6980  -14.1610 N.3   111  SER111     -0.1202
    102  CA       -21.2660   -0.7580  -13.7460 C.3   111  SER111      0.2020
    103  C        -22.0830    0.3230  -14.4350 C.2   111  SER111      0.2619
    104  O        -21.6080    0.9970  -15.3400 O.2   111  SER111     -0.2717
    105  CB       -21.3160   -0.6330  -12.2260 C.3   111  SER111      0.2103
    106  OG       -22.5580   -1.1060  -11.7530 O.3   111  SER111     -0.2182
    107  N        -23.3530    0.4260  -14.0230 N.am  112  THR112     -0.1938
    108  CA       -24.2860    1.4190  -14.5220 C.3   112  THR112      0.2028
    109  C        -25.3280    1.6650  -13.4760 C.2   112  THR112      0.2643
    110  O        -25.2470    1.0870  -12.3920 O.2   112  THR112     -0.2714
    111  CB       -24.8660    1.0230  -15.8940 C.3   112  THR112      0.1808
    112  OG1      -25.5190    2.1380  -16.4750 O.3   112  THR112     -0.2208
    113  CG2      -25.8200   -0.1570  -15.8090 C.3   112  THR112      0.0379
    114  N        -26.3070    2.4970  -13.7930 N.am  113  GLY113     -0.1939
    115  CA       -27.4260    2.7100  -12.8690 C.3   113  GLY113      0.2014
    116  C        -28.5310    3.3570  -13.6440 C.2   113  GLY113      0.2639
    117  O        -28.3100    4.1070  -14.5580 O.2   113  GLY113     -0.2714
    118  N        -29.7500    3.1890  -13.1180 N.am  114  GLY114     -0.1939
    119  CA       -30.9220    3.7740  -13.7640 C.3   114  GLY114      0.2014
    120  C        -31.0510    5.2650  -13.5500 C.2   114  GLY114      0.2638
    121  O        -31.8700    5.9320  -14.2230 O.2   114  GLY114     -0.2714
    122  N        -30.3200    5.8200  -12.6010 N.am  115  ASP115     -0.1971
    123  CA       -30.3240    7.2460  -12.3820 C.3   115  ASP115      0.1709
    124  C        -29.2420    8.0030  -13.1430 C.2   115  ASP115      0.2293
    125  O        -29.1630    9.2280  -13.0320 O.2   115  ASP115     -0.2864
    126  CB       -30.2910    7.6070  -10.8850 C.3   115  ASP115      0.1436
    127  CG       -29.1200    6.9880  -10.1360 C.2   115  ASP115      0.3671
    128  OD1      -28.4390    6.0810  -10.6990 O.co2 115  ASP115     -0.2456
    129  OD2      -28.9700    7.3430   -8.9230 O.co2 115  ASP115     -0.2456
    130  N        -29.1820    2.7880   -3.1310 N.3   133  PHE133     -0.1241
    131  CA       -29.0830    1.5410   -2.3670 C.3   133  PHE133      0.1605
    132  C        -27.8840    1.6390   -1.4180 C.2   133  PHE133      0.2264
    133  O        -26.7610    1.7350   -1.8760 O.2   133  PHE133     -0.2867
    134  CB       -28.7940    0.3530   -3.3030 C.3   133  PHE133      0.0534
    135  CG       -29.7460    0.2170   -4.4730 C.ar  133  PHE133     -0.0203
    136  CD1      -31.0430   -0.2590   -4.2840 C.ar  133  PHE133     -0.0042
    137  CD2      -29.2850    0.3720   -5.7770 C.ar  133  PHE133     -0.0042
    138  CE1      -31.9050   -0.4230   -5.3610 C.ar  133  PHE133     -0.0003
    139  CE2      -30.1380    0.2000   -6.8580 C.ar  133  PHE133     -0.0003
    140  CZ       -31.4510   -0.1950   -6.6510 C.ar  133  PHE133     -0.0000
@<TRIPOS>BOND
     1    94    95    2
     2    94    93    1
     3    92    93    1
     4    66    65    2
     5    93    96    1
     6    65    64    1
     7    96    97    1
     8    64    63    1
     9    64    67    1
    10    97    98    1
    11    67    68    1
    12    98    99   ar
    13    98   100   ar
    14    69    68    1
    15    69    70    1
    16   112   111    1
    17    71    70    1
    18    52    51    2
    19   111   113    1
    20   111   108    1
    21    51    50    1
    22   104   103    2
    23    48    47    1
    24   117   116    2
    25   108   107    1
    26   108   109    1
    27    46    45    2
    28   103   107   am
    29   103   102    1
    30   121   120    2
    31    53    50    1
    32    53    54    1
    33   101   102    1
    34    50    49    1
    35    45    44    1
    36   114   109   am
    37   114   115    1
    38   119   120    1
    39   119   118    1
    40    47    44    1
    41   102   105    1
    42   116   118   am
    43   116   115    1
    44   120   122   am
    45   109   110    2
    46   124   125    2
    47   124   123    1
    48    44    43    1
    49    54    55   ar
    50    54    56   ar
    51   122   123    1
    52   123   126    1
    53    55    57   ar
    54   105   106    1
    55    59    56   ar
    56    59    61   ar
    57    56    58   ar
    58    43    38   am
    59    39    38    2
    60    38    37    1
    61    57    58   ar
    62    61    62   ar
    63    58    60   ar
    64   126   127    1
    65   128   127   ar
    66    40    37    1
    67    40    41    1
    68   127   129   ar
    69    37    36    1
    70    62    60   ar
    71    34    35    1
    72    34    33    1
    73    41    42    1
    74    12    11    1
    75     9    11   ar
    76     9     7   ar
    77    36    42    1
    78    36    29   am
    79    11    10   ar
    80    30    29    2
    81     7     6   ar
    82    33    32    1
    83    32    31    1
    84    29    28    1
    85    10     8   ar
    86     6     8   ar
    87     6     5    1
    88    31    28    1
    89    28    27    1
    90   139   140   ar
    91   139   137   ar
    92   140   138   ar
    93     5     2    1
    94     1     2    1
    95    90    89    2
    96    24    23    2
    97    76    77    1
    98    76    73    1
    99   137   135   ar
   100    27    23   am
   101    20    18   ar
   102     2     3    1
   103     4     3    2
   104    72    73    1
   105    23    22    1
   106    89    91   am
   107    89    88    1
   108   138   136   ar
   109    25    22    1
   110    25    26    1
   111    19    18   ar
   112    73    74    1
   113    18    17    1
   114    88    85    1
   115    22    21    1
   116   135   136   ar
   117   135   134    1
   118    26    83    1
   119    17    14    1
   120    74    75    2
   121    82    83    1
   122    82    79    1
   123    13    14    1
   124    85    84    1
   125    85    86    1
   126   134   131    1
   127   130   131    1
   128    84    80   am
   129    87    86    2
   130    81    80    2
   131    80    79    1
   132    14    15    1
   133    79    78    1
   134   131   132    1
   135    15    16    2
   136   133   132    2
