@<TRIPOS>MOLECULE
tmp/5gm9A00.pdb
 122 117 0 0 0
SMALL
GASTEIGER

@<TRIPOS>ATOM
      1  N        -20.3850   12.3930  -11.6020 N.3     8  THR8       -0.1203
      2  CA       -20.7610   12.3560  -10.1990 C.3     8  THR8        0.1994
      3  C        -19.7670   11.4480   -9.4840 C.2     8  THR8        0.2618
      4  O        -18.8010   10.9640  -10.1190 O.2     8  THR8       -0.2717
      5  CB       -22.2270   11.8870  -10.0090 C.3     8  THR8        0.1784
      6  OG1      -22.4850   10.6880  -10.7660 O.3     8  THR8       -0.2211
      7  CG2      -23.2000   12.9690  -10.4230 C.3     8  THR8        0.0376
      8  N        -19.9840   11.1930   -8.2040 N.am    9  ARG9       -0.1965
      9  CA       -19.1190   10.3170   -7.4340 C.3     9  ARG9        0.1729
     10  C        -19.9260    9.3470   -6.6370 C.2     9  ARG9        0.2616
     11  O        -21.0660    9.6820   -6.2370 O.2     9  ARG9       -0.2715
     12  CB       -18.1900   11.0950   -6.4990 C.3     9  ARG9        0.0348
     13  CG       -18.9230   12.0220   -5.5470 C.3     9  ARG9        0.0492
     14  CD       -17.9810   12.8200   -4.6470 C.3     9  ARG9        0.2205
     15  NE       -18.7220   13.6740   -3.7090 N.pl3   9  ARG9       -0.0865
     16  CZ       -19.1760   14.8800   -3.9970 C.cat   9  ARG9        0.5346
     17  NH1      -19.0370   15.4380   -5.1740 N.pl3   9  ARG9        0.1354
     18  NH2      -19.8780   15.5270   -3.0600 N.pl3   9  ARG9        0.1354
     19  N        -19.4380    8.1460   -6.3890 N.am   10  TYR10      -0.1974
     20  CA       -20.2360    7.1380   -5.7080 C.3    10  TYR10       0.1639
     21  C        -19.3700    6.0620   -5.0770 C.2    10  TYR10       0.2290
     22  O        -18.2480    5.7760   -5.5660 O.2    10  TYR10      -0.2864
     23  CB       -21.2640    6.4360   -6.6210 C.3    10  TYR10       0.0560
     24  CG       -20.7500    5.1860   -7.3330 C.ar   10  TYR10      -0.0198
     25  CD1      -19.8870    5.2910   -8.4380 C.ar   10  TYR10      -0.0009
     26  CD2      -21.1170    3.9260   -6.9430 C.ar   10  TYR10      -0.0009
     27  CE1      -19.4490    4.1540   -9.1090 C.ar   10  TYR10       0.0417
     28  CE2      -20.6660    2.7870   -7.6150 C.ar   10  TYR10       0.0417
     29  CZ       -19.8330    2.9350   -8.6820 C.ar   10  TYR10       0.1957
     30  OH       -19.3880    1.7390   -9.2930 O.3    10  TYR10      -0.2866
     31  N        -30.3200    5.8200  -12.6010 N.3   115  ASP115     -0.1225
     32  CA       -30.3240    7.2460  -12.3820 C.3   115  ASP115      0.1805
     33  C        -29.2420    8.0030  -13.1430 C.2   115  ASP115      0.2597
     34  O        -29.1630    9.2280  -13.0320 O.2   115  ASP115     -0.2718
     35  CB       -30.2910    7.6070  -10.8850 C.3   115  ASP115      0.1424
     36  CG       -29.1200    6.9880  -10.1360 C.2   115  ASP115      0.3668
     37  OD1      -28.4390    6.0810  -10.6990 O.co2 115  ASP115     -0.2456
     38  OD2      -28.9700    7.3430   -8.9230 O.co2 115  ASP115     -0.2456
     39  N        -28.4690    7.3210  -13.9980 N.am  116  LEU116     -0.1979
     40  CA       -27.4210    8.0110  -14.7580 C.3   116  LEU116      0.1596
     41  C        -27.9570    8.5990  -16.0510 C.2   116  LEU116      0.2287
     42  O        -28.6750    7.9280  -16.7920 O.2   116  LEU116     -0.2864
     43  CB       -26.2560    7.0600  -15.0260 C.3   116  LEU116      0.0297
     44  CG       -25.6150    6.3810  -13.8290 C.3   116  LEU116      0.0022
     45  CD1      -24.4060    5.5670  -14.2900 C.3   116  LEU116      0.0001
     46  CD2      -25.2010    7.4190  -12.7950 C.3   116  LEU116      0.0001
     47  N        -23.0750   10.1910  -18.6310 N.3   120  GLN120     -0.1245
     48  CA       -22.7240   10.4210  -17.2300 C.3   120  GLN120      0.1566
     49  C        -21.8080    9.3100  -16.7250 C.2   120  GLN120      0.2260
     50  O        -22.0440    8.1040  -16.9410 O.2   120  GLN120     -0.2867
     51  CB       -23.9600   10.4570  -16.3730 C.3   120  GLN120      0.0367
     52  CG       -23.6340   10.8370  -14.9160 C.3   120  GLN120      0.0905
     53  CD       -24.8540   11.0340  -14.0610 C.2   120  GLN120      0.2608
     54  OE1      -25.9560   11.2460  -14.5670 O.2   120  GLN120     -0.2717
     55  NE2      -24.6810   10.9900  -12.7580 N.am  120  GLN120     -0.0878
     56  N        -20.2620    8.0640  -13.2500 N.3   122  ASP122     -0.1239
     57  CA       -20.3070    8.0490  -11.7870 C.3   122  ASP122      0.1674
     58  C        -18.9630    7.4830  -11.3580 C.2   122  ASP122      0.2266
     59  O        -18.7280    6.2830  -11.4460 O.2   122  ASP122     -0.2867
     60  CB       -21.4990    7.1870  -11.3510 C.3   122  ASP122      0.1410
     61  CG       -22.0920    7.5310  -10.0030 C.2   122  ASP122      0.3668
     62  OD1      -21.7280    8.5450   -9.4170 O.co2 122  ASP122     -0.2456
     63  OD2      -22.9920    6.7260   -9.6010 O.co2 122  ASP122     -0.2456
     64  N        -17.8540    8.6290   -1.6930 N.3   128  GLY128     -0.1210
     65  CA       -18.5500    9.4960   -2.6390 C.3   128  GLY128      0.1956
     66  C        -20.0590    9.4830   -2.5250 C.2   128  GLY128      0.2612
     67  O        -20.6950   10.3520   -3.1190 O.2   128  GLY128     -0.2717
     68  N        -20.5920    8.5100   -1.8240 N.am  129  GLY129     -0.1942
     69  CA       -22.0370    8.4090   -1.5690 C.3   129  GLY129      0.2014
     70  C        -22.6280    7.1360   -2.0700 C.2   129  GLY129      0.2639
     71  O        -22.3930    6.7470   -3.2210 O.2   129  GLY129     -0.2714
     72  N        -23.4590    6.4770   -1.2600 N.am  130  VAL130     -0.1963
     73  CA       -24.1320    5.2810   -1.6700 C.3   130  VAL130      0.1727
     74  C        -25.2730    5.4720   -2.6660 C.2   130  VAL130      0.2617
     75  O        -25.5390    4.5950   -3.5210 O.2   130  VAL130     -0.2715
     76  CB       -24.6200    4.4450   -0.4680 C.3   130  VAL130      0.0290
     77  CG1      -23.4920    4.1590    0.4900 C.3   130  VAL130      0.0023
     78  CG2      -25.8060    5.1540    0.1950 C.3   130  VAL130      0.0023
     79  N        -25.8980    6.6390   -2.6560 N.am  131  GLY131     -0.1940
     80  CA       -27.0210    6.8320   -3.5790 C.3   131  GLY131      0.2014
     81  C        -28.2880    6.0820   -3.1680 C.2   131  GLY131      0.2638
     82  O        -28.5860    6.0060   -1.9870 O.2   131  GLY131     -0.2714
     83  N        -28.9090    5.4030   -4.1300 N.am  132  ILE132     -0.1977
     84  CA       -30.2390    4.8270   -3.9320 C.3   132  ILE132      0.1596
     85  C        -30.1820    3.6490   -2.9750 C.2   132  ILE132      0.2287
     86  O        -31.0310    3.5320   -2.0860 O.2   132  ILE132     -0.2864
     87  CB       -30.8590    4.3810   -5.2780 C.3   132  ILE132      0.0276
     88  CG1      -31.1480    5.6010   -6.1520 C.3   132  ILE132      0.0022
     89  CG2      -32.1580    3.6260   -5.0150 C.3   132  ILE132      0.0022
     90  CD1      -31.4270    5.2730   -7.6110 C.3   132  ILE132      0.0001
     91  N        -26.0700   10.8870   -0.6630 N.3   148  TYR148     -0.1227
     92  CA       -25.5600   11.2870   -1.9750 C.3   148  TYR148      0.1736
     93  C        -24.4620   12.2380   -1.7710 C.2   148  TYR148      0.2596
     94  O        -24.5860   13.1700   -0.9470 O.2   148  TYR148     -0.2718
     95  CB       -26.6700   11.9240   -2.8030 C.3   148  TYR148      0.0548
     96  CG       -27.7530   10.9800   -3.2760 C.ar  148  TYR148     -0.0200
     97  CD1      -28.6940   10.4140   -2.4320 C.ar  148  TYR148     -0.0009
     98  CD2      -27.8710   10.6960   -4.6440 C.ar  148  TYR148     -0.0009
     99  CE1      -29.7090    9.5720   -2.9530 C.ar  148  TYR148      0.0417
    100  CE2      -28.8720    9.9040   -5.1510 C.ar  148  TYR148      0.0417
    101  CZ       -29.7440    9.3320   -4.2810 C.ar  148  TYR148      0.1957
    102  OH       -30.8220    8.6440   -4.8150 O.3   148  TYR148     -0.2866
    103  N        -23.3120   12.0300   -2.4110 N.am  149  GLY149     -0.1957
    104  CA       -22.1470   12.8960   -2.2730 C.3   149  GLY149      0.1869
    105  C        -21.1780   12.4950   -1.1600 C.2   149  GLY149      0.2309
    106  O        -20.0000   12.8440   -1.2280 O.2   149  GLY149     -0.2863
    107  N        -16.1060   18.8560   -7.2980 N.3   179  ASP179     -0.1225
    108  CA       -17.5200   18.5820   -7.1690 C.3   179  ASP179      0.1805
    109  C        -18.1190   18.4570   -8.5740 C.2   179  ASP179      0.2597
    110  O        -18.2980   19.4190   -9.3150 O.2   179  ASP179     -0.2718
    111  CB       -18.2250   19.6570   -6.3440 C.3   179  ASP179      0.1424
    112  CG       -19.6600   19.3250   -6.0660 C.2   179  ASP179      0.3668
    113  OD1      -20.0560   18.1360   -5.9720 O.co2 179  ASP179     -0.2456
    114  OD2      -20.3760   20.2530   -5.6460 O.co2 179  ASP179     -0.2456
    115  N        -18.3880   17.2110   -8.9340 N.am  180  ASN180     -0.1974
    116  CA       -19.0330   16.8910  -10.1830 C.3   180  ASN180      0.1688
    117  C        -18.4140   17.6040  -11.4160 C.2   180  ASN180      0.2292
    118  O        -19.1220   18.2170  -12.2160 O.2   180  ASN180     -0.2864
    119  CB       -20.5370   17.1300  -10.0900 C.3   180  ASN180      0.1181
    120  CG       -21.1840   16.3070   -9.0210 C.2   180  ASN180      0.2629
    121  OD1      -20.6510   15.3300   -8.5420 O.2   180  ASN180     -0.2716
    122  ND2      -22.4440   16.6250   -8.7320 N.am  180  ASN180     -0.0877
@<TRIPOS>BOND
     1    47    48    1
     2    48    49    1
     3    48    51    1
     4    50    49    2
     5    42    41    2
     6    51    52    1
     7    41    40    1
     8    43    40    1
     9    43    44    1
    10    52    53    1
    11    40    39    1
    12    54    53    2
    13    45    44    1
    14    53    55   am
    15    39    33   am
    16    44    46    1
    17    56    57    1
    18    33    34    2
    19    33    32    1
    20    31    32    1
    21    32    35    1
    22   118   117    2
    23    57    58    1
    24    57    60    1
    25     1     2    1
    26    59    58    2
    27   117   116    1
    28    60    61    1
    29    35    36    1
    30     6     5    1
    31    37    36   ar
    32     7     5    1
    33     2     5    1
    34     2     3    1
    35   116   119    1
    36   116   115    1
    37    36    38   ar
    38     4     3    2
    39   119   120    1
    40    61    63   ar
    41    61    62   ar
    42     3     8   am
    43   110   109    2
    44    30    29    1
    45    27    29   ar
    46    27    25   ar
    47   120   122   am
    48   120   121    2
    49   115   109   am
    50    29    28   ar
    51   109   108    1
    52    25    24   ar
    53     8     9    1
    54    28    26   ar
    55    90    88    1
    56     9    10    1
    57     9    12    1
    58    24    26   ar
    59    24    23    1
    60   107   108    1
    61   108   111    1
    62    10    19   am
    63    10    11    2
    64    23    20    1
    65    12    13    1
    66    19    20    1
    67   111   112    1
    68    88    87    1
    69   112   113   ar
    70   112   114   ar
    71    20    21    1
    72    22    21    2
    73    13    14    1
    74    87    89    1
    75    87    84    1
    76    17    16    1
    77   100    98   ar
    78   100   101   ar
    79   102   101    1
    80    14    15    1
    81    98    96   ar
    82   101    99   ar
    83    83    84    1
    84    83    81   am
    85    16    15    2
    86    16    18    1
    87    84    85    1
    88    80    81    1
    89    80    79    1
    90    75    74    2
    91    96    95    1
    92    96    97   ar
    93    71    70    2
    94    81    82    2
    95    67    66    2
    96    85    86    2
    97    99    97   ar
    98    95    92    1
    99    74    79   am
   100    74    73    1
   101    65    66    1
   102    65    64    1
   103    66    68   am
   104   103   104    1
   105   103    93   am
   106   104   105    1
   107    70    69    1
   108    70    72   am
   109    92    93    1
   110    92    91    1
   111    68    69    1
   112    93    94    2
   113    73    72    1
   114    73    76    1
   115   106   105    2
   116    76    78    1
   117    76    77    1
