@<TRIPOS>MOLECULE
tmp/5gmfA09.pdb
 95 92 0 0 0
SMALL
GASTEIGER

@<TRIPOS>ATOM
      1  N         -8.4220  -25.8860    1.2910 N.3   241  TYR241     -0.1227
      2  CA        -7.7570  -25.9970    2.5970 C.3   241  TYR241      0.1736
      3  C         -7.3320  -24.6170    3.1070 C.2   241  TYR241      0.2595
      4  O         -6.6170  -23.9100    2.4210 O.2   241  TYR241     -0.2718
      5  CB        -6.5390  -26.9360    2.5190 C.3   241  TYR241      0.0548
      6  CG        -5.9260  -27.3010    3.8660 C.ar  241  TYR241     -0.0200
      7  CD1       -6.6420  -28.0510    4.7880 C.ar  241  TYR241     -0.0009
      8  CD2       -4.6430  -26.9010    4.2040 C.ar  241  TYR241     -0.0009
      9  CE1       -6.1050  -28.3950    5.9970 C.ar  241  TYR241      0.0417
     10  CE2       -4.0870  -27.2580    5.4120 C.ar  241  TYR241      0.0417
     11  CZ        -4.8210  -28.0010    6.3130 C.ar  241  TYR241      0.1957
     12  OH        -4.2840  -28.3450    7.5430 O.3   241  TYR241     -0.2866
     13  N         -7.8270  -24.2540    4.2880 N.am  242  ASN242     -0.1974
     14  CA        -7.6540  -22.9240    4.8840 C.3   242  ASN242      0.1688
     15  C         -8.1090  -21.7600    4.0120 C.2   242  ASN242      0.2292
     16  O         -7.5060  -20.6900    4.0480 O.2   242  ASN242     -0.2864
     17  CB        -6.1900  -22.6980    5.3120 C.3   242  ASN242      0.1181
     18  CG        -5.7790  -23.5630    6.4910 C.2   242  ASN242      0.2629
     19  OD1       -6.5750  -23.8260    7.4010 O.2   242  ASN242     -0.2716
     20  ND2       -4.5070  -23.9740    6.5050 N.am  242  ASN242     -0.0877
     21  N          1.5220  -27.6090   -1.3600 N.3   328  PHE328     -0.1241
     22  CA         1.8800  -28.7150   -0.4870 C.3   328  PHE328      0.1605
     23  C          0.8200  -29.8040   -0.4390 C.2   328  PHE328      0.2264
     24  O         -0.3620  -29.5160   -0.5520 O.2   328  PHE328     -0.2867
     25  CB         2.2520  -28.2280    0.9220 C.3   328  PHE328      0.0534
     26  CG         1.1140  -27.6010    1.7030 C.ar  328  PHE328     -0.0203
     27  CD1        0.9880  -26.2160    1.7830 C.ar  328  PHE328     -0.0042
     28  CD2        0.2520  -28.3830    2.4290 C.ar  328  PHE328     -0.0042
     29  CE1       -0.0240  -25.6390    2.5230 C.ar  328  PHE328     -0.0003
     30  CE2       -0.7510  -27.8260    3.1840 C.ar  328  PHE328     -0.0003
     31  CZ        -0.8990  -26.4540    3.2340 C.ar  328  PHE328     -0.0000
     32  N         -1.1080  -32.6130    5.1010 N.3   331  GLN331     -0.1231
     33  CA        -0.6580  -33.5240    6.1520 C.3   331  GLN331      0.1698
     34  C          0.7740  -34.0710    5.9330 C.2   331  GLN331      0.2592
     35  O          1.1800  -34.9640    6.6570 O.2   331  GLN331     -0.2718
     36  CB        -1.6540  -34.7060    6.3700 C.3   331  GLN331      0.0381
     37  CG        -3.1410  -34.3660    6.4510 C.3   331  GLN331      0.0905
     38  CD        -3.4120  -33.2580    7.4650 C.2   331  GLN331      0.2608
     39  OE1       -2.8180  -33.2530    8.5450 O.2   331  GLN331     -0.2717
     40  NE2       -4.2760  -32.2960    7.1110 N.am  331  GLN331     -0.0878
     41  N          1.5310  -33.5340    4.9690 N.am  332  VAL332     -0.1966
     42  CA         2.8730  -34.0000    4.6730 C.3   332  VAL332      0.1727
     43  C          3.8500  -32.8750    4.9280 C.2   332  VAL332      0.2616
     44  O          3.6190  -31.7540    4.5100 O.2   332  VAL332     -0.2715
     45  CB         3.0180  -34.4330    3.2070 C.3   332  VAL332      0.0290
     46  CG1        4.4680  -34.7760    2.8570 C.3   332  VAL332      0.0023
     47  CG2        2.1470  -35.6380    2.9030 C.3   332  VAL332      0.0023
     48  N          4.9540  -33.1860    5.5950 N.am  333  TYR333     -0.1974
     49  CA         6.0300  -32.2340    5.8270 C.3   333  TYR333      0.1639
     50  C          7.3090  -32.8010    5.2030 C.2   333  TYR333      0.2290
     51  O          8.0590  -33.4900    5.8620 O.2   333  TYR333     -0.2864
     52  CB         6.1650  -32.0450    7.3380 C.3   333  TYR333      0.0560
     53  CG         7.0300  -30.9140    7.8490 C.ar  333  TYR333     -0.0198
     54  CD1        7.5050  -29.8980    7.0120 C.ar  333  TYR333     -0.0009
     55  CD2        7.3250  -30.8230    9.2290 C.ar  333  TYR333     -0.0009
     56  CE1        8.2700  -28.8450    7.5280 C.ar  333  TYR333      0.0417
     57  CE2        8.1110  -29.7950    9.7320 C.ar  333  TYR333      0.0417
     58  CZ         8.5660  -28.7970    8.8820 C.ar  333  TYR333      0.1957
     59  OH         9.3330  -27.7650    9.3680 O.3   333  TYR333     -0.2866
     60  N          6.4690  -26.4130    1.8040 N.3   358  VAL358     -0.1245
     61  CA         6.4210  -26.9670    3.1800 C.3   358  VAL358      0.1561
     62  C          7.4690  -28.0910    3.3390 C.2   358  VAL358      0.2260
     63  O          7.2110  -29.2670    3.0460 O.2   358  VAL358     -0.2867
     64  CB         4.9850  -27.3630    3.6380 C.3   358  VAL358      0.0252
     65  CG1        4.9900  -27.8360    5.0820 C.3   358  VAL358      0.0019
     66  CG2        4.0570  -26.1730    3.5260 C.3   358  VAL358      0.0019
     67  N          8.0430  -23.3020    6.4650 N.3   385  PHE385     -0.1241
     68  CA         8.4430  -23.9780    7.7270 C.3   385  PHE385      0.1605
     69  C          9.7990  -24.6410    7.6560 C.2   385  PHE385      0.2264
     70  O         10.0020  -25.7350    8.1890 O.2   385  PHE385     -0.2867
     71  CB         7.3630  -24.9430    8.1840 C.3   385  PHE385      0.0534
     72  CG         6.0320  -24.2590    8.3690 C.ar  385  PHE385     -0.0203
     73  CD1        5.7660  -23.5400    9.5270 C.ar  385  PHE385     -0.0042
     74  CD2        5.0940  -24.2520    7.3480 C.ar  385  PHE385     -0.0042
     75  CE1        4.5560  -22.8820    9.7080 C.ar  385  PHE385     -0.0003
     76  CE2        3.8970  -23.5740    7.5120 C.ar  385  PHE385     -0.0003
     77  CZ         3.6280  -22.8910    8.7010 C.ar  385  PHE385     -0.0000
     78  N         13.3780  -25.3750    8.6840 N.3   387  LYS387     -0.1245
     79  CA        14.0920  -25.3400    9.9830 C.3   387  LYS387      0.1561
     80  C         15.6140  -25.1490    9.8210 C.2   387  LYS387      0.2260
     81  O         16.2720  -24.6080   10.7140 O.2   387  LYS387     -0.2867
     82  CB        13.8020  -26.6080   10.8000 C.3   387  LYS387      0.0271
     83  CG        12.3410  -27.0280   10.8200 C.3   387  LYS387      0.0035
     84  CD        12.0770  -28.2220   11.7230 C.3   387  LYS387      0.0206
     85  CE        11.8090  -27.7020   13.1540 C.3   387  LYS387      0.1093
     86  NZ        10.7010  -28.4200   13.8540 N.3   387  LYS387     -0.1314
     87  N         11.0200  -21.2640    9.8660 N.3   409  LYS409     -0.1245
     88  CA        11.3570  -21.6700   11.2290 C.3   409  LYS409      0.1561
     89  C         12.8560  -21.8360   11.3910 C.2   409  LYS409      0.2260
     90  O         13.3450  -22.6870   12.0970 O.2   409  LYS409     -0.2867
     91  CB        10.5180  -22.9260   11.5750 C.3   409  LYS409      0.0271
     92  CG         9.5100  -22.6410   12.6960 C.3   409  LYS409      0.0035
     93  CD         8.0870  -22.9740   12.3820 C.3   409  LYS409      0.0206
     94  CE         7.1710  -22.5610   13.5370 C.3   409  LYS409      0.1093
     95  NZ         6.8470  -23.6600   14.4840 N.3   409  LYS409     -0.1314
@<TRIPOS>BOND
     1    21    22    1
     2    24    23    2
     3    22    23    1
     4    22    25    1
     5    25    26    1
     6     1     2    1
     7    26    27   ar
     8    26    28   ar
     9    27    29   ar
    10    60    61    1
    11     4     3    2
    12    28    30   ar
    13     5     2    1
    14     5     6    1
    15    29    31   ar
    16     2     3    1
    17    46    45    1
    18    47    45    1
    19    63    62    2
    20     3    13   am
    21    61    62    1
    22    61    64    1
    23    30    31   ar
    24    45    42    1
    25    66    64    1
    26    64    65    1
    27     6     8   ar
    28     6     7   ar
    29    15    16    2
    30    15    14    1
    31     8    10   ar
    32    13    14    1
    33    44    43    2
    34    42    43    1
    35    42    41    1
    36     7     9   ar
    37    14    17    1
    38    43    48   am
    39    41    34   am
    40    32    33    1
    41    50    49    1
    42    50    51    2
    43    17    18    1
    44    10    11   ar
    45    48    49    1
    46    49    52    1
    47    34    33    1
    48    34    35    2
    49     9    11   ar
    50    33    36    1
    51    11    12    1
    52    36    37    1
    53    37    38    1
    54    67    68    1
    55    18    20   am
    56    18    19    2
    57    54    56   ar
    58    54    53   ar
    59    40    38   am
    60    52    53    1
    61    74    76   ar
    62    74    72   ar
    63    38    39    2
    64    76    77   ar
    65    56    58   ar
    66    69    68    1
    67    69    70    2
    68    68    71    1
    69    53    55   ar
    70    71    72    1
    71    72    73   ar
    72    78    79    1
    73    77    75   ar
    74    58    59    1
    75    58    57   ar
    76    55    57   ar
    77    73    75   ar
    78    80    79    1
    79    80    81    2
    80    87    88    1
    81    79    82    1
    82    82    83    1
    83    83    84    1
    84    88    89    1
    85    88    91    1
    86    89    90    2
    87    91    92    1
    88    84    85    1
    89    93    92    1
    90    93    94    1
    91    85    86    1
    92    94    95    1
