@<TRIPOS>MOLECULE
tmp/5gmgB01.pdb
 123 121 0 0 0
SMALL
GASTEIGER

@<TRIPOS>ATOM
      1  N         -5.6480  -40.0990   21.6140 N.3   233  TYR233     -0.1227
      2  CA        -5.8080  -38.7990   22.2590 C.3   233  TYR233      0.1736
      3  C         -4.4200  -38.2810   22.6510 C.2   233  TYR233      0.2595
      4  O         -3.7100  -38.9550   23.4110 O.2   233  TYR233     -0.2718
      5  CB        -6.7110  -38.8950   23.5070 C.3   233  TYR233      0.0548
      6  CG        -7.0770  -37.5360   24.0950 C.ar  233  TYR233     -0.0200
      7  CD1       -7.8720  -36.6530   23.3800 C.ar  233  TYR233     -0.0009
      8  CD2       -6.5970  -37.1150   25.3560 C.ar  233  TYR233     -0.0009
      9  CE1       -8.1870  -35.3930   23.8890 C.ar  233  TYR233      0.0417
     10  CE2       -6.9060  -35.8500   25.8610 C.ar  233  TYR233      0.0417
     11  CZ        -7.6980  -34.9960   25.1210 C.ar  233  TYR233      0.1957
     12  OH        -8.0420  -33.7380   25.5760 O.3   233  TYR233     -0.2866
     13  N         -4.0580  -37.0970   22.1240 N.am  234  ASN234     -0.1974
     14  CA        -2.7220  -36.4760   22.3040 C.3   234  ASN234      0.1688
     15  C         -1.5600  -37.3680   21.8940 C.2   234  ASN234      0.2292
     16  O         -0.5170  -37.3810   22.5450 O.2   234  ASN234     -0.2864
     17  CB        -2.5060  -35.9830   23.7460 C.3   234  ASN234      0.1181
     18  CG        -3.3500  -34.7670   24.0780 C.2   234  ASN234      0.2629
     19  OD1       -3.7030  -33.9470   23.1910 O.2   234  ASN234     -0.2716
     20  ND2       -3.6970  -34.6310   25.3730 N.am  234  ASN234     -0.0877
     21  N         -2.3910  -43.7550   32.1170 N.3   318  PHE318     -0.1241
     22  CA        -3.1100  -43.1210   31.0180 C.3   318  PHE318      0.1605
     23  C         -4.3490  -43.8660   30.5290 C.2   318  PHE318      0.2264
     24  O         -4.4880  -44.2390   29.3590 O.2   318  PHE318     -0.2867
     25  CB        -2.1260  -42.7210   29.9110 C.3   318  PHE318      0.0534
     26  CG        -1.2240  -41.6270   30.3470 C.ar  318  PHE318     -0.0203
     27  CD1       -1.6680  -40.3180   30.3100 C.ar  318  PHE318     -0.0042
     28  CD2        0.0090  -41.9040   30.9370 C.ar  318  PHE318     -0.0042
     29  CE1       -0.8780  -39.2690   30.7990 C.ar  318  PHE318     -0.0003
     30  CE2        0.8090  -40.8630   31.4160 C.ar  318  PHE318     -0.0003
     31  CZ         0.3610  -39.5400   31.3400 C.ar  318  PHE318     -0.0000
     32  N         -7.4250  -42.4240   31.7390 N.3   320  PHE320     -0.1227
     33  CA        -8.4690  -41.4550   32.0310 C.3   320  PHE320      0.1736
     34  C         -9.5490  -41.3900   30.9600 C.2   320  PHE320      0.2595
     35  O         -9.3300  -41.7150   29.7950 O.2   320  PHE320     -0.2718
     36  CB        -7.9010  -40.0500   32.3390 C.3   320  PHE320      0.0547
     37  CG        -7.2080  -39.3790   31.1860 C.ar  320  PHE320     -0.0202
     38  CD1       -5.8170  -39.4780   31.0040 C.ar  320  PHE320     -0.0042
     39  CD2       -7.9280  -38.5980   30.3000 C.ar  320  PHE320     -0.0042
     40  CE1       -5.1830  -38.8390   29.9380 C.ar  320  PHE320     -0.0003
     41  CE2       -7.2930  -37.9650   29.2310 C.ar  320  PHE320     -0.0003
     42  CZ        -5.9180  -38.0820   29.0540 C.ar  320  PHE320     -0.0000
     43  N        -10.7150  -40.9450   31.3830 N.am  321  GLU321     -0.1965
     44  CA       -11.8270  -40.6900   30.4910 C.3   321  GLU321      0.1733
     45  C        -11.6510  -39.2510   30.0100 C.2   321  GLU321      0.2616
     46  O        -11.3420  -38.3540   30.8160 O.2   321  GLU321     -0.2715
     47  CB       -13.1540  -40.8500   31.2490 C.3   321  GLU321      0.0429
     48  CG       -13.2620  -42.1290   32.0760 C.3   321  GLU321      0.1163
     49  CD       -14.5490  -42.1890   32.8690 C.2   321  GLU321      0.3649
     50  OE1      -14.4820  -42.0770   34.1190 O.co2 321  GLU321     -0.2457
     51  OE2      -15.6220  -42.3330   32.2410 O.co2 321  GLU321     -0.2457
     52  N        -11.8520  -39.0110   28.7220 N.am  322  LEU322     -0.1963
     53  CA       -11.6300  -37.6710   28.1790 C.3   322  LEU322      0.1728
     54  C        -12.6420  -36.7450   28.8130 C.2   322  LEU322      0.2616
     55  O        -13.7840  -37.1430   29.0330 O.2   322  LEU322     -0.2715
     56  CB       -11.7690  -37.6130   26.6500 C.3   322  LEU322      0.0311
     57  CG       -11.0810  -38.6860   25.7810 C.3   322  LEU322      0.0022
     58  CD1      -11.0010  -38.2460   24.3250 C.3   322  LEU322      0.0001
     59  CD2       -9.7070  -39.0900   26.2910 C.3   322  LEU322      0.0001
     60  N        -12.2180  -35.5240   29.1230 N.am  323  GLN323     -0.1963
     61  CA       -13.0990  -34.4760   29.6750 C.3   323  GLN323      0.1733
     62  C        -13.5840  -34.7220   31.1060 C.2   323  GLN323      0.2616
     63  O        -14.5480  -34.0870   31.5190 O.2   323  GLN323     -0.2715
     64  CB       -14.3360  -34.2210   28.7710 C.3   323  GLN323      0.0408
     65  CG       -14.0770  -34.1070   27.2680 C.3   323  GLN323      0.0908
     66  CD       -13.3090  -32.8550   26.8570 C.2   323  GLN323      0.2608
     67  OE1      -12.9790  -32.0020   27.6850 O.2   323  GLN323     -0.2717
     68  NE2      -13.0130  -32.7500   25.5630 N.am  323  GLN323     -0.0878
     69  N        -12.9300  -35.6040   31.8630 N.am  324  VAL324     -0.1963
     70  CA       -13.4440  -36.0120   33.1810 C.3   324  VAL324      0.1727
     71  C        -12.3960  -35.9360   34.3000 C.2   324  VAL324      0.2616
     72  O        -11.4210  -36.7150   34.3420 O.2   324  VAL324     -0.2715
     73  CB       -14.0590  -37.4410   33.1470 C.3   324  VAL324      0.0290
     74  CG1      -14.4940  -37.8910   34.5490 C.3   324  VAL324      0.0023
     75  CG2      -15.2390  -37.5230   32.1610 C.3   324  VAL324      0.0023
     76  N        -12.6580  -35.0200   35.2310 N.am  325  TYR325     -0.1974
     77  CA       -11.8640  -34.8440   36.4190 C.3   325  TYR325      0.1639
     78  C        -12.5690  -35.5430   37.5970 C.2   325  TYR325      0.2290
     79  O        -13.3510  -34.9350   38.3300 O.2   325  TYR325     -0.2864
     80  CB       -11.6550  -33.3300   36.6600 C.3   325  TYR325      0.0560
     81  CG       -10.5770  -32.9090   37.6620 C.ar  325  TYR325     -0.0198
     82  CD1       -9.5000  -33.7560   38.0340 C.ar  325  TYR325     -0.0009
     83  CD2      -10.6190  -31.6350   38.2130 C.ar  325  TYR325     -0.0009
     84  CE1       -8.5200  -33.3350   38.9380 C.ar  325  TYR325      0.0417
     85  CE2       -9.6510  -31.2010   39.1060 C.ar  325  TYR325      0.0417
     86  CZ        -8.5900  -32.0400   39.4690 C.ar  325  TYR325      0.1957
     87  OH        -7.6210  -31.5540   40.3550 O.3   325  TYR325     -0.2866
     88  N         -6.2570  -39.3360   36.4900 N.3   350  VAL350     -0.1245
     89  CA        -6.7670  -37.9610   36.5050 C.3   350  VAL350      0.1561
     90  C         -7.8180  -37.7480   37.6010 C.2   350  VAL350      0.2260
     91  O         -9.0200  -37.8890   37.3420 O.2   350  VAL350     -0.2867
     92  CB        -7.2890  -37.4820   35.1240 C.3   350  VAL350      0.0252
     93  CG1       -7.6990  -36.0040   35.1660 C.3   350  VAL350      0.0019
     94  CG2       -6.2190  -37.6510   34.0510 C.3   350  VAL350      0.0019
     95  N         -2.9560  -34.6780   38.0310 N.3   377  PHE377     -0.1241
     96  CA        -3.5610  -33.4030   38.3470 C.3   377  PHE377      0.1605
     97  C         -4.1620  -33.3610   39.7450 C.2   377  PHE377      0.2264
     98  O         -5.1270  -32.6340   40.0100 O.2   377  PHE377     -0.2867
     99  CB        -4.5680  -33.0270   37.2760 C.3   377  PHE377      0.0534
    100  CG        -3.9700  -32.9450   35.9270 C.ar  377  PHE377     -0.0203
    101  CD1       -3.4110  -31.7530   35.4820 C.ar  377  PHE377     -0.0042
    102  CD2       -3.9220  -34.0680   35.1050 C.ar  377  PHE377     -0.0042
    103  CE1       -2.8320  -31.6720   34.2270 C.ar  377  PHE377     -0.0003
    104  CE2       -3.3540  -33.9980   33.8440 C.ar  377  PHE377     -0.0003
    105  CZ        -2.8070  -32.7960   33.4050 C.ar  377  PHE377     -0.0000
    106  N         -4.8060  -32.2150   43.1520 N.3   379  LYS379     -0.1245
    107  CA        -4.7110  -30.9550   43.9110 C.3   379  LYS379      0.1561
    108  C         -4.5410  -31.0470   45.4490 C.2   379  LYS379      0.2260
    109  O         -4.0060  -30.1170   46.0680 O.2   379  LYS379     -0.2867
    110  CB        -5.8910  -30.0650   43.5810 C.3   379  LYS379      0.0271
    111  CG        -5.7670  -29.4640   42.2010 C.3   379  LYS379      0.0035
    112  CD        -6.9470  -28.5930   41.8410 C.3   379  LYS379      0.0206
    113  CE        -6.5970  -27.6230   40.7250 C.3   379  LYS379      0.1093
    114  NZ        -7.5540  -27.7340   39.5930 N.3   379  LYS379     -0.1314
    115  N         -0.6000  -31.2260   40.9680 N.3   401  LYS401     -0.1245
    116  CA        -1.0180  -29.8750   41.2710 C.3   401  LYS401      0.1561
    117  C         -1.2700  -29.6900   42.7700 C.2   401  LYS401      0.2260
    118  O         -2.0010  -28.7890   43.1970 O.2   401  LYS401     -0.2867
    119  CB        -2.2540  -29.5940   40.4140 C.3   401  LYS401      0.0271
    120  CG        -2.0550  -28.3660   39.5580 C.3   401  LYS401      0.0035
    121  CD        -2.4440  -28.5790   38.1220 C.3   401  LYS401      0.0206
    122  CE        -2.5200  -27.2440   37.4520 C.3   401  LYS401      0.1093
    123  NZ        -2.3870  -27.3790   36.0060 N.3   401  LYS401     -0.1314
@<TRIPOS>BOND
     1     1     2    1
     2    15    14    1
     3    15    16    2
     4    13    14    1
     5    13     3   am
     6     2     3    1
     7     2     5    1
     8    14    17    1
     9     3     4    2
    10    19    18    2
    11     7     9   ar
    12     7     6   ar
    13     5     6    1
    14    17    18    1
    15     9    11   ar
    16    18    20   am
    17     6     8   ar
    18    58    57    1
    19    11    12    1
    20    11    10   ar
    21     8    10   ar
    22    68    66   am
    23    57    59    1
    24    57    56    1
    25    56    53    1
    26    66    65    1
    27    66    67    2
    28    65    64    1
    29    53    52    1
    30    53    54    1
    31    52    45   am
    32    64    61    1
    33    54    55    2
    34    54    60   am
    35    42    41   ar
    36    42    40   ar
    37    60    61    1
    38    41    39   ar
    39    24    23    2
    40    61    62    1
    41    35    34    2
    42    25    26    1
    43    25    22    1
    44    40    38   ar
    45    45    44    1
    46    45    46    2
    47    39    37   ar
    48    27    26   ar
    49    27    29   ar
    50    26    28   ar
    51    44    47    1
    52    44    43    1
    53    23    22    1
    54    29    31   ar
    55    28    30   ar
    56    34    43   am
    57    34    33    1
    58    38    37   ar
    59    22    21    1
    60    62    63    2
    61    62    69   am
    62    37    36    1
    63    47    48    1
    64    31    30   ar
    65    32    33    1
    66    69    70    1
    67    33    36    1
    68    48    49    1
    69    75    73    1
    70    51    49   ar
    71    49    50   ar
    72    73    70    1
    73    73    74    1
    74    70    71    1
    75   105   104   ar
    76   105   103   ar
    77   104   102   ar
    78    94    92    1
    79   103   101   ar
    80    71    72    2
    81    71    76   am
    82   102   100   ar
    83    92    93    1
    84    92    89    1
    85    76    77    1
    86   101   100   ar
    87   100    99    1
    88   123   122    1
    89    77    80    1
    90    77    78    1
    91    88    89    1
    92    89    90    1
    93    80    81    1
    94    99    96    1
    95    91    90    2
    96   122   121    1
    97    78    79    2
    98    81    82   ar
    99    81    83   ar
   100    95    96    1
   101    82    84   ar
   102   121   120    1
   103    83    85   ar
   104    96    97    1
   105    84    86   ar
   106    85    86   ar
   107    86    87    1
   108   120   119    1
   109   114   113    1
   110    97    98    2
   111   119   116    1
   112   113   112    1
   113   115   116    1
   114   116   117    1
   115   112   111    1
   116   111   110    1
   117   117   118    2
   118   106   107    1
   119   110   107    1
   120   107   108    1
   121   108   109    2
