@<TRIPOS>MOLECULE
tmp/5gmhB00.pdb
 128 123 0 0 0
SMALL
GASTEIGER

@<TRIPOS>ATOM
      1  N        -22.0210  -24.8790   -2.4000 N.3   238  TYR238     -0.1227
      2  CA       -20.7000  -25.1650   -2.9360 C.3   238  TYR238      0.1736
      3  C        -20.1730  -23.9100   -3.7100 C.2   238  TYR238      0.2595
      4  O        -20.8660  -23.3670   -4.5540 O.2   238  TYR238     -0.2718
      5  CB       -20.7180  -26.4180   -3.8440 C.3   238  TYR238      0.0548
      6  CG       -19.3310  -26.8750   -4.3610 C.ar  238  TYR238     -0.0200
      7  CD1      -18.3580  -27.4390   -3.4960 C.ar  238  TYR238     -0.0009
      8  CD2      -19.0040  -26.7730   -5.7080 C.ar  238  TYR238     -0.0009
      9  CE1      -17.0970  -27.8340   -3.9690 C.ar  238  TYR238      0.0417
     10  CE2      -17.7690  -27.2090   -6.1980 C.ar  238  TYR238      0.0417
     11  CZ       -16.8200  -27.7320   -5.3610 C.ar  238  TYR238      0.1957
     12  OH       -15.6220  -28.1250   -5.9100 O.3   238  TYR238     -0.2866
     13  N        -18.9400  -23.4810   -3.4000 N.am  239  ASN239     -0.1974
     14  CA       -18.3030  -22.2790   -3.9760 C.3   239  ASN239      0.1688
     15  C        -19.1560  -21.0050   -3.8730 C.2   239  ASN239      0.2292
     16  O        -19.0750  -20.1240   -4.7210 O.2   239  ASN239     -0.2864
     17  CB       -17.8940  -22.5110   -5.4290 C.3   239  ASN239      0.1181
     18  CG       -16.6820  -23.4050   -5.5660 C.2   239  ASN239      0.2629
     19  OD1      -15.8170  -23.4440   -4.6900 O.2   239  ASN239     -0.2716
     20  ND2      -16.5930  -24.0990   -6.6870 N.am  239  ASN239     -0.0877
     21  N        -25.8450  -25.1230  -13.3000 N.3   323  PHE323     -0.1241
     22  CA       -25.2350  -25.4870  -12.0260 C.3   323  PHE323      0.1605
     23  C        -26.0540  -26.4630  -11.2340 C.2   323  PHE323      0.2264
     24  O        -26.3760  -26.2420  -10.0480 O.2   323  PHE323     -0.2867
     25  CB       -24.8650  -24.2130  -11.2350 C.3   323  PHE323      0.0534
     26  CG       -23.8670  -23.3780  -11.9830 C.ar  323  PHE323     -0.0203
     27  CD1      -22.5310  -23.7330  -11.9860 C.ar  323  PHE323     -0.0042
     28  CD2      -24.2730  -22.3170  -12.7650 C.ar  323  PHE323     -0.0042
     29  CE1      -21.6260  -23.0290  -12.7650 C.ar  323  PHE323     -0.0003
     30  CE2      -23.3630  -21.5560  -13.4750 C.ar  323  PHE323     -0.0003
     31  CZ       -22.0380  -21.9380  -13.5070 C.ar  323  PHE323     -0.0000
     32  N        -24.7580  -29.7750  -11.4290 N.3   325  PHE325     -0.1241
     33  CA       -23.8340  -30.8990  -11.4210 C.3   325  PHE325      0.1605
     34  C        -23.6470  -31.5210  -10.0450 C.2   325  PHE325      0.2264
     35  O        -23.7650  -30.8990   -8.9950 O.2   325  PHE325     -0.2867
     36  CB       -22.4790  -30.4910  -12.0030 C.3   325  PHE325      0.0534
     37  CG       -21.6450  -29.6130  -11.0940 C.ar  325  PHE325     -0.0203
     38  CD1      -21.8240  -28.2460  -11.0350 C.ar  325  PHE325     -0.0042
     39  CD2      -20.6650  -30.1670  -10.3000 C.ar  325  PHE325     -0.0042
     40  CE1      -21.0570  -27.4370  -10.1960 C.ar  325  PHE325     -0.0003
     41  CE2      -19.8910  -29.3760   -9.4650 C.ar  325  PHE325     -0.0003
     42  CZ       -20.1020  -28.0180   -9.3780 C.ar  325  PHE325     -0.0000
     43  N        -17.9180  -33.4770   -7.6000 N.3   328  GLN328     -0.1231
     44  CA       -16.8190  -34.4160   -7.8600 C.3   328  GLN328      0.1698
     45  C        -17.0610  -35.3640   -9.0390 C.2   328  GLN328      0.2592
     46  O        -16.3710  -36.3490   -9.1580 O.2   328  GLN328     -0.2718
     47  CB       -16.3810  -35.2070   -6.5840 C.3   328  GLN328      0.0381
     48  CG       -16.1530  -34.3810   -5.2890 C.3   328  GLN328      0.0905
     49  CD       -15.3800  -33.0450   -5.4820 C.2   328  GLN328      0.2608
     50  OE1      -14.5460  -32.9220   -6.3670 O.2   328  GLN328     -0.2717
     51  NE2      -15.6730  -32.0440   -4.6310 N.am  328  GLN328     -0.0878
     52  N        -18.0440  -35.0550   -9.8880 N.am  329  VAL329     -0.1966
     53  CA       -18.3160  -35.8290  -11.0660 C.3   329  VAL329      0.1727
     54  C        -18.0970  -35.0020  -12.3170 C.2   329  VAL329      0.2616
     55  O        -18.6930  -33.8990  -12.5150 O.2   329  VAL329     -0.2715
     56  CB       -19.7710  -36.4090  -11.0800 C.3   329  VAL329      0.0290
     57  CG1      -19.9850  -37.3350  -12.2900 C.3   329  VAL329      0.0023
     58  CG2      -20.0400  -37.1970   -9.8020 C.3   329  VAL329      0.0023
     59  N        -17.2950  -35.5920  -13.1860 N.am  330  TYR330     -0.1974
     60  CA       -17.0670  -35.0920  -14.5310 C.3   330  TYR330      0.1639
     61  C        -17.6570  -36.1130  -15.4950 C.2   330  TYR330      0.2290
     62  O        -16.9730  -37.0170  -15.9020 O.2   330  TYR330     -0.2864
     63  CB       -15.5570  -34.9580  -14.7640 C.3   330  TYR330      0.0560
     64  CG       -15.0790  -34.1720  -15.9770 C.ar  330  TYR330     -0.0198
     65  CD1      -15.9250  -33.3690  -16.7290 C.ar  330  TYR330     -0.0009
     66  CD2      -13.7230  -34.1650  -16.3130 C.ar  330  TYR330     -0.0009
     67  CE1      -15.4540  -32.6180  -17.7860 C.ar  330  TYR330      0.0417
     68  CE2      -13.2540  -33.3830  -17.3680 C.ar  330  TYR330      0.0417
     69  CZ       -14.1400  -32.6300  -18.1070 C.ar  330  TYR330      0.1957
     70  OH       -13.7130  -31.8580  -19.1930 O.3   330  TYR330     -0.2866
     71  N        -22.8370  -25.4160  -16.3710 N.3   353  GLY353     -0.1225
     72  CA       -22.4150  -26.0980  -15.1450 C.3   353  GLY353      0.1811
     73  C        -23.0950  -27.4320  -14.9190 C.2   353  GLY353      0.2280
     74  O        -23.4260  -27.7730  -13.7730 O.2   353  GLY353     -0.2866
     75  N        -21.3850  -29.8310  -16.5580 N.3   355  VAL355     -0.1245
     76  CA       -20.0100  -30.3310  -16.3350 C.3   355  VAL355      0.1561
     77  C        -19.8300  -31.6910  -17.0130 C.2   355  VAL355      0.2260
     78  O        -20.0600  -32.7720  -16.4100 O.2   355  VAL355     -0.2867
     79  CB       -19.6200  -30.3950  -14.8500 C.3   355  VAL355      0.0252
     80  CG1      -18.1650  -30.7900  -14.7050 C.3   355  VAL355      0.0019
     81  CG2      -19.8250  -29.0540  -14.1790 C.3   355  VAL355      0.0019
     82  N        -19.5870  -22.7960  -19.4140 N.3   380  THR380     -0.1218
     83  CA       -19.0510  -23.2230  -18.1240 C.3   380  THR380      0.1862
     84  C        -19.3830  -24.6830  -17.8730 C.2   380  THR380      0.2287
     85  O        -19.9240  -25.0540  -16.8430 O.2   380  THR380     -0.2866
     86  CB       -19.5220  -22.2740  -16.9880 C.3   380  THR380      0.1770
     87  OG1      -19.3800  -20.9070  -17.3970 O.3   380  THR380     -0.2211
     88  CG2      -18.7030  -22.4600  -15.7200 C.3   380  THR380      0.0375
     89  N        -16.8410  -27.1720  -19.0430 N.3   382  PHE382     -0.1241
     90  CA       -15.5980  -27.9190  -19.2270 C.3   382  PHE382      0.1605
     91  C        -15.6440  -28.9390  -20.3730 C.2   382  PHE382      0.2264
     92  O        -15.0030  -30.0050  -20.3310 O.2   382  PHE382     -0.2867
     93  CB       -15.1380  -28.5620  -17.9160 C.3   382  PHE382      0.0534
     94  CG       -14.9610  -27.5680  -16.8500 C.ar  382  PHE382     -0.0203
     95  CD1      -13.7680  -26.8630  -16.7490 C.ar  382  PHE382     -0.0042
     96  CD2      -16.0190  -27.2510  -16.0260 C.ar  382  PHE382     -0.0042
     97  CE1      -13.6540  -25.8790  -15.8150 C.ar  382  PHE382     -0.0003
     98  CE2      -15.8960  -26.2650  -15.0790 C.ar  382  PHE382     -0.0003
     99  CZ       -14.7180  -25.5900  -14.9700 C.ar  382  PHE382     -0.0000
    100  N        -14.5780  -30.5820  -23.5230 N.3   384  LYS384     -0.1245
    101  CA       -13.3050  -30.7410  -24.2830 C.3   384  LYS384      0.1561
    102  C        -13.4950  -30.9210  -25.7860 C.2   384  LYS384      0.2260
    103  O        -12.6390  -30.4970  -26.5740 O.2   384  LYS384     -0.2867
    104  CB       -12.4920  -31.9170  -23.7740 C.3   384  LYS384      0.0271
    105  CG       -12.0570  -31.7390  -22.3350 C.3   384  LYS384      0.0035
    106  CD       -11.0040  -32.7510  -21.8690 C.3   384  LYS384      0.0206
    107  CE       -10.2020  -32.1600  -20.6970 C.3   384  LYS384      0.1093
    108  NZ        -9.6340  -33.1440  -19.7210 N.3   384  LYS384     -0.1314
    109  N        -13.4830  -25.9420  -22.5340 N.3   406  LYS406     -0.1245
    110  CA       -12.1370  -26.3450  -22.8970 C.3   406  LYS406      0.1561
    111  C        -12.0770  -26.9620  -24.3280 C.2   406  LYS406      0.2260
    112  O        -11.2800  -27.8530  -24.6050 O.2   406  LYS406     -0.2867
    113  CB       -11.6380  -27.3580  -21.8600 C.3   406  LYS406      0.0271
    114  CG       -11.3180  -26.7590  -20.4980 C.3   406  LYS406      0.0035
    115  CD       -10.8990  -27.8700  -19.5430 C.3   406  LYS406      0.0206
    116  CE        -9.4300  -28.2550  -19.6690 C.3   406  LYS406      0.1093
    117  NZ        -8.9810  -29.2220  -18.6040 N.3   406  LYS406     -0.1314
    118  N        -23.8170  -17.1230   -9.1570 N.3   417  PHE417     -0.1241
    119  CA       -23.2000  -17.3420   -7.8600 C.3   417  PHE417      0.1605
    120  C        -23.4820  -16.2250   -6.8790 C.2   417  PHE417      0.2264
    121  O        -23.4150  -16.4850   -5.6890 O.2   417  PHE417     -0.2867
    122  CB       -21.7000  -17.7260   -7.9810 C.3   417  PHE417      0.0534
    123  CG       -21.5320  -19.1610   -8.3260 C.ar  417  PHE417     -0.0203
    124  CD1      -21.2870  -20.0880   -7.3500 C.ar  417  PHE417     -0.0042
    125  CD2      -21.8490  -19.5900   -9.5910 C.ar  417  PHE417     -0.0042
    126  CE1      -21.2440  -21.4460   -7.6470 C.ar  417  PHE417     -0.0003
    127  CE2      -21.8090  -20.9090   -9.8940 C.ar  417  PHE417     -0.0003
    128  CZ       -21.5170  -21.8590   -8.9220 C.ar  417  PHE417     -0.0000
@<TRIPOS>BOND
     1   103   102    2
     2   102   101    1
     3   112   111    2
     4   111   110    1
     5   101   104    1
     6   101   100    1
     7   104   105    1
     8   110   109    1
     9   110   113    1
    10   105   106    1
    11   106   107    1
    12   113   114    1
    13   107   108    1
    14   114   115    1
    15    91    92    2
    16    91    90    1
    17   116   115    1
    18   116   117    1
    19    82    83    1
    20    90    89    1
    21    90    93    1
    22    70    69    1
    23    83    84    1
    24    83    86    1
    25    69    67   ar
    26    69    68   ar
    27    93    94    1
    28    84    85    2
    29    67    65   ar
    30    87    86    1
    31    68    66   ar
    32    77    78    2
    33    77    76    1
    34    86    88    1
    35    94    95   ar
    36    94    96   ar
    37    95    97   ar
    38    65    64   ar
    39    75    76    1
    40    71    72    1
    41    76    79    1
    42    66    64   ar
    43    96    98   ar
    44    64    63    1
    45    62    61    2
    46    97    99   ar
    47    61    60    1
    48    72    73    1
    49    98    99   ar
    50    73    74    2
    51    79    80    1
    52    79    81    1
    53    63    60    1
    54    60    59    1
    55    31    30   ar
    56    31    29   ar
    57    30    28   ar
    58    21    22    1
    59    59    54   am
    60    29    27   ar
    61    28    26   ar
    62    55    54    2
    63    54    53    1
    64    57    56    1
    65    22    25    1
    66    22    23    1
    67    36    33    1
    68    36    37    1
    69    27    26   ar
    70    26    25    1
    71    32    33    1
    72    33    34    1
    73    23    24    2
    74    37    38   ar
    75    37    39   ar
    76    56    53    1
    77    56    58    1
    78    53    52    1
    79    38    40   ar
    80    39    41   ar
    81    40    42   ar
    82    34    35    2
    83   127   125   ar
    84   127   128   ar
    85    52    45   am
    86   125   123   ar
    87    41    42   ar
    88    46    45    2
    89   118   119    1
    90    45    44    1
    91   128   126   ar
    92   123   122    1
    93   123   124   ar
    94   122   119    1
    95   119   120    1
    96    44    43    1
    97    44    47    1
    98   126   124   ar
    99   120   121    2
   100    20    18   am
   101    47    48    1
   102    50    49    2
   103    10     8   ar
   104    10    11   ar
   105    12    11    1
   106     8     6   ar
   107    18    17    1
   108    18    19    2
   109    49    48    1
   110    49    51   am
   111    17    14    1
   112    11     9   ar
   113    16    15    2
   114     4     3    2
   115     6     5    1
   116     6     7   ar
   117    14    15    1
   118    14    13    1
   119     9     7   ar
   120     5     2    1
   121     3    13   am
   122     3     2    1
   123     2     1    1
