@<TRIPOS>MOLECULE
tmp/5gmmA01.pdb
 114 111 0 0 0
SMALL
GASTEIGER

@<TRIPOS>ATOM
      1  N         -0.4770   -8.3110  -40.5650 N.3     1  ASP1       -0.1225
      2  CA         0.6080   -9.2100  -40.1870 C.3     1  ASP1        0.1805
      3  C          0.4240   -9.7330  -38.7580 C.2     1  ASP1        0.2597
      4  O          0.0810  -10.9010  -38.5580 O.2     1  ASP1       -0.2718
      5  CB         1.9650   -8.5140  -40.3240 C.3     1  ASP1        0.1424
      6  CG         1.9520   -7.0730  -39.8190 C.2     1  ASP1        0.3668
      7  OD1        1.0350   -6.3100  -40.2210 O.co2   1  ASP1       -0.2456
      8  OD2        2.8550   -6.7140  -39.0070 O.co2   1  ASP1       -0.2456
      9  N          0.6430   -8.8700  -37.7720 N.am    2  TRP2       -0.1976
     10  CA         0.4780   -9.2360  -36.3700 C.3     2  TRP2        0.1640
     11  C         -0.9860   -9.4570  -36.0440 C.2     2  TRP2        0.2290
     12  O         -1.8680   -9.0080  -36.7710 O.2     2  TRP2       -0.2864
     13  CB         1.0580   -8.1520  -35.4600 C.3     2  TRP2        0.0576
     14  CG         0.3310   -6.8220  -35.5250 C.ar    2  TRP2        0.0006
     15  CD1        0.6070   -5.7710  -36.3560 C.ar    2  TRP2        0.0946
     16  CD2       -0.8050   -6.4220  -34.7410 C.ar    2  TRP2        0.0152
     17  NE1       -0.2760   -4.7370  -36.1280 N.ar    2  TRP2       -0.2442
     18  CE2       -1.1510   -5.1110  -35.1400 C.ar    2  TRP2        0.0810
     19  CE3       -1.5530   -7.0380  -33.7390 C.ar    2  TRP2        0.0012
     20  CZ2       -2.2180   -4.4060  -34.5610 C.ar    2  TRP2        0.0191
     21  CZ3       -2.6240   -6.3340  -33.1620 C.ar    2  TRP2        0.0001
     22  CH2       -2.9370   -5.0330  -33.5740 C.ar    2  TRP2        0.0015
     23  N        -15.6790    2.0500  -37.2110 N.3    57  ILE57      -0.1231
     24  CA       -14.9560    1.3090  -38.2450 C.3    57  ILE57       0.1692
     25  C        -14.3410    0.0190  -37.6910 C.2    57  ILE57       0.2592
     26  O        -13.8440   -0.0050  -36.5590 O.2    57  ILE57      -0.2718
     27  CB       -13.8490    2.1910  -38.8920 C.3    57  ILE57       0.0266
     28  CG1      -13.1620    1.4450  -40.0360 C.3    57  ILE57       0.0019
     29  CG2      -12.8410    2.6590  -37.8460 C.3    57  ILE57       0.0020
     30  CD1      -12.3220    2.3250  -40.9620 C.3    57  ILE57       0.0001
     31  N        -14.4280   -1.0500  -38.4860 N.am   58  ASN58      -0.1960
     32  CA       -13.8610   -2.3540  -38.1620 C.3    58  ASN58       0.1819
     33  C        -12.4170   -2.3610  -38.6330 C.2    58  ASN58       0.2621
     34  O        -12.1540   -2.2540  -39.8410 O.2    58  ASN58      -0.2715
     35  CB       -14.6640   -3.4720  -38.8340 C.3    58  ASN58       0.1195
     36  CG       -14.0780   -4.8720  -38.6090 C.2    58  ASN58       0.2630
     37  OD1      -12.8680   -5.0530  -38.4690 O.2    58  ASN58      -0.2716
     38  ND2      -14.9530   -5.8740  -38.5980 N.am   58  ASN58      -0.0877
     39  N        -11.4800   -2.4970  -37.6990 N.am   59  VAL59      -0.1977
     40  CA       -10.0760   -2.4310  -38.0800 C.3    59  VAL59       0.1596
     41  C         -9.4230   -3.8030  -38.0720 C.2    59  VAL59       0.2287
     42  O         -8.2050   -3.9210  -38.0650 O.2    59  VAL59      -0.2864
     43  CB        -9.3050   -1.4820  -37.1780 C.3    59  VAL59       0.0276
     44  CG1       -9.8820   -0.0650  -37.3310 C.3    59  VAL59       0.0022
     45  CG2       -9.3700   -1.9390  -35.7210 C.3    59  VAL59       0.0022
     46  N         -8.6720   -6.3560  -36.0500 N.3    61  HIS61      -0.1241
     47  CA        -8.4460   -6.9230  -34.7220 C.3    61  HIS61       0.1621
     48  C         -9.4310   -6.3440  -33.6990 C.2    61  HIS61       0.2264
     49  O         -9.5510   -6.8470  -32.5790 O.2    61  HIS61      -0.2867
     50  CB        -7.0080   -6.6580  -34.2750 C.3    61  HIS61       0.0745
     51  CG        -6.5960   -5.2240  -34.4100 C.ar   61  HIS61       0.0817
     52  ND1       -6.7680   -4.2980  -33.4000 N.ar   61  HIS61      -0.2268
     53  CD2       -6.0480   -4.5510  -35.4480 C.ar   61  HIS61       0.1154
     54  CE1       -6.3200   -3.1250  -33.8030 C.ar   61  HIS61       0.1986
     55  NE2       -5.8790   -3.2510  -35.0430 N.ar   61  HIS61      -0.2212
     56  N        -13.1740    0.6420  -33.8900 N.3    64  HIS64      -0.1241
     57  CA       -12.8710    1.9440  -33.3090 C.3    64  HIS64       0.1621
     58  C        -13.9960    2.9180  -33.5830 C.2    64  HIS64       0.2264
     59  O        -14.5840    2.9180  -34.6680 O.2    64  HIS64      -0.2867
     60  CB       -11.5740    2.5390  -33.8790 C.3    64  HIS64       0.0745
     61  CG       -10.3270    1.8550  -33.4200 C.ar   64  HIS64       0.0817
     62  ND1       -9.0680    2.2990  -33.7690 N.ar   64  HIS64      -0.2268
     63  CD2      -10.1410    0.7550  -32.6530 C.ar   64  HIS64       0.1154
     64  CE1       -8.1620    1.5060  -33.2240 C.ar   64  HIS64       0.1986
     65  NE2       -8.7880    0.5680  -32.5330 N.ar   64  HIS64      -0.2212
     66  N        -14.1900    6.7560  -34.0640 N.3    66  ASN66      -0.1240
     67  CA       -13.3370    7.9120  -34.3130 C.3    66  ASN66       0.1653
     68  C        -14.0470    9.2400  -34.0850 C.2    66  ASN66       0.2266
     69  O        -15.2550    9.3650  -34.2910 O.2    66  ASN66      -0.2867
     70  CB       -12.7990    7.8770  -35.7470 C.3    66  ASN66       0.1155
     71  CG       -11.8210    6.7460  -35.9880 C.2    66  ASN66       0.2627
     72  OD1      -11.0710    6.3410  -35.0920 O.2    66  ASN66      -0.2716
     73  ND2      -11.7850    6.2630  -37.2220 N.am   66  ASN66      -0.0877
     74  N         -9.3700   11.4130  -29.7360 N.3    88  PHE88      -0.1227
     75  CA        -9.4930   11.0490  -31.1540 C.3    88  PHE88       0.1736
     76  C        -10.2150    9.7280  -31.4230 C.2    88  PHE88       0.2595
     77  O        -10.7850    9.5660  -32.5070 O.2    88  PHE88      -0.2718
     78  CB        -8.1310   11.0560  -31.8650 C.3    88  PHE88       0.0547
     79  CG        -7.1360   10.0030  -31.3890 C.ar   88  PHE88      -0.0202
     80  CD1       -6.3830   10.1980  -30.2370 C.ar   88  PHE88      -0.0042
     81  CD2       -6.8890    8.8650  -32.1630 C.ar   88  PHE88      -0.0042
     82  CE1       -5.4370    9.2460  -29.8270 C.ar   88  PHE88      -0.0003
     83  CE2       -5.9570    7.9070  -31.7710 C.ar   88  PHE88      -0.0003
     84  CZ        -5.2220    8.0980  -30.6020 C.ar   88  PHE88      -0.0000
     85  N        -10.2110    8.8030  -30.4650 N.am   89  GLN89      -0.1979
     86  CA       -11.0440    7.6100  -30.6040 C.3    89  GLN89       0.1601
     87  C        -11.2670    6.8770  -29.2950 C.2    89  GLN89       0.2287
     88  O        -10.5780    7.1320  -28.3110 O.2    89  GLN89      -0.2864
     89  CB       -10.4450    6.6540  -31.6570 C.3    89  GLN89       0.0394
     90  CG        -8.9940    6.2550  -31.4280 C.3    89  GLN89       0.0908
     91  CD        -8.8320    4.9100  -30.7370 C.2    89  GLN89       0.2608
     92  OE1       -9.6330    4.5260  -29.8850 O.2    89  GLN89      -0.2717
     93  NE2       -7.7730    4.1980  -31.0920 N.am   89  GLN89      -0.0878
     94  N         -1.6730   14.0700  -34.6370 N.3   128  LEU128     -0.1245
     95  CA        -1.6500   12.7470  -34.0210 C.3   128  LEU128      0.1561
     96  C         -0.4000   12.0080  -34.4580 C.2   128  LEU128      0.2260
     97  O          0.2890   11.4010  -33.6520 O.2   128  LEU128     -0.2867
     98  CB        -2.8870   11.9570  -34.4170 C.3   128  LEU128      0.0270
     99  CG        -2.9940   10.5040  -33.9600 C.3   128  LEU128      0.0019
    100  CD1       -3.0880   10.4380  -32.4490 C.3   128  LEU128      0.0001
    101  CD2       -4.2360    9.8840  -34.5930 C.3   128  LEU128      0.0001
    102  N        -13.5940   -6.5150  -41.8900 N.3   167  LYS167     -0.1231
    103  CA       -12.4960   -5.5530  -41.8520 C.3   167  LYS167      0.1693
    104  C        -12.6970   -4.4380  -42.8840 C.2   167  LYS167      0.2592
    105  O        -13.0530   -4.6940  -44.0360 O.2   167  LYS167     -0.2718
    106  CB       -11.1460   -6.2460  -42.0870 C.3   167  LYS167      0.0285
    107  CG        -9.9400   -5.3520  -41.8140 C.3   167  LYS167      0.0035
    108  CD        -8.6340   -6.0930  -42.1030 C.3   167  LYS167      0.0206
    109  CE        -7.4270   -5.1810  -41.9530 C.3   167  LYS167      0.1093
    110  NZ        -6.1570   -5.8270  -42.4360 N.3   167  LYS167     -0.1314
    111  N        -12.5090   -3.2000  -42.4480 N.am  168  GLY168     -0.1957
    112  CA       -12.5490   -2.0680  -43.3470 C.3   168  GLY168      0.1869
    113  C        -13.9120   -1.4220  -43.4700 C.2   168  GLY168      0.2309
    114  O        -14.0100   -0.2850  -43.9300 O.2   168  GLY168     -0.2863
@<TRIPOS>BOND
     1   105   104    2
     2   114   113    2
     3   113   112    1
     4   112   111    1
     5   104   111   am
     6   104   103    1
     7   110   109    1
     8   108   109    1
     9   108   107    1
    10   106   103    1
    11   106   107    1
    12   102   103    1
    13    30    28    1
    14     1     2    1
    15     5     2    1
    16     5     6    1
    17     7     6   ar
    18     2     3    1
    19    28    27    1
    20    34    33    2
    21     6     8   ar
    22    27    24    1
    23    27    29    1
    24    35    36    1
    25    35    32    1
    26     3     4    2
    27     3     9   am
    28    33    32    1
    29    33    39   am
    30    36    38   am
    31    36    37    2
    32    31    32    1
    33    31    25   am
    34    24    25    1
    35    24    23    1
    36    40    41    1
    37    40    39    1
    38    40    43    1
    39    41    42    2
    40     9    10    1
    41    25    26    2
    42    44    43    1
    43    73    71   am
    44    43    45    1
    45    12    11    2
    46    10    11    1
    47    10    13    1
    48    15    17   ar
    49    15    14   ar
    50    17    18   ar
    51    46    47    1
    52    71    70    1
    53    71    72    2
    54    70    67    1
    55    14    13    1
    56    14    16   ar
    57    53    55   ar
    58    53    51   ar
    59    18    16   ar
    60    18    20   ar
    61    55    54   ar
    62    16    19   ar
    63    47    50    1
    64    47    48    1
    65    59    58    2
    66    94    95    1
    67   101    99    1
    68    20    22   ar
    69    96    95    1
    70    96    97    2
    71    98    95    1
    72    98    99    1
    73    51    50    1
    74    51    52   ar
    75    67    68    1
    76    67    66    1
    77    69    68    2
    78    99   100    1
    79    56    57    1
    80    60    61    1
    81    60    57    1
    82    54    52   ar
    83    62    61   ar
    84    62    64   ar
    85    19    21   ar
    86    48    49    2
    87    58    57    1
    88    22    21   ar
    89    61    63   ar
    90    64    65   ar
    91    63    65   ar
    92    77    76    2
    93    81    83   ar
    94    81    79   ar
    95    78    79    1
    96    78    75    1
    97    83    84   ar
    98    89    90    1
    99    89    86    1
   100    90    91    1
   101    76    75    1
   102    76    85   am
   103    79    80   ar
   104    75    74    1
   105    93    91   am
   106    91    92    2
   107    86    85    1
   108    86    87    1
   109    84    82   ar
   110    80    82   ar
   111    87    88    2
