@<TRIPOS>MOLECULE
tmp/5gmmA00.pdb
 201 198 0 0 0
SMALL
GASTEIGER

@<TRIPOS>ATOM
      1  N          0.6430   -8.8700  -37.7720 N.3     2  TRP2       -0.1241
      2  CA         0.4780   -9.2360  -36.3700 C.3     2  TRP2        0.1605
      3  C         -0.9860   -9.4570  -36.0440 C.2     2  TRP2        0.2264
      4  O         -1.8680   -9.0080  -36.7710 O.2     2  TRP2       -0.2867
      5  CB         1.0580   -8.1520  -35.4600 C.3     2  TRP2        0.0550
      6  CG         0.3310   -6.8220  -35.5250 C.ar    2  TRP2        0.0003
      7  CD1        0.6070   -5.7710  -36.3560 C.ar    2  TRP2        0.0946
      8  CD2       -0.8050   -6.4220  -34.7410 C.ar    2  TRP2        0.0152
      9  NE1       -0.2760   -4.7370  -36.1280 N.ar    2  TRP2       -0.2442
     10  CE2       -1.1510   -5.1110  -35.1400 C.ar    2  TRP2        0.0810
     11  CE3       -1.5530   -7.0380  -33.7390 C.ar    2  TRP2        0.0012
     12  CZ2       -2.2180   -4.4060  -34.5610 C.ar    2  TRP2        0.0191
     13  CZ3       -2.6240   -6.3340  -33.1620 C.ar    2  TRP2        0.0001
     14  CH2       -2.9370   -5.0330  -33.5740 C.ar    2  TRP2        0.0015
     15  N        -11.4800   -2.4970  -37.6990 N.3    59  VAL59      -0.1245
     16  CA       -10.0760   -2.4310  -38.0800 C.3    59  VAL59       0.1561
     17  C         -9.4230   -3.8030  -38.0720 C.2    59  VAL59       0.2260
     18  O         -8.2050   -3.9210  -38.0650 O.2    59  VAL59      -0.2867
     19  CB        -9.3050   -1.4820  -37.1780 C.3    59  VAL59       0.0252
     20  CG1       -9.8820   -0.0650  -37.3310 C.3    59  VAL59       0.0019
     21  CG2       -9.3700   -1.9390  -35.7210 C.3    59  VAL59       0.0019
     22  N         -8.6720   -6.3560  -36.0500 N.3    61  HIS61      -0.1241
     23  CA        -8.4460   -6.9230  -34.7220 C.3    61  HIS61       0.1621
     24  C         -9.4310   -6.3440  -33.6990 C.2    61  HIS61       0.2264
     25  O         -9.5510   -6.8470  -32.5790 O.2    61  HIS61      -0.2867
     26  CB        -7.0080   -6.6580  -34.2750 C.3    61  HIS61       0.0745
     27  CG        -6.5960   -5.2240  -34.4100 C.ar   61  HIS61       0.0817
     28  ND1       -6.7680   -4.2980  -33.4000 N.ar   61  HIS61      -0.2268
     29  CD2       -6.0480   -4.5510  -35.4480 C.ar   61  HIS61       0.1154
     30  CE1       -6.3200   -3.1250  -33.8030 C.ar   61  HIS61       0.1986
     31  NE2       -5.8790   -3.2510  -35.0430 N.ar   61  HIS61      -0.2212
     32  N        -13.1740    0.6420  -33.8900 N.3    64  HIS64      -0.1241
     33  CA       -12.8710    1.9440  -33.3090 C.3    64  HIS64       0.1621
     34  C        -13.9960    2.9180  -33.5830 C.2    64  HIS64       0.2264
     35  O        -14.5840    2.9180  -34.6680 O.2    64  HIS64      -0.2867
     36  CB       -11.5740    2.5390  -33.8790 C.3    64  HIS64       0.0745
     37  CG       -10.3270    1.8550  -33.4200 C.ar   64  HIS64       0.0817
     38  ND1       -9.0680    2.2990  -33.7690 N.ar   64  HIS64      -0.2268
     39  CD2      -10.1410    0.7550  -32.6530 C.ar   64  HIS64       0.1154
     40  CE1       -8.1620    1.5060  -33.2240 C.ar   64  HIS64       0.1986
     41  NE2       -8.7880    0.5680  -32.5330 N.ar   64  HIS64      -0.2212
     42  N         -9.3700   11.4130  -29.7360 N.3    88  PHE88      -0.1227
     43  CA        -9.4930   11.0490  -31.1540 C.3    88  PHE88       0.1736
     44  C        -10.2150    9.7280  -31.4230 C.2    88  PHE88       0.2595
     45  O        -10.7850    9.5660  -32.5070 O.2    88  PHE88      -0.2718
     46  CB        -8.1310   11.0560  -31.8650 C.3    88  PHE88       0.0547
     47  CG        -7.1360   10.0030  -31.3890 C.ar   88  PHE88      -0.0202
     48  CD1       -6.3830   10.1980  -30.2370 C.ar   88  PHE88      -0.0042
     49  CD2       -6.8890    8.8650  -32.1630 C.ar   88  PHE88      -0.0042
     50  CE1       -5.4370    9.2460  -29.8270 C.ar   88  PHE88      -0.0003
     51  CE2       -5.9570    7.9070  -31.7710 C.ar   88  PHE88      -0.0003
     52  CZ        -5.2220    8.0980  -30.6020 C.ar   88  PHE88      -0.0000
     53  N        -10.2110    8.8030  -30.4650 N.am   89  GLN89      -0.1979
     54  CA       -11.0440    7.6100  -30.6040 C.3    89  GLN89       0.1601
     55  C        -11.2670    6.8770  -29.2950 C.2    89  GLN89       0.2287
     56  O        -10.5780    7.1320  -28.3110 O.2    89  GLN89      -0.2864
     57  CB       -10.4450    6.6540  -31.6570 C.3    89  GLN89       0.0394
     58  CG        -8.9940    6.2550  -31.4280 C.3    89  GLN89       0.0908
     59  CD        -8.8320    4.9100  -30.7370 C.2    89  GLN89       0.2608
     60  OE1       -9.6330    4.5260  -29.8850 O.2    89  GLN89      -0.2717
     61  NE2       -7.7730    4.1980  -31.0920 N.am   89  GLN89      -0.0878
     62  N        -12.2560    2.6150  -28.0060 N.3    91  HIS91      -0.1241
     63  CA       -12.3740    1.2450  -28.4560 C.3    91  HIS91       0.1621
     64  C        -12.3800    0.3220  -27.2520 C.2    91  HIS91       0.2264
     65  O        -12.2270    0.7710  -26.1170 O.2    91  HIS91      -0.2867
     66  CB       -11.2320    0.8870  -29.4170 C.3    91  HIS91       0.0745
     67  CG        -9.8780    0.8970  -28.7750 C.ar   91  HIS91       0.0817
     68  ND1       -9.1030    2.0320  -28.6880 N.ar   91  HIS91      -0.2268
     69  CD2       -9.1610   -0.0930  -28.1900 C.ar   91  HIS91       0.1154
     70  CE1       -7.9640    1.7410  -28.0810 C.ar   91  HIS91       0.1986
     71  NE2       -7.9770    0.4590  -27.7630 N.ar   91  HIS91      -0.2212
     72  N        -11.2690   -3.7870  -25.6080 N.3    93  HIS93      -0.1241
     73  CA       -10.5460   -5.0460  -25.6970 C.3    93  HIS93       0.1621
     74  C        -11.4060   -6.0610  -24.9720 C.2    93  HIS93       0.2264
     75  O        -12.0750   -5.7100  -24.0030 O.2    93  HIS93      -0.2867
     76  CB        -9.1610   -4.9670  -25.0540 C.3    93  HIS93       0.0745
     77  CG        -8.2160   -4.0310  -25.7450 C.ar   93  HIS93       0.0817
     78  ND1       -7.2610   -4.4640  -26.6410 N.ar   93  HIS93      -0.2268
     79  CD2       -8.0770   -2.6880  -25.6680 C.ar   93  HIS93       0.1154
     80  CE1       -6.5800   -3.4250  -27.0920 C.ar   93  HIS93       0.1986
     81  NE2       -7.0500   -2.3380  -26.5100 N.ar   93  HIS93      -0.2212
     82  N        -10.9420    1.6900  -23.6690 N.3   116  HIS116     -0.1241
     83  CA        -9.8510    2.6240  -23.8740 C.3   116  HIS116      0.1621
     84  C        -10.3330    3.8990  -24.5800 C.2   116  HIS116      0.2264
     85  O        -10.9480    3.8210  -25.6450 O.2   116  HIS116     -0.2867
     86  CB        -8.7370    1.9550  -24.6860 C.3   116  HIS116      0.0745
     87  CG        -7.9690    0.9170  -23.9170 C.ar  116  HIS116      0.0817
     88  ND1       -7.1310    0.0000  -24.5220 N.ar  116  HIS116     -0.2268
     89  CD2       -7.9100    0.6580  -22.5880 C.ar  116  HIS116      0.1154
     90  CE1       -6.5920   -0.7800  -23.5980 C.ar  116  HIS116      0.1986
     91  NE2       -7.0480   -0.4010  -22.4150 N.ar  116  HIS116     -0.2212
     92  N         -8.7880    7.2690  -26.1160 N.3   118  ALA118     -0.1245
     93  CA        -7.4460    7.6920  -26.5130 C.3   118  ALA118      0.1562
     94  C         -7.4380    9.1660  -26.8710 C.2   118  ALA118      0.2260
     95  O         -8.3670    9.6460  -27.5130 O.2   118  ALA118     -0.2867
     96  CB        -6.9340    6.8480  -27.7110 C.3   118  ALA118      0.0290
     97  N         -1.6730   14.0700  -34.6370 N.3   128  LEU128     -0.1231
     98  CA        -1.6500   12.7470  -34.0210 C.3   128  LEU128      0.1693
     99  C         -0.4000   12.0080  -34.4580 C.2   128  LEU128      0.2591
    100  O          0.2890   11.4010  -33.6520 O.2   128  LEU128     -0.2718
    101  CB        -2.8870   11.9570  -34.4170 C.3   128  LEU128      0.0284
    102  CG        -2.9940   10.5040  -33.9600 C.3   128  LEU128      0.0019
    103  CD1       -3.0880   10.4380  -32.4490 C.3   128  LEU128      0.0001
    104  CD2       -4.2360    9.8840  -34.5930 C.3   128  LEU128      0.0001
    105  N         -0.1210   12.0830  -35.7530 N.am  129  ALA129     -0.1980
    106  CA         1.0590   11.4650  -36.3340 C.3   129  ALA129      0.1597
    107  C          2.3500   11.9100  -35.6530 C.2   129  ALA129      0.2287
    108  O          3.1940   11.0720  -35.3640 O.2   129  ALA129     -0.2864
    109  CB         1.1250   11.7600  -37.8300 C.3   129  ALA129      0.0319
    110  N          2.4130   10.5740  -32.0090 N.3   132  ALA132     -0.1245
    111  CA         2.2120    9.1260  -31.8840 C.3   132  ALA132      0.1562
    112  C          3.3440    8.3800  -31.1980 C.2   132  ALA132      0.2260
    113  O          3.1170    7.3820  -30.5040 O.2   132  ALA132     -0.2867
    114  CB         1.9830    8.5210  -33.2730 C.3   132  ALA132      0.0290
    115  N          0.6450   10.7600  -26.1890 N.3   138  LEU138     -0.1245
    116  CA        -0.7020   10.2010  -26.0690 C.3   138  LEU138      0.1561
    117  C         -1.1620   10.0350  -24.6210 C.2   138  LEU138      0.2260
    118  O         -0.3550    9.7760  -23.7200 O.2   138  LEU138     -0.2867
    119  CB        -0.7810    8.8370  -26.7650 C.3   138  LEU138      0.0270
    120  CG        -0.2520    8.7580  -28.2010 C.3   138  LEU138      0.0019
    121  CD1       -0.2700    7.3080  -28.7200 C.3   138  LEU138      0.0001
    122  CD2       -1.0610    9.6710  -29.1140 C.3   138  LEU138      0.0001
    123  N         -4.2940    7.7950  -22.6480 N.3   140  VAL140     -0.1245
    124  CA        -5.4160    6.8770  -22.7390 C.3   140  VAL140      0.1561
    125  C         -5.9960    6.5350  -21.3630 C.2   140  VAL140      0.2260
    126  O         -5.2770    6.1520  -20.4340 O.2   140  VAL140     -0.2867
    127  CB        -5.0320    5.5860  -23.4790 C.3   140  VAL140      0.0252
    128  CG1       -6.2470    4.6620  -23.6040 C.3   140  VAL140      0.0019
    129  CG2       -4.4960    5.9350  -24.8850 C.3   140  VAL140      0.0019
    130  N          1.3280    1.8340  -26.2430 N.3   195  LEU195     -0.1231
    131  CA         0.2430    1.1860  -26.9570 C.3   195  LEU195      0.1693
    132  C          0.2830   -0.2790  -26.5690 C.2   195  LEU195      0.2593
    133  O          1.3630   -0.8280  -26.3820 O.2   195  LEU195     -0.2718
    134  CB         0.3970    1.3260  -28.4660 C.3   195  LEU195      0.0284
    135  CG         0.6920    2.7080  -29.0520 C.3   195  LEU195      0.0019
    136  CD1        0.7200    2.5790  -30.5600 C.3   195  LEU195      0.0001
    137  CD2       -0.3410    3.7230  -28.6080 C.3   195  LEU195      0.0001
    138  N         -0.8790   -0.9170  -26.4570 N.am  196  THR196     -0.1939
    139  CA        -0.9100   -2.3010  -26.0000 C.3   196  THR196      0.2028
    140  C         -0.8770   -3.2830  -27.1680 C.2   196  THR196      0.2642
    141  O         -1.0070   -4.4770  -26.9690 O.2   196  THR196     -0.2714
    142  CB        -2.1420   -2.5650  -25.1290 C.3   196  THR196      0.1808
    143  OG1       -3.3250   -2.3780  -25.9080 O.3   196  THR196     -0.2208
    144  CG2       -2.1700   -1.5890  -23.9470 C.3   196  THR196      0.0379
    145  N         -0.7230   -2.7760  -28.3920 N.am  197  HIS197     -0.1959
    146  CA        -0.4890   -3.6550  -29.5380 C.3   197  HIS197      0.1772
    147  C          0.3970   -2.9090  -30.5420 C.2   197  HIS197      0.2462
    148  O          0.5940   -1.7030  -30.3910 O.2   197  HIS197     -0.2730
    149  CB        -1.8250   -4.1360  -30.1590 C.3   197  HIS197      0.0785
    150  CG        -2.6940   -3.0490  -30.7170 C.ar  197  HIS197      0.0821
    151  ND1       -2.2980   -2.2270  -31.7510 N.ar  197  HIS197     -0.2267
    152  CD2       -3.9720   -2.6950  -30.4270 C.ar  197  HIS197      0.1154
    153  CE1       -3.2840   -1.4030  -32.0630 C.ar  197  HIS197      0.1986
    154  NE2       -4.3120   -1.6700  -31.2760 N.ar  197  HIS197     -0.2212
    155  N          0.9700   -3.6240  -31.5360 N.am  198  PRO198     -0.2716
    156  CA         1.8670   -2.9390  -32.4790 C.3   198  PRO198      0.1521
    157  C          1.2310   -1.6880  -33.0670 C.2   198  PRO198      0.2440
    158  O          0.0300   -1.6680  -33.3290 O.2   198  PRO198     -0.2731
    159  CB         2.1270   -4.0070  -33.5520 C.3   198  PRO198      0.0310
    160  CG         2.0530   -5.2760  -32.7900 C.3   198  PRO198      0.0237
    161  CD         0.9300   -5.0770  -31.7940 C.3   198  PRO198      0.0939
    162  N          2.0260   -0.6370  -33.2580 N.am  199  PRO199     -0.2727
    163  CA         3.4960   -0.5950  -33.1750 C.3   199  PRO199      0.1402
    164  C          4.1000   -0.5000  -31.7600 C.2   199  PRO199      0.2269
    165  O          5.3250   -0.4390  -31.6500 O.2   199  PRO199     -0.2865
    166  CB         3.8280    0.6620  -33.9800 C.3   199  PRO199      0.0296
    167  CG         2.6550    1.5660  -33.6810 C.3   199  PRO199      0.0237
    168  CD         1.4650    0.6420  -33.7260 C.3   199  PRO199      0.0939
    169  N          4.4980    1.7350  -29.4690 N.3   201  TYR201     -0.1241
    170  CA         5.2550    2.9180  -29.0560 C.3   201  TYR201      0.1605
    171  C          5.1070    3.1990  -27.5670 C.2   201  TYR201      0.2264
    172  O          4.0080    3.1270  -27.0450 O.2   201  TYR201     -0.2867
    173  CB         4.7920    4.1590  -29.8190 C.3   201  TYR201      0.0534
    174  CG         4.8970    4.0950  -31.3190 C.ar  201  TYR201     -0.0201
    175  CD1        5.9800    3.4830  -31.9480 C.ar  201  TYR201     -0.0009
    176  CD2        3.9120    4.6700  -32.1140 C.ar  201  TYR201     -0.0009
    177  CE1        6.0720    3.4430  -33.3430 C.ar  201  TYR201      0.0417
    178  CE2        3.9910    4.6380  -33.5030 C.ar  201  TYR201      0.0417
    179  CZ         5.0680    4.0230  -34.1130 C.ar  201  TYR201      0.1957
    180  OH         5.1290    3.9920  -35.4870 O.3   201  TYR201     -0.2866
    181  N          2.5720    6.5520  -24.2560 N.3   204  VAL204     -0.1245
    182  CA         1.2870    6.6790  -23.6010 C.3   204  VAL204      0.1561
    183  C          1.3570    6.9520  -22.0940 C.2   204  VAL204      0.2260
    184  O          1.9860    6.2050  -21.3460 O.2   204  VAL204     -0.2867
    185  CB         0.4550    5.4060  -23.8130 C.3   204  VAL204      0.0252
    186  CG1       -0.8840    5.5660  -23.1460 C.3   204  VAL204      0.0019
    187  CG2        0.2950    5.1100  -25.3140 C.3   204  VAL204      0.0019
    188  N         -0.8580    6.5160  -19.0870 N.3   206  TRP206     -0.1241
    189  CA        -2.0890    5.7620  -18.8090 C.3   206  TRP206      0.1605
    190  C         -2.8180    6.3100  -17.6000 C.2   206  TRP206      0.2264
    191  O         -2.2000    6.6460  -16.5940 O.2   206  TRP206     -0.2867
    192  CB        -1.7840    4.2700  -18.5960 C.3   206  TRP206      0.0550
    193  CG        -1.6390    3.5330  -19.8810 C.ar  206  TRP206      0.0003
    194  CD1       -0.4810    3.2510  -20.5340 C.ar  206  TRP206      0.0946
    195  CD2       -2.6990    3.0130  -20.6920 C.ar  206  TRP206      0.0152
    196  NE1       -0.7470    2.5760  -21.7060 N.ar  206  TRP206     -0.2442
    197  CE2       -2.1060    2.4270  -21.8280 C.ar  206  TRP206      0.0810
    198  CE3       -4.0920    2.9910  -20.5720 C.ar  206  TRP206      0.0012
    199  CZ2       -2.8550    1.8160  -22.8270 C.ar  206  TRP206      0.0191
    200  CZ3       -4.8350    2.3800  -21.5630 C.ar  206  TRP206      0.0001
    201  CH2       -4.2190    1.8040  -22.6740 C.ar  206  TRP206      0.0015
@<TRIPOS>BOND
     1    16    17    1
     2    16    15    1
     3    16    19    1
     4    17    18    2
     5   109   106    1
     6     1     2    1
     7    20    19    1
     8    19    21    1
     9     4     3    2
    10     2     3    1
    11     2     5    1
    12     7     9   ar
    13     7     6   ar
    14   106   105    1
    15   106   107    1
    16     9    10   ar
    17    22    23    1
    18   105    99   am
    19   107   108    2
    20     6     5    1
    21     6     8   ar
    22   180   179    1
    23    29    31   ar
    24    29    27   ar
    25    10     8   ar
    26    10    12   ar
    27    31    30   ar
    28     8    11   ar
    29    23    26    1
    30    23    24    1
    31    35    34    2
    32    97    98    1
    33   104   102    1
    34    12    14   ar
    35    99    98    1
    36    99   100    2
    37   101    98    1
    38   101   102    1
    39    27    26    1
    40    27    28   ar
    41   179   178   ar
    42   179   177   ar
    43   166   167    1
    44   166   163    1
    45   102   103    1
    46    32    33    1
    47    36    37    1
    48    36    33    1
    49    30    28   ar
    50    38    37   ar
    51    38    40   ar
    52    11    13   ar
    53   168   167    1
    54   168   162    1
    55    24    25    2
    56    34    33    1
    57    14    13   ar
    58   159   160    1
    59   159   156    1
    60   178   176   ar
    61    37    39   ar
    62   177   175   ar
    63   158   157    2
    64   114   111    1
    65   162   163    1
    66   162   157   am
    67    40    41   ar
    68   163   164    1
    69   157   156    1
    70   160   161    1
    71    39    41   ar
    72    45    44    2
    73   156   155    1
    74    49    51   ar
    75    49    47   ar
    76   176   174   ar
    77   153   151   ar
    78   153   154   ar
    79   110   111    1
    80   175   174   ar
    81   111   112    1
    82    46    47    1
    83    46    43    1
    84   161   155    1
    85    51    52   ar
    86   164   165    2
    87   151   150   ar
    88    57    58    1
    89    57    54    1
    90   155   147   am
    91    58    59    1
    92    44    43    1
    93    44    53   am
    94    47    48   ar
    95   174   173    1
    96   154   152   ar
    97   112   113    2
    98    43    42    1
    99    61    59   am
   100    59    60    2
   101   150   152   ar
   102   150   149    1
   103    54    53    1
   104    54    55    1
   105    52    50   ar
   106   136   135    1
   107   147   148    2
   108   147   146    1
   109    48    50   ar
   110   149   146    1
   111   173   170    1
   112   146   145    1
   113   169   170    1
   114    66    67    1
   115    66    63    1
   116    55    56    2
   117   122   120    1
   118   170   171    1
   119   135   137    1
   120   135   134    1
   121    67    68   ar
   122    67    69   ar
   123   121   120    1
   124    68    70   ar
   125   134   131    1
   126    63    62    1
   127    63    64    1
   128   145   140   am
   129   120   119    1
   130    69    71   ar
   131    70    71   ar
   132    96    93    1
   133   171   172    2
   134    95    94    2
   135    64    65    2
   136   140   141    2
   137   140   139    1
   138    80    78   ar
   139    80    81   ar
   140   131   132    1
   141   131   130    1
   142    94    93    1
   143   119   116    1
   144    78    77   ar
   145   132   138   am
   146   132   133    2
   147    93    92    1
   148    81    79   ar
   149   138   139    1
   150   115   116    1
   151   116   117    1
   152   139   142    1
   153   143   142    1
   154    77    79   ar
   155    77    76    1
   156    73    72    1
   157    73    76    1
   158    73    74    1
   159    85    84    2
   160   187   185    1
   161   142   144    1
   162    74    75    2
   163   129   127    1
   164    86    87    1
   165    86    83    1
   166   117   118    2
   167    84    83    1
   168    88    87   ar
   169    88    90   ar
   170   181   182    1
   171    87    89   ar
   172    83    82    1
   173   185   182    1
   174   185   186    1
   175   128   127    1
   176   182   183    1
   177    90    91   ar
   178   127   124    1
   179   199   201   ar
   180   199   197   ar
   181   124   123    1
   182   124   125    1
   183   201   200   ar
   184    89    91   ar
   185   183   184    2
   186   197   196   ar
   187   197   195   ar
   188   196   194   ar
   189   200   198   ar
   190   125   126    2
   191   195   198   ar
   192   195   193   ar
   193   194   193   ar
   194   193   192    1
   195   188   189    1
   196   189   192    1
   197   189   190    1
   198   190   191    2
