@<TRIPOS>MOLECULE
tmp/5gmmA02.pdb
 80 79 0 0 0
SMALL
GASTEIGER

@<TRIPOS>ATOM
      1  N          8.5060   -6.1020  -33.9350 N.3    17  TYR17      -0.1241
      2  CA         8.3890   -4.9120  -33.0940 C.3    17  TYR17       0.1605
      3  C          9.1850   -5.1120  -31.8020 C.2    17  TYR17       0.2264
      4  O          8.6210   -5.3910  -30.7450 O.2    17  TYR17      -0.2867
      5  CB         6.9130   -4.5930  -32.8010 C.3    17  TYR17       0.0534
      6  CG         6.0600   -4.5190  -34.0440 C.ar   17  TYR17      -0.0201
      7  CD1        5.4540   -5.6550  -34.5600 C.ar   17  TYR17      -0.0009
      8  CD2        5.8640   -3.3200  -34.7100 C.ar   17  TYR17      -0.0009
      9  CE1        4.6810   -5.6050  -35.7040 C.ar   17  TYR17       0.0417
     10  CE2        5.0830   -3.2600  -35.8680 C.ar   17  TYR17       0.0417
     11  CZ         4.5030   -4.4050  -36.3580 C.ar   17  TYR17       0.1957
     12  OH         3.7290   -4.3630  -37.5010 O.3    17  TYR17      -0.2866
     13  N         -1.6730   14.0700  -34.6370 N.3   128  LEU128     -0.1231
     14  CA        -1.6500   12.7470  -34.0210 C.3   128  LEU128      0.1693
     15  C         -0.4000   12.0080  -34.4580 C.2   128  LEU128      0.2592
     16  O          0.2890   11.4010  -33.6520 O.2   128  LEU128     -0.2718
     17  CB        -2.8870   11.9570  -34.4170 C.3   128  LEU128      0.0284
     18  CG        -2.9940   10.5040  -33.9600 C.3   128  LEU128      0.0019
     19  CD1       -3.0880   10.4380  -32.4490 C.3   128  LEU128      0.0001
     20  CD2       -4.2360    9.8840  -34.5930 C.3   128  LEU128      0.0001
     21  N         -0.1210   12.0830  -35.7530 N.am  129  ALA129     -0.1966
     22  CA         1.0590   11.4650  -36.3340 C.3   129  ALA129      0.1728
     23  C          2.3500   11.9100  -35.6530 C.2   129  ALA129      0.2616
     24  O          3.1940   11.0720  -35.3640 O.2   129  ALA129     -0.2715
     25  CB         1.1250   11.7600  -37.8300 C.3   129  ALA129      0.0334
     26  N          2.5040   13.2070  -35.3840 N.am  130  GLU130     -0.1977
     27  CA         3.7330   13.6890  -34.7640 C.3   130  GLU130      0.1602
     28  C          3.7960   13.2370  -33.3120 C.2   130  GLU130      0.2287
     29  O          4.8620   12.9280  -32.8050 O.2   130  GLU130     -0.2864
     30  CB         3.8600   15.2230  -34.8320 C.3   130  GLU130      0.0415
     31  CG         5.2260   15.7110  -34.3110 C.3   130  GLU130      0.1163
     32  CD         5.4410   17.2330  -34.3500 C.2   130  GLU130      0.3649
     33  OE1        4.5530   18.0160  -33.9740 O.co2 130  GLU130     -0.2457
     34  OE2        6.5290   17.6520  -34.7700 O.co2 130  GLU130     -0.2457
     35  N          2.4130   10.5740  -32.0090 N.3   132  ALA132     -0.1231
     36  CA         2.2120    9.1260  -31.8840 C.3   132  ALA132      0.1694
     37  C          3.3440    8.3800  -31.1980 C.2   132  ALA132      0.2593
     38  O          3.1170    7.3820  -30.5040 O.2   132  ALA132     -0.2718
     39  CB         1.9830    8.5210  -33.2730 C.3   132  ALA132      0.0304
     40  N          4.5610    8.8580  -31.4150 N.am  133  SER133     -0.1938
     41  CA         5.7480    8.1840  -30.9240 C.3   133  SER133      0.2055
     42  C          6.5640    9.0520  -29.9720 C.2   133  SER133      0.2642
     43  O          7.7570    8.8220  -29.8030 O.2   133  SER133     -0.2714
     44  CB         6.6300    7.7680  -32.0970 C.3   133  SER133      0.2130
     45  OG         7.1020    8.9240  -32.7610 O.3   133  SER133     -0.2179
     46  N          5.9380   10.0610  -29.3800 N.am  134  LYS134     -0.1977
     47  CA         6.6030   10.8670  -28.3640 C.3   134  LYS134      0.1596
     48  C          6.2010   10.3850  -26.9780 C.2   134  LYS134      0.2287
     49  O          5.0480   10.0130  -26.7780 O.2   134  LYS134     -0.2864
     50  CB         6.2500   12.3400  -28.5300 C.3   134  LYS134      0.0298
     51  CG         6.4500   12.8580  -29.9470 C.3   134  LYS134      0.0038
     52  CD         7.8670   12.5710  -30.4210 C.3   134  LYS134      0.0206
     53  CE         8.8950   13.3380  -29.6070 C.3   134  LYS134      0.1093
     54  NZ        10.0760   13.6510  -30.4710 N.3   134  LYS134     -0.1314
     55  N          0.9700   -3.6240  -31.5360 N.3   198  PRO198     -0.2103
     56  CA         1.8670   -2.9390  -32.4790 C.3   198  PRO198      0.1489
     57  C          1.2310   -1.6880  -33.0670 C.2   198  PRO198      0.2417
     58  O          0.0300   -1.6680  -33.3290 O.2   198  PRO198     -0.2734
     59  CB         2.1270   -4.0070  -33.5520 C.3   198  PRO198      0.0282
     60  CG         2.0530   -5.2760  -32.7900 C.3   198  PRO198      0.0208
     61  CD         0.9300   -5.0770  -31.7940 C.3   198  PRO198      0.0893
     62  N          2.0260   -0.6370  -33.2580 N.am  199  PRO199     -0.2729
     63  CA         3.4960   -0.5950  -33.1750 C.3   199  PRO199      0.1401
     64  C          4.1000   -0.5000  -31.7600 C.2   199  PRO199      0.2269
     65  O          5.3250   -0.4390  -31.6500 O.2   199  PRO199     -0.2865
     66  CB         3.8280    0.6620  -33.9800 C.3   199  PRO199      0.0296
     67  CG         2.6550    1.5660  -33.6810 C.3   199  PRO199      0.0237
     68  CD         1.4650    0.6420  -33.7260 C.3   199  PRO199      0.0939
     69  N          4.4980    1.7350  -29.4690 N.3   201  TYR201     -0.1241
     70  CA         5.2550    2.9180  -29.0560 C.3   201  TYR201      0.1605
     71  C          5.1070    3.1990  -27.5670 C.2   201  TYR201      0.2264
     72  O          4.0080    3.1270  -27.0450 O.2   201  TYR201     -0.2867
     73  CB         4.7920    4.1590  -29.8190 C.3   201  TYR201      0.0534
     74  CG         4.8970    4.0950  -31.3190 C.ar  201  TYR201     -0.0201
     75  CD1        5.9800    3.4830  -31.9480 C.ar  201  TYR201     -0.0009
     76  CD2        3.9120    4.6700  -32.1140 C.ar  201  TYR201     -0.0009
     77  CE1        6.0720    3.4430  -33.3430 C.ar  201  TYR201      0.0417
     78  CE2        3.9910    4.6380  -33.5030 C.ar  201  TYR201      0.0417
     79  CZ         5.0680    4.0230  -34.1130 C.ar  201  TYR201      0.1957
     80  OH         5.1290    3.9920  -35.4870 O.3   201  TYR201     -0.2866
@<TRIPOS>BOND
     1    25    22    1
     2    12    11    1
     3    11    10   ar
     4    11     9   ar
     5    22    21    1
     6    22    23    1
     7    10     8   ar
     8    21    15   am
     9     9     7   ar
    10    23    26   am
    11    23    24    2
    12    80    79    1
    13    26    27    1
    14    30    27    1
    15    30    31    1
    16    34    32   ar
    17    27    28    1
    18     8     6   ar
    19    13    14    1
    20    20    18    1
    21     7     6   ar
    22    15    14    1
    23    15    16    2
    24    17    14    1
    25    17    18    1
    26    32    31    1
    27    32    33   ar
    28    79    78   ar
    29    79    77   ar
    30     6     5    1
    31    66    67    1
    32    66    63    1
    33    18    19    1
    34     1     2    1
    35    68    67    1
    36    68    62    1
    37    59    60    1
    38    59    56    1
    39    78    76   ar
    40    77    75   ar
    41    58    57    2
    42    28    29    2
    43    39    36    1
    44    62    63    1
    45    62    57   am
    46    63    64    1
    47     2     5    1
    48     2     3    1
    49    57    56    1
    50    60    61    1
    51    45    44    1
    52    56    55    1
    53    76    74   ar
    54    44    41    1
    55    35    36    1
    56    75    74   ar
    57    36    37    1
    58     3     4    2
    59    61    55    1
    60    64    65    2
    61    40    37   am
    62    40    41    1
    63    74    73    1
    64    37    38    2
    65    41    42    1
    66    54    53    1
    67    52    51    1
    68    52    53    1
    69    42    43    2
    70    42    46   am
    71    51    50    1
    72    73    70    1
    73    69    70    1
    74    46    47    1
    75    70    71    1
    76    50    47    1
    77    47    48    1
    78    71    72    2
    79    48    49    2
