@<TRIPOS>MOLECULE
tmp/5gmnA00.pdb
 152 147 0 0 0
SMALL
GASTEIGER

@<TRIPOS>ATOM
      1  N         19.6390    2.2780   17.0910 N.3    88  ILE88      -0.1231
      2  CA        18.7500    1.7730   18.1340 C.3    88  ILE88       0.1692
      3  C         18.2370    0.3590   17.8320 C.2    88  ILE88       0.2591
      4  O         17.9250   -0.4070   18.7460 O.2    88  ILE88      -0.2718
      5  CB        17.5490    2.7490   18.3520 C.3    88  ILE88       0.0266
      6  CG1       16.5820    2.2310   19.4270 C.3    88  ILE88       0.0019
      7  CG2       16.8230    3.0430   17.0410 C.3    88  ILE88       0.0020
      8  CD1       15.5070    3.2230   19.8090 C.3    88  ILE88       0.0001
      9  N         18.1670   -0.0000   16.5510 N.am   89  GLN89      -0.1979
     10  CA        17.5140   -1.2440   16.1800 C.3    89  GLN89       0.1601
     11  C         17.8020   -1.6190   14.7320 C.2    89  GLN89       0.2287
     12  O         18.0130   -0.7360   13.9060 O.2    89  GLN89      -0.2864
     13  CB        16.0000   -1.0990   16.3920 C.3    89  GLN89       0.0394
     14  CG        15.2130   -2.3750   16.2680 C.3    89  GLN89       0.0908
     15  CD        14.3340   -2.3800   15.0330 C.2    89  GLN89       0.2608
     16  OE1       14.8100   -2.1760   13.9150 O.2    89  GLN89      -0.2717
     17  NE2       13.0430   -2.6040   15.2330 N.am   89  GLN89      -0.0878
     18  N         16.2410   -4.5970   11.6280 N.3    91  HIS91      -0.1241
     19  CA        15.2910   -5.6430   11.2520 C.3    91  HIS91       0.1621
     20  C         15.3460   -5.8140    9.7400 C.2    91  HIS91       0.2264
     21  O         16.0250   -5.0460    9.0400 O.2    91  HIS91      -0.2867
     22  CB        13.8660   -5.2870   11.6830 C.3    91  HIS91       0.0745
     23  CG        13.3370   -4.0590   11.0130 C.ar   91  HIS91       0.0817
     24  ND1       13.5130   -2.7960   11.5350 N.ar   91  HIS91      -0.2268
     25  CD2       12.6990   -3.8920    9.8290 C.ar   91  HIS91       0.1154
     26  CE1       12.9770   -1.9060   10.7190 C.ar   91  HIS91       0.1986
     27  NE2       12.4850   -2.5430    9.6720 N.ar   91  HIS91      -0.2212
     28  N         13.0430   -7.1760    5.9710 N.3    93  HIS93      -0.1241
     29  CA        11.8050   -7.5100    5.2570 C.3    93  HIS93       0.1621
     30  C         12.1960   -8.5270    4.2020 C.2    93  HIS93       0.2264
     31  O         13.2330   -8.3620    3.5690 O.2    93  HIS93      -0.2867
     32  CB        11.1710   -6.2850    4.5970 C.3    93  HIS93       0.0745
     33  CG        10.8960   -5.1620    5.5480 C.ar   93  HIS93       0.0817
     34  ND1        9.6520   -4.9340    6.0980 N.ar   93  HIS93      -0.2268
     35  CD2       11.7160   -4.2170    6.0620 C.ar   93  HIS93       0.1154
     36  CE1        9.7150   -3.8890    6.9040 C.ar   93  HIS93       0.1986
     37  NE2       10.9570   -3.4350    6.9000 N.ar   93  HIS93      -0.2212
     38  N         17.0930   -3.0220    7.3650 N.3   116  HIS116     -0.1241
     39  CA        16.8610   -1.6570    7.8210 C.3   116  HIS116      0.1621
     40  C         17.5580   -1.4450    9.1560 C.2   116  HIS116      0.2264
     41  O         17.1550   -2.0130   10.1680 O.2   116  HIS116     -0.2867
     42  CB        15.3510   -1.3660    7.9680 C.3   116  HIS116      0.0745
     43  CG        14.6360   -1.2410    6.6530 C.ar  116  HIS116      0.0817
     44  ND1       13.2710   -1.3960    6.5270 N.ar  116  HIS116     -0.2268
     45  CD2       15.1050   -0.9880    5.4100 C.ar  116  HIS116      0.1154
     46  CE1       12.9300   -1.2400    5.2560 C.ar  116  HIS116      0.1986
     47  NE2       14.0220   -0.9870    4.5590 N.ar  116  HIS116     -0.2212
     48  N         17.9620    1.1630   11.8810 N.3   118  VAL118     -0.1245
     49  CA        17.1910    2.3140   12.3180 C.3   118  VAL118      0.1561
     50  C         17.9920    3.1620   13.2970 C.2   118  VAL118      0.2260
     51  O         18.5200    2.6460   14.2890 O.2   118  VAL118     -0.2867
     52  CB        15.8730    1.8640   12.9770 C.3   118  VAL118      0.0252
     53  CG1       15.0280    3.0780   13.4100 C.3   118  VAL118      0.0019
     54  CG2       15.0930    0.9800   12.0190 C.3   118  VAL118      0.0019
     55  N         14.3940    8.6910   20.5760 N.3   127  PHE127     -0.1241
     56  CA        13.6590    8.2000   19.4080 C.3   127  PHE127      0.1605
     57  C         12.2070    8.6750   19.4260 C.2   127  PHE127      0.2264
     58  O         11.6320    8.9560   18.3760 O.2   127  PHE127     -0.2867
     59  CB        13.7200    6.6690   19.3230 C.3   127  PHE127      0.0534
     60  CG        12.7110    5.9730   20.1870 C.ar  127  PHE127     -0.0203
     61  CD1       12.9930    5.6900   21.5160 C.ar  127  PHE127     -0.0042
     62  CD2       11.4690    5.6100   19.6720 C.ar  127  PHE127     -0.0042
     63  CE1       12.0590    5.0540   22.3230 C.ar  127  PHE127     -0.0003
     64  CE2       10.5290    4.9830   20.4700 C.ar  127  PHE127     -0.0003
     65  CZ        10.8260    4.7040   21.8000 C.ar  127  PHE127     -0.0000
     66  N         10.5860   10.7410   16.0460 N.3   131  VAL131     -0.1245
     67  CA         9.5920   10.3230   15.0530 C.3   131  VAL131      0.1561
     68  C          8.5250   11.3990   14.7990 C.2   131  VAL131      0.2260
     69  O          7.7200   11.2620   13.8830 O.2   131  VAL131     -0.2867
     70  CB         8.9240    8.9940   15.4490 C.3   131  VAL131      0.0252
     71  CG1        9.9630    7.8670   15.4150 C.3   131  VAL131      0.0019
     72  CG2        8.2700    9.0960   16.8240 C.3   131  VAL131      0.0019
     73  N         14.3960   10.2820   11.9070 N.3   137  LEU137     -0.1245
     74  CA        15.1370    9.0390   11.8040 C.3   137  LEU137      0.1561
     75  C         15.9800    9.0100   10.5470 C.2   137  LEU137      0.2260
     76  O         15.5860    9.5440    9.5020 O.2   137  LEU137     -0.2867
     77  CB        14.2020    7.8340   11.7750 C.3   137  LEU137      0.0270
     78  CG        13.2070    7.6380   12.9130 C.3   137  LEU137      0.0019
     79  CD1       12.4180    6.3470   12.7020 C.3   137  LEU137      0.0001
     80  CD2       13.9360    7.6150   14.2360 C.3   137  LEU137      0.0001
     81  N         17.1020    5.8280    8.3750 N.3   139  VAL139     -0.1245
     82  CA        17.1080    4.3790    8.2050 C.3   139  VAL139      0.1561
     83  C         18.0450    4.0530    7.0580 C.2   139  VAL139      0.2260
     84  O         17.8940    4.5660    5.9610 O.2   139  VAL139     -0.2867
     85  CB        15.7150    3.7920    7.9300 C.3   139  VAL139      0.0252
     86  CG1       15.7870    2.2610    7.9140 C.3   139  VAL139      0.0019
     87  CG2       14.7330    4.2390    9.0050 C.3   139  VAL139      0.0019
     88  N          8.1440    5.8060    7.6180 N.3   194  LEU194     -0.1231
     89  CA         8.1520    4.4330    8.0990 C.3   194  LEU194      0.1693
     90  C          7.4230    3.5820    7.0670 C.2   194  LEU194      0.2593
     91  O          6.4140    4.0170    6.5070 O.2   194  LEU194     -0.2718
     92  CB         7.4420    4.3230    9.4550 C.3   194  LEU194      0.0284
     93  CG         7.8490    5.2770   10.5660 C.3   194  LEU194      0.0019
     94  CD1        6.9450    5.0430   11.7830 C.3   194  LEU194      0.0001
     95  CD2        9.3240    5.0450   10.9140 C.3   194  LEU194      0.0001
     96  N          7.8990    2.3680    6.8230 N.am  195  THR195     -0.1939
     97  CA         7.2390    1.5030    5.8430 C.3   195  THR195      0.2028
     98  C          6.2290    0.5450    6.4950 C.2   195  THR195      0.2643
     99  O          5.6480   -0.3220    5.8190 O.2   195  THR195     -0.2714
    100  CB         8.2450    0.6580    5.0560 C.3   195  THR195      0.1808
    101  OG1        8.8280   -0.3130    5.9290 O.3   195  THR195     -0.2208
    102  CG2        9.3430    1.5260    4.4080 C.3   195  THR195      0.0379
    103  N          6.0420    0.6790    7.8040 N.am  196  THR196     -0.1937
    104  CA         4.9340    0.0120    8.4960 C.3   196  THR196      0.2013
    105  C          4.0910    1.0550    9.2180 C.2   196  THR196      0.2484
    106  O          4.5770    2.1400    9.5020 O.2   196  THR196     -0.2729
    107  CB         5.4160   -1.0310    9.5310 C.3   196  THR196      0.1807
    108  OG1        6.0750   -0.3720   10.6180 O.3   196  THR196     -0.2208
    109  CG2        6.3760   -2.0260    8.9130 C.3   196  THR196      0.0379
    110  N          2.8110    0.7420    9.4890 N.am  197  PRO197     -0.2715
    111  CA         2.0330    1.5950   10.3900 C.3   197  PRO197      0.1521
    112  C          2.8510    1.8830   11.6550 C.2   197  PRO197      0.2440
    113  O          3.4850    0.9660   12.1680 O.2   197  PRO197     -0.2731
    114  CB         0.7970    0.7460   10.6890 C.3   197  PRO197      0.0310
    115  CG         0.6020   -0.0390    9.4160 C.3   197  PRO197      0.0237
    116  CD         2.0080   -0.3770    8.9560 C.3   197  PRO197      0.0939
    117  N          2.8340    3.1260   12.1580 N.am  198  PRO198     -0.2727
    118  CA         1.9460    4.2430   11.8070 C.3   198  PRO198      0.1402
    119  C          2.3130    5.0400   10.5570 C.2   198  PRO198      0.2269
    120  O          1.6460    6.0420   10.3080 O.2   198  PRO198     -0.2865
    121  CB         2.0330    5.1420   13.0460 C.3   198  PRO198      0.0296
    122  CG         3.3890    4.9080   13.5720 C.3   198  PRO198      0.0237
    123  CD         3.7210    3.4680   13.2880 C.3   198  PRO198      0.0939
    124  N          4.5080    7.1200    9.7630 N.3   200  LEU200     -0.1245
    125  CA         4.9260    8.5020    9.9980 C.3   200  LEU200      0.1561
    126  C          5.9670    8.9490    8.9800 C.2   200  LEU200      0.2260
    127  O          6.9020    8.2050    8.6780 O.2   200  LEU200     -0.2867
    128  CB         5.4940    8.6520   11.4070 C.3   200  LEU200      0.0270
    129  CG         4.5100    8.2310   12.4990 C.3   200  LEU200      0.0019
    130  CD1        5.1730    8.3470   13.8680 C.3   200  LEU200      0.0001
    131  CD2        3.2410    9.0760   12.4110 C.3   200  LEU200      0.0001
    132  N         11.2650    9.9660    8.1630 N.3   203  VAL203     -0.1245
    133  CA        12.5030    9.2760    7.8000 C.3   203  VAL203      0.1561
    134  C         13.3120    9.9230    6.6810 C.2   203  VAL203      0.2260
    135  O         12.7990   10.1830    5.5890 O.2   203  VAL203     -0.2867
    136  CB        12.2210    7.8210    7.3710 C.3   203  VAL203      0.0252
    137  CG1       13.5160    7.1130    7.0070 C.3   203  VAL203      0.0019
    138  CG2       11.5070    7.0730    8.4970 C.3   203  VAL203      0.0019
    139  N         15.6710    8.6200    4.2880 N.3   205  TRP205     -0.1241
    140  CA        16.0760    7.3260    3.7750 C.3   205  TRP205      0.1605
    141  C         17.4630    7.3820    3.1590 C.2   205  TRP205      0.2264
    142  O         17.7890    8.2940    2.4010 O.2   205  TRP205     -0.2867
    143  CB        15.0370    6.8040    2.7670 C.3   205  TRP205      0.0550
    144  CG        13.9400    6.0880    3.4800 C.ar  205  TRP205      0.0003
    145  CD1       12.7010    6.5800    3.8000 C.ar  205  TRP205      0.0946
    146  CD2       14.0010    4.7650    4.0300 C.ar  205  TRP205      0.0152
    147  NE1       11.9820    5.6290    4.4910 N.ar  205  TRP205     -0.2442
    148  CE2       12.7600    4.5120    4.6480 C.ar  205  TRP205      0.0810
    149  CE3       14.9830    3.7650    4.0440 C.ar  205  TRP205      0.0012
    150  CZ2       12.4740    3.3000    5.2790 C.ar  205  TRP205      0.0191
    151  CZ3       14.6970    2.5550    4.6610 C.ar  205  TRP205      0.0001
    152  CH2       13.4600    2.3370    5.2820 C.ar  205  TRP205      0.0015
@<TRIPOS>BOND
     1   142   141    2
     2   143   144    1
     3   143   140    1
     4   141   140    1
     5   144   145   ar
     6   144   146   ar
     7    31    30    2
     8   140   139    1
     9   145   147   ar
    10   146   149   ar
    11   146   148   ar
    12   149   151   ar
    13    30    29    1
    14   102   100    1
    15   147   148   ar
    16    47    46   ar
    17    47    45   ar
    18    32    29    1
    19    32    33    1
    20   148   150   ar
    21   151   152   ar
    22   100    97    1
    23   100   101    1
    24    46    44   ar
    25    29    28    1
    26   150   152   ar
    27    45    43   ar
    28    33    35   ar
    29    33    34   ar
    30   135   134    2
    31    99    98    2
    32    97    98    1
    33    97    96    1
    34    84    83    2
    35    35    37   ar
    36    34    36   ar
    37    98   103   am
    38    91    90    2
    39    44    43   ar
    40    43    42    1
    41   134   133    1
    42    96    90   am
    43    37    36   ar
    44   137   136    1
    45    83    82    1
    46    90    89    1
    47    38    39    1
    48   136   133    1
    49   136   138    1
    50    88    89    1
    51   133   132    1
    52   103   104    1
    53    39    42    1
    54    39    40    1
    55    86    85    1
    56    85    82    1
    57    85    87    1
    58    89    92    1
    59    82    81    1
    60   104   105    1
    61   104   107    1
    62   127   126    2
    63   109   107    1
    64   116   115    1
    65   116   110    1
    66   126   125    1
    67    21    20    2
    68    40    41    2
    69   105   110   am
    70   105   106    2
    71   115   114    1
    72    92    93    1
    73   110   111    1
    74    76    75    2
    75   107   108    1
    76    27    25   ar
    77    27    26   ar
    78    20    19    1
    79   124   125    1
    80    25    23   ar
    81   125   128    1
    82   120   119    2
    83   111   114    1
    84   111   112    1
    85    75    74    1
    86   119   118    1
    87    93    95    1
    88    93    94    1
    89    26    24   ar
    90    23    24   ar
    91    23    22    1
    92    19    18    1
    93    19    22    1
    94   128   129    1
    95   112   117   am
    96   112   113    2
    97    77    74    1
    98    77    78    1
    99    74    73    1
   100   118   117    1
   101   118   121    1
   102    48    49    1
   103    54    52    1
   104   117   123    1
   105    49    52    1
   106    49    50    1
   107   131   129    1
   108   129   130    1
   109    79    78    1
   110    78    80    1
   111    52    53    1
   112   121   122    1
   113   123   122    1
   114    50    51    2
   115    69    68    2
   116    12    11    2
   117    16    15    2
   118    11    10    1
   119    68    67    1
   120    15    17   am
   121    15    14    1
   122    67    70    1
   123    67    66    1
   124    71    70    1
   125    70    72    1
   126    10    13    1
   127    10     9    1
   128    14    13    1
   129     9     3   am
   130     7     5    1
   131     1     2    1
   132     3     2    1
   133     3     4    2
   134     2     5    1
   135     5     6    1
   136    58    57    2
   137    59    56    1
   138    59    60    1
   139    56    57    1
   140    56    55    1
   141     6     8    1
   142    62    60   ar
   143    62    64   ar
   144    60    61   ar
   145    64    65   ar
   146    61    63   ar
   147    65    63   ar
