@<TRIPOS>MOLECULE
tmp/5gmpA00.pdb
 176 165 0 0 0
SMALL
GASTEIGER

@<TRIPOS>ATOM
      1  N        -10.2150  -46.2510  127.1720 N.3    21  LYS21      -0.1245
      2  CA        -9.1730  -45.5210  127.8660 C.3    21  LYS21       0.1561
      3  C         -7.9830  -45.3560  126.9480 C.2    21  LYS21       0.2260
      4  O         -7.8490  -46.0860  125.9850 O.2    21  LYS21      -0.2867
      5  CB        -8.7680  -46.3000  129.1090 C.3    21  LYS21       0.0271
      6  CG        -8.0490  -45.4920  130.1710 C.3    21  LYS21       0.0035
      7  CD        -7.8340  -46.3310  131.4200 C.3    21  LYS21       0.0206
      8  CE        -6.4630  -46.0980  132.0300 C.3    21  LYS21       0.1093
      9  NZ        -6.3870  -46.5820  133.4350 N.3    21  LYS21      -0.1314
     10  N         -4.2230  -45.9370  126.4120 N.3    23  LEU23      -0.1231
     11  CA        -2.9600  -46.5500  126.8030 C.3    23  LEU23       0.1693
     12  C         -1.7220  -45.7100  126.5120 C.2    23  LEU23       0.2592
     13  O         -0.8240  -45.5960  127.3330 O.2    23  LEU23      -0.2718
     14  CB        -2.8220  -47.9220  126.1530 C.3    23  LEU23       0.0284
     15  CG        -4.0510  -48.7960  126.3270 C.3    23  LEU23       0.0019
     16  CD1       -3.9030  -50.1090  125.5910 C.3    23  LEU23       0.0001
     17  CD2       -4.3060  -49.0160  127.7990 C.3    23  LEU23       0.0001
     18  N         -1.6780  -45.1290  125.3280 N.am   24  GLY24      -0.1957
     19  CA        -0.5100  -44.3860  124.9110 C.3    24  GLY24       0.1869
     20  C         -0.8640  -43.3700  123.8590 C.2    24  GLY24       0.2309
     21  O         -1.8660  -43.5080  123.1780 O.2    24  GLY24      -0.2863
     22  N         -3.0370  -45.0670  120.8450 N.3    31  VAL31      -0.1245
     23  CA        -3.6300  -46.3890  120.9500 C.3    31  VAL31       0.1561
     24  C         -4.4860  -46.4960  122.2030 C.2    31  VAL31       0.2260
     25  O         -4.0780  -46.1010  123.2800 O.2    31  VAL31      -0.2867
     26  CB        -2.5650  -47.5000  120.9100 C.3    31  VAL31       0.0252
     27  CG1       -1.2180  -46.9670  121.3480 C.3    31  VAL31       0.0019
     28  CG2       -2.9810  -48.6840  121.7560 C.3    31  VAL31       0.0019
     29  N         -7.2460  -48.6010  124.8430 N.3    33  LYS33      -0.1245
     30  CA        -7.8570  -49.7980  125.3840 C.3    33  LYS33       0.1561
     31  C         -9.2950  -49.8190  124.8980 C.2    33  LYS33       0.2260
     32  O         -9.9210  -48.7830  124.8090 O.2    33  LYS33      -0.2867
     33  CB        -7.8140  -49.7560  126.9010 C.3    33  LYS33       0.0271
     34  CG        -8.3710  -50.9840  127.5910 C.3    33  LYS33       0.0035
     35  CD        -8.1290  -50.9060  129.0840 C.3    33  LYS33       0.0206
     36  CE        -9.4050  -51.1490  129.8650 C.3    33  LYS33       0.1093
     37  NZ        -9.2180  -50.9180  131.3220 N.3    33  LYS33      -0.1314
     38  N         -6.8280  -53.5200  121.5630 N.3    48  ALA48      -0.1245
     39  CA        -6.0500  -52.3090  121.5580 C.3    48  ALA48       0.1562
     40  C         -6.2920  -51.6290  120.2210 C.2    48  ALA48       0.2260
     41  O         -6.0020  -52.1830  119.1780 O.2    48  ALA48      -0.2867
     42  CB        -4.5860  -52.6340  121.7330 C.3    48  ALA48       0.0290
     43  N         -5.4420  -48.6370  117.7020 N.3    50  LYS50      -0.1245
     44  CA        -4.4470  -47.6370  117.4000 C.3    50  LYS50       0.1561
     45  C         -4.8890  -46.8500  116.1810 C.2    50  LYS50       0.2260
     46  O         -5.2240  -47.4210  115.1610 O.2    50  LYS50      -0.2867
     47  CB        -3.0970  -48.3080  117.1830 C.3    50  LYS50       0.0271
     48  CG        -2.4740  -48.0810  115.8270 C.3    50  LYS50       0.0035
     49  CD        -1.0330  -47.6360  115.9640 C.3    50  LYS50       0.0206
     50  CE        -0.1020  -48.8130  116.1580 C.3    50  LYS50       0.1093
     51  NZ         1.2770  -48.4390  115.7540 N.3    50  LYS50      -0.1314
     52  N          1.7750  -61.2280  118.0480 N.3    80  CYS80      -0.1235
     53  CA         0.5210  -60.5100  118.2470 C.3    80  CYS80       0.1677
     54  C         -0.4210  -60.5230  117.0500 C.2    80  CYS80       0.2270
     55  O          0.0040  -60.3760  115.9170 O.2    80  CYS80      -0.2867
     56  CB         0.8020  -59.0760  118.6820 C.3    80  CYS80       0.0956
     57  SG        -0.6790  -58.1380  119.1010 S.3    80  CYS80      -0.0801
     58  N         -6.4670  -54.5680  117.5750 N.3    95  MET95      -0.1230
     59  CA        -5.5430  -55.6260  117.8810 C.3    95  MET95       0.1702
     60  C         -5.8790  -56.1990  119.2290 C.2    95  MET95       0.2592
     61  O         -6.5870  -55.5840  120.0000 O.2    95  MET95      -0.2718
     62  CB        -4.1270  -55.0850  117.8580 C.3    95  MET95       0.0401
     63  CG        -3.7720  -54.4550  116.5290 C.3    95  MET95       0.0596
     64  SD        -2.2540  -53.5070  116.5370 S.3    95  MET95      -0.1393
     65  CE        -2.7860  -52.0260  117.3610 C.3    95  MET95       0.0692
     66  N         -5.4020  -57.4030  119.4900 N.am   96  GLN96      -0.1966
     67  CA        -5.6170  -58.0540  120.7610 C.3    96  GLN96       0.1733
     68  C         -4.9610  -57.2690  121.8750 C.2    96  GLN96       0.2616
     69  O         -3.8580  -56.7790  121.7260 O.2    96  GLN96      -0.2715
     70  CB        -5.0410  -59.4560  120.7090 C.3    96  GLN96       0.0408
     71  CG        -4.9280  -60.1420  122.0470 C.3    96  GLN96       0.0908
     72  CD        -4.3040  -61.5070  121.9290 C.2    96  GLN96       0.2608
     73  OE1       -3.4330  -61.7250  121.0980 O.2    96  GLN96      -0.2717
     74  NE2       -4.7500  -62.4350  122.7560 N.am   96  GLN96      -0.0878
     75  N         -5.6570  -57.1680  122.9980 N.am   97  LEU97      -0.1963
     76  CA        -5.2140  -56.4000  124.1450 C.3    97  LEU97       0.1728
     77  C         -4.2410  -57.2170  124.9470 C.2    97  LEU97       0.2616
     78  O         -4.5480  -58.3270  125.3540 O.2    97  LEU97      -0.2715
     79  CB        -6.4180  -56.1020  125.0320 C.3    97  LEU97       0.0311
     80  CG        -6.5110  -54.8730  125.9310 C.3    97  LEU97       0.0022
     81  CD1       -7.0740  -55.2580  127.2770 C.3    97  LEU97       0.0001
     82  CD2       -5.1880  -54.1710  126.0890 C.3    97  LEU97       0.0001
     83  N         -3.0690  -56.6660  125.2050 N.am   98  MET98      -0.1964
     84  CA        -2.1560  -57.3280  126.1010 C.3    98  MET98       0.1722
     85  C         -2.2630  -56.5870  127.4040 C.2    98  MET98       0.2458
     86  O         -1.7000  -55.5240  127.5680 O.2    98  MET98      -0.2730
     87  CB        -0.7380  -57.2680  125.5580 C.3    98  MET98       0.0427
     88  CG        -0.6070  -57.7450  124.1260 C.3    98  MET98       0.0599
     89  SD        -1.1300  -59.4380  123.8750 S.3    98  MET98      -0.1393
     90  CE         0.3610  -60.3010  124.3020 C.3    98  MET98       0.0692
     91  N         -2.9710  -57.1930  128.3380 N.am   99  PRO99      -0.2716
     92  CA        -3.4380  -56.5380  129.5530 C.3    99  PRO99       0.1536
     93  C         -2.3190  -56.0730  130.4540 C.2    99  PRO99       0.2599
     94  O         -2.4740  -55.1000  131.1540 O.2    99  PRO99      -0.2715
     95  CB        -4.2770  -57.6150  130.2120 C.3    99  PRO99       0.0310
     96  CG        -4.8460  -58.3520  129.0650 C.3    99  PRO99       0.0237
     97  CD        -3.7880  -58.3660  128.0070 C.3    99  PRO99       0.0939
     98  N         -1.2240  -56.8060  130.4650 N.am  100  PHE100     -0.1960
     99  CA        -0.1180  -56.5260  131.3530 C.3   100  PHE100      0.1771
    100  C          0.9370  -55.6120  130.7600 C.2   100  PHE100      0.2620
    101  O          1.9580  -55.3600  131.3720 O.2   100  PHE100     -0.2715
    102  CB         0.4810  -57.8290  131.8450 C.3   100  PHE100      0.0574
    103  CG        -0.4470  -58.6080  132.7100 C.ar  100  PHE100     -0.0200
    104  CD1       -1.3880  -59.4330  132.1560 C.ar  100  PHE100     -0.0042
    105  CD2       -0.4010  -58.4760  134.0700 C.ar  100  PHE100     -0.0042
    106  CE1       -2.2570  -60.1350  132.9450 C.ar  100  PHE100     -0.0003
    107  CE2       -1.2650  -59.1740  134.8720 C.ar  100  PHE100     -0.0003
    108  CZ        -2.1930  -60.0090  134.3080 C.ar  100  PHE100     -0.0000
    109  N          0.6850  -55.1260  129.5570 N.am  101  GLY101     -0.1940
    110  CA         1.5440  -54.1340  128.9590 C.3   101  GLY101      0.2014
    111  C          2.8510  -54.6090  128.3770 C.2   101  GLY101      0.2639
    112  O          3.0080  -55.7600  128.0060 O.2   101  GLY101     -0.2714
    113  N          3.7720  -53.6610  128.2760 N.am  102  CYS102     -0.1967
    114  CA         5.1270  -53.8430  127.7810 C.3   102  CYS102      0.1712
    115  C          5.9270  -54.7770  128.6640 C.2   102  CYS102      0.2296
    116  O          5.8830  -54.6630  129.8810 O.2   102  CYS102     -0.2864
    117  CB         5.6980  -52.4630  128.0150 C.3   102  CYS102      0.0983
    118  SG         7.1640  -51.9990  127.0720 S.3   102  CYS102     -0.0798
    119  N          9.1780  -54.7720  128.8380 N.3   104  LEU104     -0.1231
    120  CA        10.2130  -53.9450  129.4250 C.3   104  LEU104      0.1693
    121  C          9.7350  -53.2290  130.6740 C.2   104  LEU104      0.2592
    122  O         10.4310  -53.1830  131.6750 O.2   104  LEU104     -0.2718
    123  CB        10.6770  -52.9110  128.4130 C.3   104  LEU104      0.0284
    124  CG        11.6470  -51.8600  128.9250 C.3   104  LEU104      0.0019
    125  CD1       13.0540  -52.4210  128.9250 C.3   104  LEU104      0.0001
    126  CD2       11.5670  -50.6230  128.0570 C.3   104  LEU104      0.0001
    127  N          8.5340  -52.6800  130.6160 N.am  105  ASP105     -0.1974
    128  CA         7.9630  -52.0080  131.7580 C.3   105  ASP105      0.1709
    129  C          7.7670  -53.0140  132.8590 C.2   105  ASP105      0.2293
    130  O          8.0050  -52.7310  134.0180 O.2   105  ASP105     -0.2864
    131  CB         6.6200  -51.3850  131.3980 C.3   105  ASP105      0.1436
    132  CG         6.7630  -50.1120  130.6130 C.2   105  ASP105      0.3671
    133  OD1        5.7630  -49.3960  130.4510 O.co2 105  ASP105     -0.2456
    134  OD2        7.8770  -49.8270  130.1520 O.co2 105  ASP105     -0.2456
    135  N         10.9940  -53.7550  124.7200 N.3   146  ARG146     -0.1245
    136  CA         9.9130  -52.8020  124.5360 C.3   146  ARG146      0.1563
    137  C          8.8710  -53.3070  123.5500 C.2   146  ARG146      0.2260
    138  O          7.7070  -52.9450  123.6330 O.2   146  ARG146     -0.2867
    139  CB        10.4630  -51.4590  124.0850 C.3   146  ARG146      0.0307
    140  CG        10.4390  -51.2560  122.5890 C.3   146  ARG146      0.0489
    141  CD        10.9760  -49.8960  122.2130 C.3   146  ARG146      0.2205
    142  NE        12.3930  -49.9770  121.9200 N.pl3 146  ARG146     -0.0865
    143  CZ        12.8960  -50.0660  120.7000 C.cat 146  ARG146      0.5346
    144  NH1       12.0880  -50.0680  119.6550 N.pl3 146  ARG146      0.1354
    145  NH2       14.2050  -50.1440  120.5270 N.pl3 146  ARG146      0.1354
    146  N          5.0890  -57.8330  124.3080 N.3   149  LEU149     -0.1245
    147  CA         3.9580  -57.4950  125.1540 C.3   149  LEU149      0.1561
    148  C          3.4820  -58.7210  125.8970 C.2   149  LEU149      0.2260
    149  O          3.5690  -59.8230  125.3870 O.2   149  LEU149     -0.2867
    150  CB         2.8170  -56.9190  124.3220 C.3   149  LEU149      0.0270
    151  CG         3.0390  -55.5690  123.6410 C.3   149  LEU149      0.0019
    152  CD1        1.7130  -54.8950  123.3770 C.3   149  LEU149      0.0001
    153  CD2        3.9270  -54.6600  124.4680 C.3   149  LEU149      0.0001
    154  N          5.7230  -57.9770  118.8880 N.3   159  THR159     -0.1203
    155  CA         4.9040  -56.8950  118.3820 C.3   159  THR159      0.1994
    156  C          5.7400  -55.8830  117.6200 C.2   159  THR159      0.2617
    157  O          6.9310  -56.0540  117.4830 O.2   159  THR159     -0.2717
    158  CB         4.1430  -56.1970  119.5120 C.3   159  THR159      0.1784
    159  OG1        3.1100  -55.3840  118.9590 O.3   159  THR159     -0.2211
    160  CG2        5.0700  -55.3240  120.3090 C.3   159  THR159      0.0376
    161  N          5.0980  -54.8340  117.1190 N.am  160  ASP160     -0.1973
    162  CA         5.7590  -53.7650  116.3590 C.3   160  ASP160      0.1709
    163  C          6.4780  -54.1380  115.0700 C.2   160  ASP160      0.2293
    164  O          7.6160  -53.7580  114.8480 O.2   160  ASP160     -0.2864
    165  CB         6.7160  -52.9980  117.2560 C.3   160  ASP160      0.1436
    166  CG         6.2930  -51.5730  117.4670 C.2   160  ASP160      0.3671
    167  OD1        5.2360  -51.3570  118.0840 O.co2 160  ASP160     -0.2456
    168  OD2        7.0230  -50.6670  117.0270 O.co2 160  ASP160     -0.2456
    169  N        -11.9480  -54.5650  133.1400 N.3   288  MET288     -0.1245
    170  CA       -12.0520  -53.1240  133.3190 C.3   288  MET288      0.1570
    171  C        -12.6510  -52.3910  132.1170 C.2   288  MET288      0.2261
    172  O        -12.5410  -52.8330  130.9780 O.2   288  MET288     -0.2867
    173  CB       -10.6870  -52.5320  133.6700 C.3   288  MET288      0.0387
    174  CG        -9.6460  -53.5670  134.0590 C.3   288  MET288      0.0595
    175  SD        -9.1440  -54.5800  132.6600 S.3   288  MET288     -0.1393
    176  CE        -7.4910  -53.9750  132.3480 C.3   288  MET288      0.0692
@<TRIPOS>BOND
     1   164   163    2
     2   163   162    1
     3    46    45    2
     4    51    50    1
     5    48    49    1
     6    48    47    1
     7    55    54    2
     8    49    50    1
     9    45    44    1
    10   162   161    1
    11   162   165    1
    12    63    64    1
    13    63    62    1
    14    64    65    1
    15   168   166   ar
    16    54    53    1
    17   161   156   am
    18    47    44    1
    19   165   166    1
    20    44    43    1
    21   166   167   ar
    22   157   156    2
    23    58    59    1
    24   156   155    1
    25    62    59    1
    26    59    60    1
    27    52    53    1
    28    53    56    1
    29   155   154    1
    30   155   158    1
    31    56    57    1
    32   159   158    1
    33    41    40    2
    34    60    66   am
    35    60    61    2
    36    66    67    1
    37   158   160    1
    38   144   143    1
    39    40    39    1
    40   145   143    1
    41   143   142    2
    42    70    67    1
    43    70    71    1
    44    67    68    1
    45    22    23    1
    46    26    23    1
    47    26    27    1
    48    26    28    1
    49    23    24    1
    50    73    72    2
    51    39    38    1
    52    39    42    1
    53    69    68    2
    54    68    75   am
    55   142   141    1
    56    72    71    1
    57    72    74   am
    58    24    25    2
    59   141   140    1
    60   140   139    1
    61    75    76    1
    62    21    20    2
    63   152   151    1
    64   137   138    2
    65   137   136    1
    66   151   150    1
    67   151   153    1
    68    20    19    1
    69    89    88    1
    70    89    90    1
    71   139   136    1
    72    88    87    1
    73    76    77    1
    74    76    79    1
    75   146   147    1
    76   150   147    1
    77   136   135    1
    78    32    31    2
    79    29    30    1
    80    31    30    1
    81    19    18    1
    82    77    83   am
    83    77    78    2
    84    79    80    1
    85   147   148    1
    86    83    84    1
    87    18    12   am
    88    30    33    1
    89   149   148    2
    90    87    84    1
    91    16    15    1
    92    80    82    1
    93    80    81    1
    94     4     3    2
    95    84    85    1
    96    14    15    1
    97    14    11    1
    98    15    17    1
    99    10    11    1
   100    12    11    1
   101    12    13    2
   102    33    34    1
   103     3     2    1
   104   118   117    1
   105     1     2    1
   106    85    86    2
   107    85    91   am
   108    34    35    1
   109   114   117    1
   110   114   113    1
   111   114   115    1
   112     2     5    1
   113   112   111    2
   114    97    91    1
   115    97    96    1
   116   126   124    1
   117   113   111   am
   118    91    92    1
   119   111   110    1
   120   123   124    1
   121   123   120    1
   122   115   116    2
   123   119   120    1
   124   124   125    1
   125   110   109    1
   126    96    95    1
   127    35    36    1
   128     5     6    1
   129   120   121    1
   130    92    95    1
   131    92    93    1
   132   109   100   am
   133    36    37    1
   134   134   132   ar
   135     6     7    1
   136   133   132   ar
   137    93    98   am
   138    93    94    2
   139    98    99    1
   140   132   131    1
   141   127   121   am
   142   127   128    1
   143   121   122    2
   144   100    99    1
   145   100   101    2
   146   172   171    2
   147    99   102    1
   148   131   128    1
   149     7     8    1
   150   128   129    1
   151   102   103    1
   152     8     9    1
   153   171   170    1
   154   104   103   ar
   155   104   106   ar
   156   176   175    1
   157   175   174    1
   158   103   105   ar
   159   129   130    2
   160   106   108   ar
   161   169   170    1
   162   170   173    1
   163   173   174    1
   164   105   107   ar
   165   108   107   ar
