@<TRIPOS>MOLECULE
tmp/5gmuB00.pdb
 143 134 0 0 0
SMALL
GASTEIGER

@<TRIPOS>ATOM
      1  N         -1.4670   -5.1400   26.8440 N.3    26  ARG26      -0.1245
      2  CA        -0.3060   -4.5680   27.5000 C.3    26  ARG26       0.1563
      3  C         -0.6600   -3.3000   28.2640 C.2    26  ARG26       0.2260
      4  O         -0.1380   -3.0430   29.3390 O.2    26  ARG26      -0.2867
      5  CB         0.7950   -4.2470   26.4780 C.3    26  ARG26       0.0307
      6  CG         2.1310   -3.9190   27.1610 C.3    26  ARG26       0.0489
      7  CD         3.1170   -3.3980   26.1560 C.3    26  ARG26       0.2205
      8  NE         4.2970   -2.9840   26.8830 N.pl3  26  ARG26      -0.0865
      9  CZ         4.4630   -1.7800   27.4300 C.cat  26  ARG26       0.5346
     10  NH1        3.5480   -0.8580   27.3570 N.pl3  26  ARG26       0.1354
     11  NH2        5.5970   -1.5220   28.0460 N.pl3  26  ARG26       0.1354
     12  N          0.0220   -2.2390   32.0950 N.3    30  VAL30      -0.1245
     13  CA         0.6730   -0.9930   32.4700 C.3    30  VAL30       0.1561
     14  C         -0.2120   -0.1270   33.4050 C.2    30  VAL30       0.2260
     15  O          0.2760    0.5760   34.2680 O.2    30  VAL30      -0.2867
     16  CB         1.0860   -0.2350   31.1620 C.3    30  VAL30       0.0252
     17  CG1        1.5400    1.1880   31.4550 C.3    30  VAL30       0.0019
     18  CG2        2.1850   -1.0310   30.4860 C.3    30  VAL30       0.0019
     19  N          0.2860   -1.5960   36.7660 N.3    33  ILE33      -0.1245
     20  CA         1.5940   -1.1390   37.2290 C.3    33  ILE33       0.1561
     21  C          1.4940    0.2990   37.8050 C.2    33  ILE33       0.2260
     22  O          2.0380    0.5890   38.8680 O.2    33  ILE33      -0.2867
     23  CB         2.6450   -1.1750   36.1140 C.3    33  ILE33       0.0252
     24  CG1        2.9960   -2.6350   35.7790 C.3    33  ILE33       0.0019
     25  CG2        3.9130   -0.4220   36.5240 C.3    33  ILE33       0.0019
     26  CD1        3.8790   -2.8460   34.5610 C.3    33  ILE33       0.0001
     27  N          2.4850    1.5350   41.5530 N.3    37  LYS37      -0.1245
     28  CA         3.3160    2.7190   41.7810 C.3    37  LYS37       0.1561
     29  C          2.6650    3.8850   42.5660 C.2    37  LYS37       0.2260
     30  O          3.2630    4.3950   43.4660 O.2    37  LYS37      -0.2867
     31  CB         3.8670    3.2580   40.4740 C.3    37  LYS37       0.0271
     32  CG         4.9620    2.3960   39.8810 C.3    37  LYS37       0.0035
     33  CD         5.5950    3.1340   38.6890 C.3    37  LYS37       0.0206
     34  CE         6.6980    2.3490   37.9990 C.3    37  LYS37       0.1093
     35  NZ         6.7640    2.5940   36.5150 N.3    37  LYS37      -0.1314
     36  N          5.9230    7.7140   38.2590 N.3    44  ARG44      -0.1231
     37  CA         5.5590    6.7680   37.2300 C.3    44  ARG44       0.1694
     38  C          6.6370    6.6580   36.1350 C.2    44  ARG44       0.2592
     39  O          6.9750    5.5750   35.7160 O.2    44  ARG44      -0.2718
     40  CB         4.2070    7.1290   36.6000 C.3    44  ARG44       0.0321
     41  CG         3.0090    6.3760   37.2070 C.3    44  ARG44       0.0489
     42  CD         2.1390    7.2010   38.1210 C.3    44  ARG44       0.2205
     43  NE         2.7740    7.3070   39.3930 N.pl3  44  ARG44      -0.0865
     44  CZ         2.4420    8.1490   40.3660 C.cat  44  ARG44       0.5346
     45  NH1        1.4170    8.9970   40.2530 N.pl3  44  ARG44       0.1354
     46  NH2        3.1690    8.1280   41.4680 N.pl3  44  ARG44       0.1354
     47  N          7.1600    7.7820   35.7010 N.am   45  PHE45      -0.1962
     48  CA         8.1410    7.7410   34.5860 C.3    45  PHE45       0.1771
     49  C          9.4590    7.2090   35.1410 C.2    45  PHE45       0.2619
     50  O          9.9390    7.6870   36.1460 O.2    45  PHE45      -0.2715
     51  CB         8.3580    9.1420   33.9960 C.3    45  PHE45       0.0574
     52  CG         9.4770    9.2180   32.9980 C.ar   45  PHE45      -0.0200
     53  CD1        9.4280    8.4240   31.8970 C.ar   45  PHE45      -0.0042
     54  CD2       10.6220    9.9980   33.2160 C.ar   45  PHE45      -0.0042
     55  CE1       10.4390    8.4620   30.9150 C.ar   45  PHE45      -0.0003
     56  CE2       11.6560    9.9800   32.3010 C.ar   45  PHE45      -0.0003
     57  CZ        11.5410    9.2690   31.1240 C.ar   45  PHE45      -0.0000
     58  N         10.0440    6.2350   34.4360 N.am   46  ASP46      -0.1971
     59  CA        11.2820    5.5870   34.8580 C.3    46  ASP46       0.1709
     60  C         12.1630    5.4150   33.6270 C.2    46  ASP46       0.2293
     61  O         11.8980    4.5270   32.8250 O.2    46  ASP46      -0.2864
     62  CB        10.9400    4.2290   35.5030 C.3    46  ASP46       0.1436
     63  CG        12.1530    3.4520   35.9780 C.2    46  ASP46       0.3671
     64  OD1       13.2970    3.8090   35.6620 O.co2  46  ASP46      -0.2456
     65  OD2       11.9320    2.4600   36.6940 O.co2  46  ASP46      -0.2456
     66  N         13.9980    1.9560   33.2280 N.3    49  ARG49      -0.1231
     67  CA        13.0200    0.9770   32.7130 C.3    49  ARG49       0.1694
     68  C         12.7970    1.1190   31.2220 C.2    49  ARG49       0.2591
     69  O         12.8080    0.1130   30.4820 O.2    49  ARG49      -0.2718
     70  CB        11.7190    1.1100   33.4950 C.3    49  ARG49       0.0321
     71  CG        10.5250    0.2980   33.0250 C.3    49  ARG49       0.0489
     72  CD        10.7300   -1.1830   33.1890 C.3    49  ARG49       0.2205
     73  NE         9.5050   -1.8790   32.7670 N.pl3  49  ARG49      -0.0865
     74  CZ         9.4420   -3.1490   32.3850 C.cat  49  ARG49       0.5346
     75  NH1       10.5160   -3.9340   32.3930 N.pl3  49  ARG49       0.1354
     76  NH2        8.2750   -3.6380   31.9790 N.pl3  49  ARG49       0.1354
     77  N         12.6120    2.3550   30.7550 N.am   50  GLU50      -0.1979
     78  CA        12.4350    2.6100   29.3470 C.3    50  GLU50       0.1602
     79  C         13.6180    2.0320   28.5410 C.2    50  GLU50       0.2287
     80  O         13.4160    1.3030   27.5430 O.2    50  GLU50      -0.2864
     81  CB        12.3540    4.0940   29.1010 C.3    50  GLU50       0.0415
     82  CG        12.0790    4.5360   27.6860 C.3    50  GLU50       0.1163
     83  CD        12.1740    6.0310   27.4890 C.2    50  GLU50       0.3649
     84  OE1       12.3220    6.8070   28.4630 O.co2  50  GLU50      -0.2457
     85  OE2       12.0590    6.4040   26.3170 O.co2  50  GLU50      -0.2457
     86  N         13.9000   -1.7750   28.4930 N.3    53  MET53      -0.1245
     87  CA        12.9060   -2.3980   27.5590 C.3    53  MET53       0.1570
     88  C         13.3430   -2.2140   26.1400 C.2    53  MET53       0.2261
     89  O         13.3570   -3.1930   25.3670 O.2    53  MET53      -0.2867
     90  CB        11.5020   -1.8760   27.8230 C.3    53  MET53       0.0387
     91  CG        10.8900   -2.3630   29.1230 C.3    53  MET53       0.0595
     92  SD         9.1250   -2.0000   29.0910 S.3    53  MET53      -0.1393
     93  CE         9.1510   -0.1870   28.9970 C.3    53  MET53       0.0692
     94  N          8.8310    3.4550   21.4580 N.3    75  LYS75      -0.1245
     95  CA         8.7770    4.7160   22.2540 C.3    75  LYS75       0.1561
     96  C          7.3810    5.3280   22.2430 C.2    75  LYS75       0.2260
     97  O          6.9040    5.8460   23.2660 O.2    75  LYS75      -0.2867
     98  CB         9.8060    5.7390   21.7520 C.3    75  LYS75       0.0271
     99  CG        11.2090    5.4690   22.2570 C.3    75  LYS75       0.0035
    100  CD        12.1780    6.5470   21.7540 C.3    75  LYS75       0.0206
    101  CE        13.5820    6.3180   22.2690 C.3    75  LYS75       0.1093
    102  NZ        14.6090    7.0270   21.4610 N.3    75  LYS75      -0.1314
    103  N          5.2920    3.1790   24.6520 N.3    78  PHE78      -0.1227
    104  CA         5.6290    3.5660   26.0170 C.3    78  PHE78       0.1736
    105  C          5.0740    4.8970   26.4210 C.2    78  PHE78       0.2595
    106  O          4.4720    5.0610   27.5200 O.2    78  PHE78      -0.2718
    107  CB         7.1540    3.4640   26.2960 C.3    78  PHE78       0.0547
    108  CG         7.7620    2.0970   25.9840 C.ar   78  PHE78      -0.0202
    109  CD1        7.0090    0.9080   25.9740 C.ar   78  PHE78      -0.0042
    110  CD2        9.1240    2.0190   25.6950 C.ar   78  PHE78      -0.0042
    111  CE1        7.6110   -0.3050   25.6650 C.ar   78  PHE78      -0.0003
    112  CE2        9.7070    0.8130   25.3830 C.ar   78  PHE78      -0.0003
    113  CZ         8.9500   -0.3490   25.3620 C.ar   78  PHE78      -0.0000
    114  N          5.2600    5.9070   25.5680 N.am   79  LYS79      -0.1980
    115  CA         4.7010    7.1940   25.8600 C.3    79  LYS79       0.1596
    116  C          3.1790    7.1070   26.1200 C.2    79  LYS79       0.2287
    117  O          2.6100    7.7250   27.0520 O.2    79  LYS79      -0.2864
    118  CB         4.9680    8.1100   24.6470 C.3    79  LYS79       0.0298
    119  CG         4.3760    9.4720   24.7470 C.3    79  LYS79       0.0038
    120  CD         4.7670   10.3920   23.6040 C.3    79  LYS79       0.0206
    121  CE         3.7790   11.5540   23.5470 C.3    79  LYS79       0.1093
    122  NZ         4.2410   12.5010   22.5270 N.3    79  LYS79      -0.1314
    123  N          1.5960    4.3990   27.2150 N.3    81  GLY81      -0.1210
    124  CA         1.4980    3.7600   28.5230 C.3    81  GLY81       0.1956
    125  C          1.5400    4.7420   29.6830 C.2    81  GLY81       0.2611
    126  O          0.7280    4.7060   30.6200 O.2    81  GLY81      -0.2717
    127  N          2.5350    5.6160   29.6530 N.am   82  LEU82      -0.1979
    128  CA         2.6930    6.6320   30.6750 C.3    82  LEU82       0.1596
    129  C          1.5010    7.5670   30.7340 C.2    82  LEU82       0.2287
    130  O          0.9910    7.8780   31.8010 O.2    82  LEU82      -0.2864
    131  CB         4.0020    7.3920   30.4420 C.3    82  LEU82       0.0297
    132  CG         4.3410    8.4200   31.5060 C.3    82  LEU82       0.0022
    133  CD1        4.5850    7.7400   32.8640 C.3    82  LEU82       0.0001
    134  CD2        5.5390    9.2420   31.0700 C.3    82  LEU82       0.0001
    135  N         -1.2920    5.8930   32.5210 N.3    85  GLN85      -0.1245
    136  CA        -1.0760    5.8760   33.9590 C.3    85  GLN85       0.1566
    137  C         -1.3550    7.2220   34.5690 C.2    85  GLN85       0.2260
    138  O         -1.8640    7.3120   35.6670 O.2    85  GLN85      -0.2867
    139  CB         0.3540    5.4940   34.2950 C.3    85  GLN85       0.0367
    140  CG         0.7350    4.0760   33.8950 C.3    85  GLN85       0.0905
    141  CD         2.1950    3.8010   34.2240 C.2    85  GLN85       0.2608
    142  OE1        3.0340    4.7300   34.1910 O.2    85  GLN85      -0.2717
    143  NE2        2.5230    2.5520   34.5120 N.am   85  GLN85      -0.0878
@<TRIPOS>BOND
     1    94    95    1
     2   102   101    1
     3    98    95    1
     4    98    99    1
     5   100    99    1
     6   100   101    1
     7    96    95    1
     8    96    97    2
     9   122   121    1
    10   121   120    1
    11   120   119    1
    12   118   119    1
    13   118   115    1
    14   103   104    1
    15   113   112   ar
    16   113   111   ar
    17    89    88    2
    18   112   110   ar
    19   114   115    1
    20   114   105   am
    21   111   109   ar
    22   110   108   ar
    23   115   116    1
    24   109   108   ar
    25   108   107    1
    26   104   107    1
    27   104   105    1
    28   116   117    2
    29    88    87    1
    30     7     8    1
    31     7     6    1
    32    85    83   ar
    33   105   106    2
    34     5     6    1
    35     5     2    1
    36     1     2    1
    37     8     9    2
    38   123   124    1
    39    10     9    1
    40     9    11    1
    41    83    82    1
    42    83    84   ar
    43     2     3    1
    44    80    79    2
    45    87    90    1
    46    87    86    1
    47    82    81    1
    48    90    91    1
    49     3     4    2
    50   124   125    1
    51    79    78    1
    52    93    92    1
    53    92    91    1
    54    81    78    1
    55    78    77    1
    56   127   125   am
    57   127   128    1
    58   125   126    2
    59   131   128    1
    60   131   132    1
    61    69    68    2
    62    18    16    1
    63   128   129    1
    64   129   130    2
    65    77    68   am
    66    55    57   ar
    67    55    53   ar
    68   134   132    1
    69    57    56   ar
    70    16    17    1
    71    16    13    1
    72    68    67    1
    73   132   133    1
    74    53    52   ar
    75    76    74    1
    76    12    13    1
    77    56    54   ar
    78    74    75    1
    79    74    73    2
    80    13    14    1
    81   135   136    1
    82    67    66    1
    83    67    70    1
    84    73    72    1
    85    61    60    2
    86    52    54   ar
    87    52    51    1
    88    71    72    1
    89    71    70    1
    90    14    15    2
    91    60    59    1
    92   140   141    1
    93   140   139    1
    94   136   139    1
    95   136   137    1
    96    51    48    1
    97   142   141    2
    98   141   143   am
    99    58    59    1
   100    58    49   am
   101    26    24    1
   102   137   138    2
   103    48    49    1
   104    48    47    1
   105    59    62    1
   106    49    50    2
   107    62    63    1
   108    64    63   ar
   109    47    38   am
   110    39    38    2
   111    24    23    1
   112    63    65   ar
   113    23    25    1
   114    23    20    1
   115    38    37    1
   116    35    34    1
   117    40    41    1
   118    40    37    1
   119    19    20    1
   120    41    42    1
   121    20    21    1
   122    37    36    1
   123    21    22    2
   124    34    33    1
   125    42    43    1
   126    33    32    1
   127    43    44    2
   128    32    31    1
   129    45    44    1
   130    44    46    1
   131    31    28    1
   132    27    28    1
   133    28    29    1
   134    29    30    2
