@<TRIPOS>MOLECULE
tmp/5gmxB00.pdb
 99 94 0 0 0
SMALL
GASTEIGER

@<TRIPOS>ATOM
      1  N        -48.1460   17.1730   38.9110 N.3    66  TYR66      -0.1227
      2  CA       -48.6280   17.4100   37.5450 C.3    66  TYR66       0.1736
      3  C        -49.9910   18.1380   37.5050 C.2    66  TYR66       0.2596
      4  O        -50.1510   19.1690   38.1550 O.2    66  TYR66      -0.2718
      5  CB       -48.6650   16.0870   36.7730 C.3    66  TYR66       0.0548
      6  CG       -47.2630   15.5510   36.5160 C.ar   66  TYR66      -0.0200
      7  CD1      -46.4730   16.0840   35.4990 C.ar   66  TYR66      -0.0009
      8  CD2      -46.7170   14.5430   37.3000 C.ar   66  TYR66      -0.0009
      9  CE1      -45.1880   15.6240   35.2570 C.ar   66  TYR66       0.0417
     10  CE2      -45.4200   14.0670   37.0610 C.ar   66  TYR66       0.0417
     11  CZ       -44.6680   14.6170   36.0320 C.ar   66  TYR66       0.1957
     12  OH       -43.3890   14.1730   35.7740 O.3    66  TYR66      -0.2866
     13  N        -50.9640   17.6310   36.7540 N.am   67  SER67      -0.1952
     14  CA       -52.1890   18.4070   36.5190 C.3    67  SER67       0.1924
     15  C        -53.1020   18.5830   37.7420 C.2    67  SER67       0.2314
     16  O        -54.0700   19.3430   37.6960 O.2    67  SER67      -0.2863
     17  CB       -52.9850   17.7770   35.3830 C.3    67  SER67       0.2116
     18  OG       -52.2090   17.7820   34.1980 O.3    67  SER67      -0.2180
     19  N        -53.6200   22.1140   38.5240 N.3    70  LYS70      -0.1245
     20  CA       -54.6150   22.9400   37.8500 C.3    70  LYS70       0.1561
     21  C        -55.7460   23.3110   38.8170 C.2    70  LYS70       0.2260
     22  O        -56.1920   24.4720   38.8360 O.2    70  LYS70      -0.2867
     23  CB       -55.1550   22.2330   36.6060 C.3    70  LYS70       0.0271
     24  CG       -54.1420   22.1460   35.4680 C.3    70  LYS70       0.0035
     25  CD       -54.8360   21.7690   34.1540 C.3    70  LYS70       0.0206
     26  CE       -53.8560   21.6650   33.0050 C.3    70  LYS70       0.1093
     27  NZ       -52.9280   20.5100   33.1750 N.3    70  LYS70      -0.1314
     28  N        -58.3250   20.1990   26.1990 N.3   153  TYR153     -0.1241
     29  CA       -57.4820   20.2830   27.3970 C.3   153  TYR153      0.1605
     30  C        -56.2020   21.0870   27.1860 C.2   153  TYR153      0.2264
     31  O        -55.3320   20.6970   26.4110 O.2   153  TYR153     -0.2867
     32  CB       -57.1370   18.8720   27.8560 C.3   153  TYR153      0.0534
     33  CG       -56.4460   18.7750   29.1900 C.ar  153  TYR153     -0.0201
     34  CD1      -56.9630   19.4130   30.3110 C.ar  153  TYR153     -0.0009
     35  CD2      -55.2980   18.0030   29.3370 C.ar  153  TYR153     -0.0009
     36  CE1      -56.3540   19.2920   31.5460 C.ar  153  TYR153      0.0417
     37  CE2      -54.6780   17.8760   30.5590 C.ar  153  TYR153      0.0417
     38  CZ       -55.2090   18.5310   31.6600 C.ar  153  TYR153      0.1957
     39  OH       -54.6000   18.4100   32.8800 O.3   153  TYR153     -0.2866
     40  N        -53.2640   21.3640   28.2590 N.3   155  ALA155     -0.1231
     41  CA       -52.5130   20.4470   29.1100 C.3   155  ALA155      0.1694
     42  C        -51.3810   21.0860   29.9250 C.2   155  ALA155      0.2591
     43  O        -51.1310   20.6930   31.0690 O.2   155  ALA155     -0.2718
     44  CB       -51.9650   19.3210   28.2550 C.3   155  ALA155      0.0304
     45  N        -50.6910   22.0600   29.3500 N.am  156  VAL156     -0.1980
     46  CA       -49.5720   22.6670   30.0510 C.3   156  VAL156      0.1595
     47  C        -49.8130   24.1400   30.3390 C.2   156  VAL156      0.2287
     48  O        -49.5410   24.6160   31.4420 O.2   156  VAL156     -0.2864
     49  CB       -48.2610   22.5270   29.2510 C.3   156  VAL156      0.0276
     50  CG1      -47.1090   23.2050   29.9880 C.3   156  VAL156      0.0022
     51  CG2      -47.9520   21.0560   28.9880 C.3   156  VAL156      0.0022
     52  N        -50.6890   20.4270   22.1220 N.3   219  ALA219     -0.1245
     53  CA       -50.8440   20.2210   23.5520 C.3   219  ALA219      0.1562
     54  C        -49.8540   19.1660   24.0490 C.2   219  ALA219      0.2260
     55  O        -49.2570   19.3280   25.1150 O.2   219  ALA219     -0.2867
     56  CB       -52.2800   19.8170   23.8810 C.3   219  ALA219      0.0290
     57  N        -43.8750   16.4300   28.0700 N.3   224  LEU224     -0.1245
     58  CA       -43.5540   16.2380   29.4760 C.3   224  LEU224      0.1561
     59  C        -43.0740   14.8180   29.7470 C.2   224  LEU224      0.2260
     60  O        -43.4740   13.8710   29.0670 O.2   224  LEU224     -0.2867
     61  CB       -44.7670   16.5570   30.3550 C.3   224  LEU224      0.0270
     62  CG       -45.2850   17.9940   30.2560 C.3   224  LEU224      0.0019
     63  CD1      -46.3750   18.2510   31.3070 C.3   224  LEU224      0.0001
     64  CD2      -44.1350   19.0070   30.3620 C.3   224  LEU224      0.0001
     65  N        -49.8690   24.6910   35.4450 N.3   241  GLY241     -0.1210
     66  CA       -50.5950   23.5930   34.8520 C.3   241  GLY241      0.1956
     67  C        -50.0270   22.2400   35.2450 C.2   241  GLY241      0.2611
     68  O        -50.6990   21.2210   35.0830 O.2   241  GLY241     -0.2717
     69  N        -48.8050   22.2120   35.7770 N.am  242  ALA242     -0.1979
     70  CA       -48.1050   20.9350   35.8790 C.3   242  ALA242      0.1597
     71  C        -46.9780   20.7850   36.9290 C.2   242  ALA242      0.2287
     72  O        -46.4920   19.6750   37.1210 O.2   242  ALA242     -0.2864
     73  CB       -47.5420   20.5940   34.5090 C.3   242  ALA242      0.0319
     74  N        -53.8210   14.1080   38.2290 N.3   317  GLY317     -0.1210
     75  CA       -52.5510   14.3780   37.5970 C.3   317  GLY317      0.1956
     76  C        -51.9580   13.1570   36.9300 C.2   317  GLY317      0.2611
     77  O        -52.2180   12.0260   37.3430 O.2   317  GLY317     -0.2717
     78  N        -51.1560   13.4020   35.8980 N.am  318  TRP318     -0.1976
     79  CA       -50.4350   12.3550   35.1810 C.3   318  TRP318      0.1640
     80  C        -49.6480   11.4710   36.1440 C.2   318  TRP318      0.2290
     81  O        -48.8220   11.9650   36.9120 O.2   318  TRP318     -0.2864
     82  CB       -49.4850   12.9790   34.1580 C.3   318  TRP318      0.0576
     83  CG       -48.8750   12.0150   33.2020 C.ar  318  TRP318      0.0006
     84  CD1      -49.4320   10.8620   32.7260 C.ar  318  TRP318      0.0946
     85  CD2      -47.5880   12.1190   32.5950 C.ar  318  TRP318      0.0152
     86  NE1      -48.5700   10.2420   31.8620 N.ar  318  TRP318     -0.2442
     87  CE2      -47.4270   10.9900   31.7640 C.ar  318  TRP318      0.0810
     88  CE3      -46.5510   13.0520   32.6780 C.ar  318  TRP318      0.0012
     89  CZ2      -46.2700   10.7690   31.0180 C.ar  318  TRP318      0.0191
     90  CZ3      -45.4010   12.8320   31.9390 C.ar  318  TRP318      0.0001
     91  CH2      -45.2710   11.6990   31.1180 C.ar  318  TRP318      0.0015
     92  N        -54.0950    9.5140   33.3580 N.3   341  ILE341     -0.1245
     93  CA       -54.1340   10.9020   33.8070 C.3   341  ILE341      0.1561
     94  C        -55.3200   11.1090   34.7480 C.2   341  ILE341      0.2260
     95  O        -55.4800   12.1810   35.3350 O.2   341  ILE341     -0.2867
     96  CB       -54.2270   11.8940   32.6400 C.3   341  ILE341      0.0252
     97  CG1      -55.5280   11.6840   31.8600 C.3   341  ILE341      0.0019
     98  CG2      -52.9950   11.7740   31.7480 C.3   341  ILE341      0.0019
     99  CD1      -55.9720   12.9090   31.0960 C.3   341  ILE341      0.0001
@<TRIPOS>BOND
     1    52    53    1
     2    53    56    1
     3    53    54    1
     4    54    55    2
     5    28    29    1
     6    31    30    2
     7    30    29    1
     8    29    32    1
     9    32    33    1
    10    57    58    1
    11    44    41    1
    12    40    41    1
    13    51    49    1
    14    60    59    2
    15    41    42    1
    16    33    35   ar
    17    33    34   ar
    18    49    50    1
    19    49    46    1
    20    35    37   ar
    21    45    42   am
    22    45    46    1
    23    58    59    1
    24    58    61    1
    25    42    43    2
    26    46    47    1
    27    62    61    1
    28    62    64    1
    29    62    63    1
    30    34    36   ar
    31    47    48    2
    32    37    38   ar
    33    89    91   ar
    34    89    87   ar
    35    99    97    1
    36    91    90   ar
    37    36    38   ar
    38    38    39    1
    39    98    96    1
    40    87    86   ar
    41    87    85   ar
    42    97    96    1
    43    86    84   ar
    44    90    88   ar
    45    85    88   ar
    46    85    83   ar
    47    96    93    1
    48    84    83   ar
    49    26    27    1
    50    26    25    1
    51    83    82    1
    52    92    93    1
    53    93    94    1
    54    25    24    1
    55    82    79    1
    56    18    17    1
    57    73    70    1
    58    94    95    2
    59    66    67    1
    60    66    65    1
    61    68    67    2
    62    79    78    1
    63    79    80    1
    64    67    69   am
    65     9     7   ar
    66     9    11   ar
    67    17    14    1
    68    24    23    1
    69     7     6   ar
    70    12    11    1
    71    69    70    1
    72    70    71    1
    73    78    76   am
    74    11    10   ar
    75    80    81    2
    76     6     5    1
    77     6     8   ar
    78    14    13    1
    79    14    15    1
    80    23    20    1
    81    13     3   am
    82     5     2    1
    83    71    72    2
    84    76    77    2
    85    76    75    1
    86    10     8   ar
    87     3     2    1
    88     3     4    2
    89     2     1    1
    90    75    74    1
    91    16    15    2
    92    20    19    1
    93    20    21    1
    94    21    22    2
