@<TRIPOS>MOLECULE
tmp/5gmyA00.pdb
 65 62 0 0 0
SMALL
GASTEIGER

@<TRIPOS>ATOM
      1  N         26.4080  -32.7560   14.2530 N.3    42  ASN42      -0.1240
      2  CA        26.0490  -32.6660   12.8440 C.3    42  ASN42       0.1653
      3  C         25.3170  -33.9130   12.3810 C.2    42  ASN42       0.2266
      4  O         24.1790  -33.8210   11.9370 O.2    42  ASN42      -0.2867
      5  CB        27.2850  -32.4060   11.9830 C.3    42  ASN42       0.1155
      6  CG        27.8240  -31.0020   12.1540 C.2    42  ASN42       0.2627
      7  OD1       29.0100  -30.8010   12.4010 O.2    42  ASN42      -0.2716
      8  ND2       26.9510  -30.0210   12.0200 N.am   42  ASN42      -0.0877
      9  N         38.2410  -32.1680   13.4780 N.3   339  ALA339     -0.1245
     10  CA        38.1610  -32.3960   14.9230 C.3   339  ALA339      0.1562
     11  C         38.0990  -33.8710   15.3140 C.2   339  ALA339      0.2260
     12  O         38.9230  -34.3480   16.0960 O.2   339  ALA339     -0.2867
     13  CB        36.9570  -31.6600   15.5010 C.3   339  ALA339      0.0290
     14  N         30.3820  -28.1580    7.5950 N.3   532  ASP532     -0.1225
     15  CA        29.8680  -28.3880    8.9440 C.3   532  ASP532      0.1805
     16  C         28.3750  -28.1600    8.9700 C.2   532  ASP532      0.2597
     17  O         27.5920  -29.0470    9.2960 O.2   532  ASP532     -0.2718
     18  CB        30.5110  -27.4120    9.9350 C.3   532  ASP532      0.1424
     19  CG        32.0160  -27.5330    9.9820 C.2   532  ASP532      0.3668
     20  OD1       32.5290  -28.6220    9.6430 O.co2 532  ASP532     -0.2456
     21  OD2       32.6860  -26.5440   10.3600 O.co2 532  ASP532     -0.2456
     22  N         27.9870  -26.9590    8.5740 N.am  533  TYR533     -0.1976
     23  CA        26.6030  -26.5450    8.6230 C.3   533  TYR533      0.1639
     24  C         25.7920  -27.1980    7.5120 C.2   533  TYR533      0.2290
     25  O         24.7750  -26.6680    7.0860 O.2   533  TYR533     -0.2864
     26  CB        26.5490  -25.0240    8.5400 C.3   533  TYR533      0.0560
     27  CG        27.6660  -24.3900    9.3370 C.ar  533  TYR533     -0.0198
     28  CD1       27.5560  -24.2150   10.7100 C.ar  533  TYR533     -0.0009
     29  CD2       28.8470  -24.0020    8.7270 C.ar  533  TYR533     -0.0009
     30  CE1       28.5880  -23.6410   11.4520 C.ar  533  TYR533      0.0417
     31  CE2       29.8850  -23.4350    9.4560 C.ar  533  TYR533      0.0417
     32  CZ        29.7530  -23.2540   10.8150 C.ar  533  TYR533      0.1957
     33  OH        30.7880  -22.6850   11.5270 O.3   533  TYR533     -0.2866
     34  N         22.8050  -29.4330    8.9530 N.3   536  TRP536     -0.1241
     35  CA        21.9290  -28.4100    9.5130 C.3   536  TRP536      0.1605
     36  C         21.0580  -27.8050    8.3980 C.2   536  TRP536      0.2264
     37  O         19.8380  -27.9850    8.4010 O.2   536  TRP536     -0.2867
     38  CB        22.7220  -27.3190   10.2660 C.3   536  TRP536      0.0550
     39  CG        23.5360  -27.8030   11.4580 C.ar  536  TRP536      0.0003
     40  CD1       23.6270  -29.0820   11.9270 C.ar  536  TRP536      0.0946
     41  CD2       24.3730  -27.0050   12.3190 C.ar  536  TRP536      0.0152
     42  NE1       24.4590  -29.1310   13.0240 N.ar  536  TRP536     -0.2442
     43  CE2       24.9320  -27.8720   13.2810 C.ar  536  TRP536      0.0810
     44  CE3       24.7010  -25.6440   12.3690 C.ar  536  TRP536      0.0012
     45  CZ2       25.8040  -27.4220   14.2750 C.ar  536  TRP536      0.0191
     46  CZ3       25.5680  -25.2010   13.3580 C.ar  536  TRP536      0.0001
     47  CH2       26.1110  -26.0870   14.2930 C.ar  536  TRP536      0.0015
     48  N         32.4230  -17.8680   12.4790 N.3   593  GLU593     -0.1245
     49  CA        33.3850  -18.9540   12.6220 C.3   593  GLU593      0.1567
     50  C         34.2020  -19.1640   11.3480 C.2   593  GLU593      0.2260
     51  O         35.4300  -19.2700   11.4000 O.2   593  GLU593     -0.2867
     52  CB        32.6830  -20.2500   13.0560 C.3   593  GLU593      0.0388
     53  CG        32.2160  -20.2470   14.5280 C.3   593  GLU593      0.1160
     54  CD        31.4660  -21.5180   14.9430 C.2   593  GLU593      0.3649
     55  OE1       32.0980  -22.5930   15.0510 O.co2 593  GLU593     -0.2457
     56  OE2       30.2380  -21.4350   15.1760 O.co2 593  GLU593     -0.2457
     57  N         37.9400  -20.8220   11.4590 N.3   598  LYS598     -0.1245
     58  CA        37.7290  -21.9320   10.5300 C.3   598  LYS598      0.1561
     59  C         38.3720  -21.6780    9.1740 C.2   598  LYS598      0.2260
     60  O         38.6050  -22.6170    8.4110 O.2   598  LYS598     -0.2867
     61  CB        36.2410  -22.2440   10.3530 C.3   598  LYS598      0.0271
     62  CG        35.5830  -22.7850   11.6040 C.3   598  LYS598      0.0035
     63  CD        34.3000  -23.5500   11.3140 C.3   598  LYS598      0.0206
     64  CE        33.6350  -23.9840   12.6130 C.3   598  LYS598      0.1093
     65  NZ        32.3760  -24.7330   12.3990 N.3   598  LYS598     -0.1314
@<TRIPOS>BOND
     1    25    24    2
     2    24    23    1
     3    14    15    1
     4    36    37    2
     5    36    35    1
     6    60    59    2
     7    26    23    1
     8    26    27    1
     9    22    23    1
    10    22    16   am
    11    29    27   ar
    12    29    31   ar
    13    15    16    1
    14    15    18    1
    15    34    35    1
    16    16    17    2
    17    59    58    1
    18    27    28   ar
    19    31    32   ar
    20    35    38    1
    21    20    19   ar
    22    18    19    1
    23    19    21   ar
    24    38    39    1
    25    61    58    1
    26    61    62    1
    27    58    57    1
    28    28    30   ar
    29    32    30   ar
    30    32    33    1
    31    63    62    1
    32    63    64    1
    33    50    51    2
    34    50    49    1
    35    39    40   ar
    36    39    41   ar
    37    40    42   ar
    38     4     3    2
    39     5     6    1
    40     5     2    1
    41     8     6   am
    42     6     7    2
    43    41    44   ar
    44    41    43   ar
    45    44    46   ar
    46     3     2    1
    47    65    64    1
    48    48    49    1
    49    49    52    1
    50     2     1    1
    51    42    43   ar
    52    52    53    1
    53    43    45   ar
    54    46    47   ar
    55     9    10    1
    56    45    47   ar
    57    53    54    1
    58    10    11    1
    59    10    13    1
    60    54    55   ar
    61    54    56   ar
    62    11    12    2
