@<TRIPOS>MOLECULE
tmp/5gmzE00.pdb
 87 87 0 0 0
SMALL
GASTEIGER

@<TRIPOS>ATOM
      1  N        -14.8160  -33.2770   35.5150 N.3    18  PHE18      -0.1241
      2  CA       -13.7560  -34.1580   35.0360 C.3    18  PHE18       0.1605
      3  C        -13.4760  -35.2760   36.0350 C.2    18  PHE18       0.2264
      4  O        -12.9080  -36.3020   35.6610 O.2    18  PHE18      -0.2867
      5  CB       -12.4900  -33.3280   34.7790 C.3    18  PHE18       0.0534
      6  CG       -11.3790  -34.0620   34.0630 C.ar   18  PHE18      -0.0203
      7  CD1      -11.5640  -34.6020   32.7950 C.ar   18  PHE18      -0.0042
      8  CD2      -10.1240  -34.1700   34.6450 C.ar   18  PHE18      -0.0042
      9  CE1      -10.5260  -35.2630   32.1540 C.ar   18  PHE18      -0.0003
     10  CE2       -9.0850  -34.8180   34.0110 C.ar   18  PHE18      -0.0003
     11  CZ        -9.2830  -35.3600   32.7470 C.ar   18  PHE18      -0.0000
     12  N         -6.8770  -32.2580   37.8780 N.3   120  VAL120     -0.1245
     13  CA        -6.4340  -32.7810   36.5970 C.3   120  VAL120      0.1561
     14  C         -5.5970  -34.0330   36.8030 C.2   120  VAL120      0.2260
     15  O         -5.7930  -35.0400   36.1140 O.2   120  VAL120     -0.2867
     16  CB        -5.6760  -31.6930   35.8170 C.3   120  VAL120      0.0252
     17  CG1       -5.0040  -32.2940   34.5920 C.3   120  VAL120      0.0019
     18  CG2       -6.6390  -30.5680   35.4270 C.3   120  VAL120      0.0019
     19  N         -6.7640  -37.5640   35.2590 N.3   124  VAL124     -0.1231
     20  CA        -5.9360  -38.2600   34.2730 C.3   124  VAL124      0.1692
     21  C         -5.5200  -39.6330   34.7920 C.2   124  VAL124      0.2592
     22  O         -5.5270  -40.6210   34.0470 O.2   124  VAL124     -0.2718
     23  CB        -4.7220  -37.3930   33.8930 C.3   124  VAL124      0.0266
     24  CG1       -3.6930  -38.2070   33.0980 C.3   124  VAL124      0.0020
     25  CG2       -5.1840  -36.1950   33.0510 C.3   124  VAL124      0.0020
     26  N         -5.1560  -39.7280   36.0750 N.am  125  TRP125     -0.1976
     27  CA        -4.7570  -41.0180   36.6300 C.3   125  TRP125      0.1640
     28  C         -5.8830  -42.0400   36.5040 C.2   125  TRP125      0.2290
     29  O         -5.6550  -43.1780   36.0790 O.2   125  TRP125     -0.2864
     30  CB        -4.3330  -40.8460   38.0980 C.3   125  TRP125      0.0576
     31  CG        -4.0350  -42.1230   38.8440 C.ar  125  TRP125      0.0006
     32  CD1       -2.8630  -42.8400   38.8350 C.ar  125  TRP125      0.0946
     33  CD2       -4.9200  -42.8180   39.7310 C.ar  125  TRP125      0.0152
     34  NE1       -2.9750  -43.9320   39.6700 N.ar  125  TRP125     -0.2442
     35  CE2       -4.2300  -43.9470   40.2180 C.ar  125  TRP125      0.0810
     36  CE3       -6.2350  -42.5960   40.1550 C.ar  125  TRP125      0.0012
     37  CZ2       -4.8080  -44.8490   41.1240 C.ar  125  TRP125      0.0191
     38  CZ3       -6.8150  -43.4960   41.0520 C.ar  125  TRP125      0.0001
     39  CH2       -6.0980  -44.6130   41.5210 C.ar  125  TRP125      0.0015
     40  N         -8.2810  -42.2150   34.4900 N.3   127  ARG127     -0.1231
     41  CA        -8.5490  -42.5750   33.1060 C.3   127  ARG127      0.1694
     42  C         -7.4380  -43.4020   32.4780 C.2   127  ARG127      0.2593
     43  O         -7.6040  -43.8750   31.3460 O.2   127  ARG127     -0.2718
     44  CB        -8.7860  -41.3110   32.2750 C.3   127  ARG127      0.0321
     45  CG       -10.0890  -40.6140   32.6310 C.3   127  ARG127      0.0489
     46  CD       -10.2420  -39.3000   31.8740 C.3   127  ARG127      0.2205
     47  NE       -11.6150  -38.8060   31.9590 N.pl3 127  ARG127     -0.0865
     48  CZ       -12.1350  -38.1870   33.0170 C.cat 127  ARG127      0.5346
     49  NH1      -11.4100  -37.9960   34.1220 N.pl3 127  ARG127      0.1354
     50  NH2      -13.3960  -37.7690   32.9810 N.pl3 127  ARG127      0.1354
     51  N         -6.3120  -43.5880   33.1730 N.am  128  THR128     -0.1940
     52  CA        -5.2640  -44.4560   32.6570 C.3   128  THR128      0.2013
     53  C         -5.6010  -45.9010   33.0250 C.2   128  THR128      0.2484
     54  O         -6.0710  -46.1530   34.1340 O.2   128  THR128     -0.2729
     55  CB        -3.9070  -44.0430   33.2430 C.3   128  THR128      0.1807
     56  OG1       -3.6800  -42.6480   32.9850 O.3   128  THR128     -0.2208
     57  CG2       -2.7640  -44.8670   32.6490 C.3   128  THR128      0.0379
     58  N         -5.4560  -46.8560   32.1070 N.am  129  PRO129     -0.2726
     59  CA        -5.8170  -48.2400   32.4260 C.3   129  PRO129      0.1402
     60  C         -5.1180  -48.7010   33.6890 C.2   129  PRO129      0.2269
     61  O         -3.9320  -48.4040   33.8890 O.2   129  PRO129     -0.2865
     62  CB        -5.3350  -49.0270   31.2030 C.3   129  PRO129      0.0296
     63  CG        -5.5040  -48.0350   30.0840 C.3   129  PRO129      0.0237
     64  CD        -5.1460  -46.6910   30.6770 C.3   129  PRO129      0.0939
     65  N         -1.6870  -50.1170   33.6570 N.3   132  ALA132     -0.1231
     66  CA        -0.6290  -49.2800   33.0960 C.3   132  ALA132      0.1694
     67  C         -0.2590  -48.0850   33.9690 C.2   132  ALA132      0.2592
     68  O          0.6210  -47.3030   33.5860 O.2   132  ALA132     -0.2718
     69  CB        -1.0250  -48.7830   31.6950 C.3   132  ALA132      0.0304
     70  N         -0.8920  -47.9140   35.1210 N.am  133  ARG133     -0.1966
     71  CA        -0.7360  -46.7030   35.9060 C.3   133  ARG133      0.1714
     72  C         -0.1350  -47.0300   37.2670 C.2   133  ARG133      0.2458
     73  O         -0.1020  -48.1970   37.6660 O.2   133  ARG133     -0.2730
     74  CB        -2.0940  -46.0160   36.0880 C.3   133  ARG133      0.0347
     75  CG        -3.0040  -46.7040   37.1120 C.3   133  ARG133      0.0492
     76  CD        -4.4250  -46.1110   37.0670 C.3   133  ARG133      0.2205
     77  NE        -5.3210  -46.7310   38.0470 N.pl3 133  ARG133     -0.0865
     78  CZ        -6.6470  -46.7790   37.9400 C.cat 133  ARG133      0.5346
     79  NH1       -7.3680  -47.3520   38.9010 N.pl3 133  ARG133      0.1354
     80  NH2       -7.2610  -46.2310   36.8960 N.pl3 133  ARG133      0.1354
     81  N          0.3630  -46.0340   37.9980 N.am  134  PRO134     -0.2727
     82  CA         0.8530  -46.2900   39.3600 C.3   134  PRO134      0.1402
     83  C         -0.2440  -46.8600   40.2310 C.2   134  PRO134      0.2269
     84  O         -1.4130  -46.4560   40.1300 O.2   134  PRO134     -0.2865
     85  CB         1.2860  -44.9050   39.8570 C.3   134  PRO134      0.0296
     86  CG         1.6170  -44.1530   38.5610 C.3   134  PRO134      0.0237
     87  CD         0.5830  -44.6360   37.5850 C.3   134  PRO134      0.0939
@<TRIPOS>BOND
     1    63    64    1
     2    63    62    1
     3    64    58    1
     4    62    59    1
     5    43    42    2
     6    69    66    1
     7    46    47    1
     8    46    45    1
     9    47    48    2
    10    58    59    1
    11    58    53   am
    12     9    11   ar
    13     9     7   ar
    14    44    45    1
    15    44    41    1
    16    59    60    1
    17    42    41    1
    18    42    51   am
    19    57    55    1
    20    52    53    1
    21    52    51    1
    22    52    55    1
    23    11    10   ar
    24     7     6   ar
    25    50    48    1
    26    56    55    1
    27    48    49    1
    28    53    54    2
    29    25    23    1
    30    66    65    1
    31    66    67    1
    32    24    23    1
    33    41    40    1
    34    68    67    2
    35    60    61    2
    36    23    20    1
    37    67    70   am
    38    10     8   ar
    39    22    21    2
    40     6     8   ar
    41     6     5    1
    42    20    21    1
    43    20    19    1
    44    17    16    1
    45     5     2    1
    46    21    26   am
    47     2     1    1
    48     2     3    1
    49    70    71    1
    50    18    16    1
    51     4     3    2
    52    16    13    1
    53    71    74    1
    54    71    72    1
    55    26    27    1
    56    29    28    2
    57    74    75    1
    58    15    14    2
    59    28    27    1
    60    13    14    1
    61    13    12    1
    62    27    30    1
    63    80    78    1
    64    76    75    1
    65    76    77    1
    66    72    73    2
    67    72    81   am
    68    87    81    1
    69    87    86    1
    70    78    77    2
    71    78    79    1
    72    81    82    1
    73    30    31    1
    74    86    85    1
    75    32    31   ar
    76    32    34   ar
    77    31    33   ar
    78    82    85    1
    79    82    83    1
    80    34    35   ar
    81    33    36   ar
    82    33    35   ar
    83    84    83    2
    84    36    38   ar
    85    35    37   ar
    86    38    39   ar
    87    37    39   ar
