@<TRIPOS>MOLECULE
tmp/5gn0B00.pdb
 213 200 0 0 0
SMALL
GASTEIGER

@<TRIPOS>ATOM
      1  N         11.0790   32.6660  105.0490 N.3    19  PHE19      -0.1241
      2  CA        12.1690   33.1640  104.2180 C.3    19  PHE19       0.1605
      3  C         12.2830   34.6700  104.4160 C.2    19  PHE19       0.2264
      4  O         11.3130   35.4020  104.2220 O.2    19  PHE19      -0.2867
      5  CB        11.9160   32.8410  102.7450 C.3    19  PHE19       0.0534
      6  CG        12.7190   33.6820  101.7940 C.ar   19  PHE19      -0.0203
      7  CD1       12.3850   35.0070  101.5680 C.ar   19  PHE19      -0.0042
      8  CD2       13.8080   33.1470  101.1270 C.ar   19  PHE19      -0.0042
      9  CE1       13.1210   35.7830  100.6930 C.ar   19  PHE19      -0.0003
     10  CE2       14.5490   33.9180  100.2510 C.ar   19  PHE19      -0.0003
     11  CZ        14.2060   35.2380  100.0340 C.ar   19  PHE19      -0.0000
     12  N         15.1210   38.3190  104.4090 N.3    21  ALA21      -0.1245
     13  CA        16.3630   39.0140  104.1000 C.3    21  ALA21       0.1562
     14  C         16.4410   40.1690  105.0610 C.2    21  ALA21       0.2260
     15  O         15.4760   40.8430  105.2700 O.2    21  ALA21      -0.2867
     16  CB        16.3770   39.5010  102.6780 C.3    21  ALA21       0.0290
     17  N         14.2620   43.4820  104.9090 N.3    37  PHE37      -0.1227
     18  CA        13.9390   43.9720  103.5820 C.3    37  PHE37       0.1736
     19  C         12.7190   43.3320  102.9860 C.2    37  PHE37       0.2595
     20  O         11.8270   43.9970  102.5730 O.2    37  PHE37      -0.2718
     21  CB        15.0960   43.6920  102.6740 C.3    37  PHE37       0.0547
     22  CG        16.3140   44.4580  103.0180 C.ar   37  PHE37      -0.0202
     23  CD1       16.3320   45.8110  102.9270 C.ar   37  PHE37      -0.0042
     24  CD2       17.4350   43.8270  103.4330 C.ar   37  PHE37      -0.0042
     25  CE1       17.4550   46.5270  103.2520 C.ar   37  PHE37      -0.0003
     26  CE2       18.5560   44.5310  103.7540 C.ar   37  PHE37      -0.0003
     27  CZ        18.5650   45.8850  103.6660 C.ar   37  PHE37      -0.0000
     28  N         12.7210   42.0150  102.9790 N.am   38  VAL38      -0.1980
     29  CA        11.6380   41.1520  102.5340 C.3    38  VAL38       0.1595
     30  C         11.4020   40.0880  103.5910 C.2    38  VAL38       0.2287
     31  O         12.2960   39.7100  104.2900 O.2    38  VAL38      -0.2864
     32  CB        11.9130   40.4840  101.1860 C.3    38  VAL38       0.0276
     33  CG1       12.0760   41.5060  100.1030 C.3    38  VAL38       0.0022
     34  CG2       13.1030   39.5830  101.2440 C.3    38  VAL38       0.0022
     35  N          9.5040   45.3590   98.7280 N.3    90  ALA90      -0.1245
     36  CA        10.5110   45.5330   99.7410 C.3    90  ALA90       0.1562
     37  C         10.5560   46.8070  100.5350 C.2    90  ALA90       0.2260
     38  O         10.2750   47.8540  100.0570 O.2    90  ALA90      -0.2867
     39  CB        11.8550   45.2710   99.1440 C.3    90  ALA90       0.0290
     40  N         12.9670   49.1680  102.0460 N.3    92  LEU92      -0.1245
     41  CA        14.3350   49.5840  102.0600 C.3    92  LEU92       0.1561
     42  C         14.6210   50.7000  103.0420 C.2    92  LEU92       0.2260
     43  O         15.7150   51.1840  103.1100 O.2    92  LEU92      -0.2867
     44  CB        14.7150   50.0390  100.6690 C.3    92  LEU92       0.0270
     45  CG        14.5200   48.9800   99.6130 C.3    92  LEU92       0.0019
     46  CD1       15.1470   49.4160   98.3230 C.3    92  LEU92       0.0001
     47  CD2       15.1840   47.7300  100.0990 C.3    92  LEU92       0.0001
     48  N         20.4630   36.4980  104.9550 N.3   106  VAL106     -0.1245
     49  CA        19.2980   35.8370  104.4450 C.3   106  VAL106      0.1561
     50  C         19.0210   34.5910  105.2770 C.2   106  VAL106      0.2260
     51  O         19.9230   33.9200  105.6440 O.2   106  VAL106     -0.2867
     52  CB        19.5610   35.5070  102.9690 C.3   106  VAL106      0.0252
     53  CG1       19.8830   34.0590  102.7800 C.3   106  VAL106      0.0019
     54  CG2       18.4140   35.9220  102.0940 C.3   106  VAL106      0.0019
     55  N         20.4600   28.8990   94.1310 N.3   122  THR122     -0.1218
     56  CA        19.8680   30.2170   94.0360 C.3   122  THR122      0.1862
     57  C         20.5380   30.9990   92.9410 C.2   122  THR122      0.2287
     58  O         21.7140   31.0750   92.9150 O.2   122  THR122     -0.2866
     59  CB        20.0120   31.0180   95.3430 C.3   122  THR122      0.1770
     60  OG1       20.0250   30.1540   96.4670 O.3   122  THR122     -0.2211
     61  CG2       18.8840   31.9280   95.5270 C.3   122  THR122      0.0375
     62  N         20.7400   34.7520   90.7480 N.3   124  VAL124     -0.1245
     63  CA        20.2420   36.0960   90.6070 C.3   124  VAL124      0.1561
     64  C         20.4800   36.5100   89.1930 C.2   124  VAL124      0.2260
     65  O         21.5490   36.3850   88.6940 O.2   124  VAL124     -0.2867
     66  CB        20.8340   37.0820   91.5920 C.3   124  VAL124      0.0252
     67  CG1       21.1820   36.4100   92.8840 C.3   124  VAL124      0.0019
     68  CG2       21.9780   37.8350   90.9890 C.3   124  VAL124      0.0019
     69  N         24.9290   35.1920   89.0360 N.3   132  VAL132     -0.1245
     70  CA        25.6130   34.3700   90.0080 C.3   132  VAL132      0.1561
     71  C         24.7390   33.2310   90.4610 C.2   132  VAL132      0.2260
     72  O         23.5500   33.2490   90.2720 O.2   132  VAL132     -0.2867
     73  CB        26.0060   35.1290   91.2510 C.3   132  VAL132      0.0252
     74  CG1       26.7930   36.3370   90.8900 C.3   132  VAL132      0.0019
     75  CG2       24.7850   35.5270   92.0120 C.3   132  VAL132      0.0019
     76  N         24.5110   30.5990   93.8400 N.3   134  LYS134     -0.1245
     77  CA        24.9970   30.0910   95.1030 C.3   134  LYS134      0.1561
     78  C         24.3810   28.7220   95.3550 C.2   134  LYS134      0.2260
     79  O         23.3120   28.4520   94.9000 O.2   134  LYS134     -0.2867
     80  CB        24.6490   31.0500   96.2090 C.3   134  LYS134      0.0271
     81  CG        25.5600   32.2420   96.3530 C.3   134  LYS134      0.0035
     82  CD        25.0820   33.2030   97.4400 C.3   134  LYS134      0.0206
     83  CE        23.6710   33.6880   97.1500 C.3   134  LYS134      0.1093
     84  NZ        23.3500   34.8940   97.9500 N.3   134  LYS134     -0.1314
     85  N         24.6680   37.8630  102.8050 N.3   156  LEU156     -0.1231
     86  CA        24.4920   38.3740  101.5020 C.3   156  LEU156      0.1693
     87  C         25.8370   38.6620  100.9010 C.2   156  LEU156      0.2592
     88  O         26.7450   39.0520  101.5800 O.2   156  LEU156     -0.2718
     89  CB        23.6480   39.6180  101.5830 C.3   156  LEU156      0.0284
     90  CG        22.2350   39.4130  101.0910 C.3   156  LEU156      0.0019
     91  CD1       21.3310   40.1900  101.9880 C.3   156  LEU156      0.0001
     92  CD2       22.1230   39.9250   99.6760 C.3   156  LEU156      0.0001
     93  N         25.9770   38.4090   99.6240 N.am  157  CYS157     -0.1970
     94  CA        27.2490   38.6320   98.9810 C.3   157  CYS157      0.1712
     95  C         27.5050   40.0880   98.7470 C.2   157  CYS157      0.2296
     96  O         26.6090   40.8800   98.7900 O.2   157  CYS157     -0.2864
     97  CB        27.3620   37.8190   97.7050 C.3   157  CYS157      0.0983
     98  SG        27.3860   36.0300   97.9280 S.3   157  CYS157     -0.0798
     99  N         28.2110   41.8330   96.0650 N.3   159  TYR159     -0.1227
    100  CA        27.5900   42.4560   94.9150 C.3   159  TYR159      0.1736
    101  C         26.1820   42.9150   95.2120 C.2   159  TYR159      0.2595
    102  O         25.7220   43.8840   94.6630 O.2   159  TYR159     -0.2718
    103  CB        27.6860   41.5600   93.6830 C.3   159  TYR159      0.0548
    104  CG        26.9680   40.2750   93.8160 C.ar  159  TYR159     -0.0200
    105  CD1       27.4240   39.3050   94.6590 C.ar  159  TYR159     -0.0009
    106  CD2       25.8010   40.0470   93.1410 C.ar  159  TYR159     -0.0009
    107  CE1       26.7460   38.1200   94.8130 C.ar  159  TYR159      0.0417
    108  CE2       25.1170   38.8740   93.2950 C.ar  159  TYR159      0.0417
    109  CZ        25.5970   37.9150   94.1300 C.ar  159  TYR159      0.1957
    110  OH        24.9230   36.7370   94.2910 O.3   159  TYR159     -0.2866
    111  N         25.4750   42.1060   95.9740 N.am  160  MET160     -0.1979
    112  CA        24.1180   42.3730   96.4030 C.3   160  MET160      0.1605
    113  C         24.0220   43.5160   97.3540 C.2   160  MET160      0.2287
    114  O         23.0850   44.2750   97.3230 O.2   160  MET160     -0.2864
    115  CB        23.5110   41.1590   97.0390 C.3   160  MET160      0.0413
    116  CG        22.9610   40.1980   96.0390 C.3   160  MET160      0.0598
    117  SD        21.3420   40.6700   95.5240 S.3   160  MET160     -0.1393
    118  CE        20.4230   39.5450   96.5170 C.3   160  MET160      0.0692
    119  N         24.2160   46.5340   95.3790 N.3   163  PHE163     -0.1227
    120  CA        23.0270   46.7770   94.6270 C.3   163  PHE163      0.1736
    121  C         22.0150   47.4550   95.4810 C.2   163  PHE163      0.2595
    122  O         21.3440   48.3300   95.0350 O.2   163  PHE163     -0.2718
    123  CB        22.4650   45.4660   94.1910 C.3   163  PHE163      0.0547
    124  CG        21.3180   45.5940   93.2830 C.ar  163  PHE163     -0.0202
    125  CD1       21.4410   46.2760   92.1160 C.ar  163  PHE163     -0.0042
    126  CD2       20.1290   45.0270   93.5940 C.ar  163  PHE163     -0.0042
    127  CE1       20.3970   46.3870   91.2700 C.ar  163  PHE163     -0.0003
    128  CE2       19.0740   45.1490   92.7580 C.ar  163  PHE163     -0.0003
    129  CZ        19.2110   45.8250   91.5920 C.ar  163  PHE163     -0.0000
    130  N         21.8730   47.0030   96.7070 N.am  164  ILE164     -0.1980
    131  CA        20.9340   47.5670   97.6390 C.3   164  ILE164      0.1595
    132  C         21.3210   48.9950   97.9150 C.2   164  ILE164      0.2287
    133  O         20.4970   49.8580   98.0540 O.2   164  ILE164     -0.2864
    134  CB        20.9520   46.7580   98.9320 C.3   164  ILE164      0.0276
    135  CG1       19.8850   45.6960   98.9130 C.3   164  ILE164      0.0022
    136  CG2       20.6770   47.6130  100.1300 C.3   164  ILE164      0.0022
    137  CD1       19.9770   44.7490  100.0690 C.3   164  ILE164      0.0001
    138  N         20.3680   51.1990   94.9480 N.3   167  LEU167     -0.1245
    139  CA        18.9430   51.4800   94.9390 C.3   167  LEU167      0.1561
    140  C         18.5460   52.3870   96.0720 C.2   167  LEU167      0.2260
    141  O         17.7550   53.2610   95.9190 O.2   167  LEU167     -0.2867
    142  CB        18.1250   50.2220   95.0560 C.3   167  LEU167      0.0270
    143  CG        18.1790   49.1230   94.0380 C.3   167  LEU167      0.0019
    144  CD1       17.4960   47.9640   94.6970 C.3   167  LEU167      0.0001
    145  CD2       17.4540   49.5150   92.7850 C.3   167  LEU167      0.0001
    146  N         14.5180   47.5810   89.4120 N.3   180  LEU180     -0.1245
    147  CA        14.1320   46.2870   89.9450 C.3   180  LEU180      0.1561
    148  C         13.2670   45.4760   89.0550 C.2   180  LEU180      0.2260
    149  O         12.9340   44.3640   89.3800 O.2   180  LEU180     -0.2867
    150  CB        13.4260   46.4460   91.2670 C.3   180  LEU180      0.0270
    151  CG        14.2320   46.5600   92.5350 C.3   180  LEU180      0.0019
    152  CD1       13.2960   47.0280   93.5970 C.3   180  LEU180      0.0001
    153  CD2       14.8440   45.2540   92.9270 C.3   180  LEU180      0.0001
    154  N         15.3230   42.5690   87.7070 N.3   183  PHE183     -0.1241
    155  CA        16.0520   41.8240   88.6790 C.3   183  PHE183      0.1605
    156  C         15.1320   40.7200   89.1420 C.2   183  PHE183      0.2264
    157  O         14.0130   40.9640   89.5060 O.2   183  PHE183     -0.2867
    158  CB        16.3910   42.7410   89.8130 C.3   183  PHE183      0.0534
    159  CG        17.1030   42.0850   90.9120 C.ar  183  PHE183     -0.0203
    160  CD1       18.4190   41.7950   90.8070 C.ar  183  PHE183     -0.0042
    161  CD2       16.4460   41.7580   92.0430 C.ar  183  PHE183     -0.0042
    162  CE1       19.0720   41.1880   91.8240 C.ar  183  PHE183     -0.0003
    163  CE2       17.0830   41.1570   93.0640 C.ar  183  PHE183     -0.0003
    164  CZ        18.3950   40.8610   92.9520 C.ar  183  PHE183     -0.0000
    165  N         15.1970   36.5470   90.9850 N.3   185  ILE185     -0.1245
    166  CA        15.9260   35.4960   91.6420 C.3   185  ILE185      0.1561
    167  C         15.1310   34.2250   91.5290 C.2   185  ILE185      0.2260
    168  O         13.9670   34.2120   91.7870 O.2   185  ILE185     -0.2867
    169  CB        16.1630   35.7930   93.1150 C.3   185  ILE185      0.0252
    170  CG1       16.9000   37.0850   93.2700 C.3   185  ILE185      0.0019
    171  CG2       17.0470   34.7460   93.7230 C.3   185  ILE185      0.0019
    172  CD1       17.0520   37.4870   94.6910 C.3   185  ILE185      0.0001
    173  N         15.0620   30.3410   92.8010 N.3   187  GLN187     -0.1245
    174  CA        15.5670   29.4640   93.8110 C.3   187  GLN187      0.1566
    175  C         15.0410   28.0780   93.5270 C.2   187  GLN187      0.2260
    176  O         13.8930   27.9220   93.2700 O.2   187  GLN187     -0.2867
    177  CB        15.1000   30.0040   95.1420 C.3   187  GLN187      0.0367
    178  CG        15.2630   29.1050   96.3320 C.3   187  GLN187      0.0905
    179  CD        15.1890   29.8410   97.6390 C.2   187  GLN187      0.2608
    180  OE1       15.2790   29.2490   98.6920 O.2   187  GLN187     -0.2717
    181  NE2       15.0320   31.1250   97.5830 N.am  187  GLN187     -0.0878
    182  N         11.3860   34.7750   91.9480 N.3   203  TYR203     -0.1241
    183  CA        11.1360   35.9700   92.7360 C.3   203  TYR203      0.1605
    184  C         11.1160   37.2980   91.9850 C.2   203  TYR203      0.2264
    185  O         12.0450   37.6280   91.3160 O.2   203  TYR203     -0.2867
    186  CB        12.1930   36.0550   93.8220 C.3   203  TYR203      0.0534
    187  CG        12.1010   35.0600   94.9270 C.ar  203  TYR203     -0.0201
    188  CD1       11.2140   35.2310   95.9150 C.ar  203  TYR203     -0.0009
    189  CD2       12.9340   33.9870   94.9910 C.ar  203  TYR203     -0.0009
    190  CE1       11.1320   34.3590   96.9600 C.ar  203  TYR203      0.0417
    191  CE2       12.8440   33.0900   96.0090 C.ar  203  TYR203      0.0417
    192  CZ        11.9350   33.3060   97.0080 C.ar  203  TYR203      0.1957
    193  OH        11.7930   32.4860   98.0740 O.3   203  TYR203     -0.2866
    194  N         10.4520   41.6240   92.2440 N.3   205  PHE205     -0.1227
    195  CA        10.5990   42.7140   93.1590 C.3   205  PHE205      0.1736
    196  C         10.0780   44.0760   92.8490 C.2   205  PHE205      0.2595
    197  O          9.8990   44.4700   91.7350 O.2   205  PHE205     -0.2718
    198  CB        12.0680   42.8560   93.4610 C.3   205  PHE205      0.0547
    199  CG        12.6010   41.7410   94.2450 C.ar  205  PHE205     -0.0202
    200  CD1       12.5080   41.7550   95.5920 C.ar  205  PHE205     -0.0042
    201  CD2       13.1630   40.6690   93.6290 C.ar  205  PHE205     -0.0042
    202  CE1       12.9840   40.7200   96.3180 C.ar  205  PHE205     -0.0003
    203  CE2       13.6250   39.6240   94.3520 C.ar  205  PHE205     -0.0003
    204  CZ        13.5330   39.6510   95.6940 C.ar  205  PHE205     -0.0000
    205  N          9.8300   44.7680   93.9380 N.am  206  GLU206     -0.1979
    206  CA         9.3470   46.1180   93.9840 C.3   206  GLU206      0.1602
    207  C          9.6280   46.7370   95.3430 C.2   206  GLU206      0.2287
    208  O         10.1220   46.1140   96.2390 O.2   206  GLU206     -0.2864
    209  CB         7.8790   46.1770   93.6240 C.3   206  GLU206      0.0415
    210  CG         7.5280   47.4160   92.8620 C.3   206  GLU206      0.1163
    211  CD         6.6970   47.1720   91.6500 C.2   206  GLU206      0.3649
    212  OE1        5.4830   47.1660   91.7760 O.co2 206  GLU206     -0.2457
    213  OE2        7.2460   47.0390   90.5570 O.co2 206  GLU206     -0.2457
@<TRIPOS>BOND
     1   154   155    1
     2   155   156    1
     3   155   158    1
     4    65    64    2
     5    69    70    1
     6   148   149    2
     7   148   147    1
     8   156   157    2
     9    64    63    1
    10   146   147    1
    11   158   159    1
    12   147   150    1
    13    70    71    1
    14    70    73    1
    15    72    71    2
    16   213   211   ar
    17    63    62    1
    18    63    66    1
    19   160   159   ar
    20   160   162   ar
    21    74    73    1
    22   159   161   ar
    23   165   166    1
    24    68    66    1
    25    73    75    1
    26   150   151    1
    27   127   129   ar
    28   127   125   ar
    29   185   184    2
    30   167   166    1
    31   167   168    2
    32   129   128   ar
    33    66    67    1
    34   166   169    1
    35   211   212   ar
    36   211   210    1
    37   197   196    2
    38   162   164   ar
    39   182   183    1
    40   184   183    1
    41   161   163   ar
    42   125   124   ar
    43   194   195    1
    44   151   153    1
    45   151   152    1
    46   183   186    1
    47   128   126   ar
    48   145   143    1
    49   173   174    1
    50   196   195    1
    51   196   205   am
    52   210   209    1
    53    58    57    2
    54    57    56    1
    55   164   163   ar
    56   169   170    1
    57   169   171    1
    58   106   108   ar
    59   106   104   ar
    60   195   198    1
    61   170   172    1
    62   176   175    2
    63   124   126   ar
    64   124   123    1
    65   108   109   ar
    66   198   199    1
    67   175   174    1
    68   209   206    1
    69   201   199   ar
    70   201   203   ar
    71   103   104    1
    72   103   100    1
    73   174   177    1
    74   104   105   ar
    75   186   187    1
    76    76    77    1
    77   205   206    1
    78   206   207    1
    79    56    55    1
    80    56    59    1
    81   143   144    1
    82   143   142    1
    83   109   110    1
    84   109   107   ar
    85   123   120    1
    86   199   200   ar
    87   203   204   ar
    88   120   119    1
    89   120   121    1
    90   105   107   ar
    91   102   101    2
    92    79    78    2
    93   100   101    1
    94   100    99    1
    95   187   189   ar
    96   187   188   ar
    97   139   138    1
    98   139   142    1
    99   139   140    1
   100   189   191   ar
   101   122   121    2
   102    77    78    1
   103    77    80    1
   104   177   178    1
   105   101   111   am
   106    59    61    1
   107    59    60    1
   108   207   208    2
   109   121   130   am
   110   117   116    1
   111   117   118    1
   112   200   202   ar
   113   204   202   ar
   114   188   190   ar
   115   141   140    2
   116   111   112    1
   117   191   192   ar
   118   116   115    1
   119    80    81    1
   120   178   179    1
   121    81    82    1
   122   112   115    1
   123   112   113    1
   124   130   131    1
   125   190   192   ar
   126   192   193    1
   127    83    82    1
   128    83    84    1
   129   114   113    2
   130   181   179   am
   131   131   132    1
   132   131   134    1
   133   179   180    2
   134    97    98    1
   135    97    94    1
   136   132   133    2
   137    46    45    1
   138    35    36    1
   139    95    96    2
   140    95    94    1
   141   135   134    1
   142   135   137    1
   143   134   136    1
   144    94    93    1
   145    39    36    1
   146    45    47    1
   147    45    44    1
   148    93    87   am
   149    92    90    1
   150    36    37    1
   151    11    10   ar
   152    11     9   ar
   153    38    37    2
   154    33    32    1
   155    10     8   ar
   156    44    41    1
   157     9     7   ar
   158    87    86    1
   159    87    88    2
   160    90    89    1
   161    90    91    1
   162     8     6   ar
   163    32    34    1
   164    32    29    1
   165    86    89    1
   166    86    85    1
   167     7     6   ar
   168     6     5    1
   169    40    41    1
   170    41    42    1
   171    54    52    1
   172    29    28    1
   173    29    30    1
   174    20    19    2
   175    21    22    1
   176    21    18    1
   177    16    13    1
   178     5     2    1
   179    53    52    1
   180    23    22   ar
   181    23    25   ar
   182    52    49    1
   183    28    19   am
   184    19    18    1
   185    22    24   ar
   186    42    43    2
   187    25    27   ar
   188    24    26   ar
   189    18    17    1
   190    30    31    2
   191    27    26   ar
   192    13    12    1
   193    13    14    1
   194     2     3    1
   195     2     1    1
   196     4     3    2
   197    49    48    1
   198    49    50    1
   199    14    15    2
   200    50    51    2
