@<TRIPOS>MOLECULE
tmp/5gn0D01.pdb
 197 184 0 0 0
SMALL
GASTEIGER

@<TRIPOS>ATOM
      1  N        -23.4490   47.4380  189.0260 N.3    18  PHE18      -0.1241
      2  CA       -23.2520   47.6830  190.4280 C.3    18  PHE18       0.1605
      3  C        -22.6070   46.4740  191.0770 C.2    18  PHE18       0.2264
      4  O        -22.9760   45.3910  190.7640 O.2    18  PHE18      -0.2867
      5  CB       -24.5640   47.9900  191.1020 C.3    18  PHE18       0.0534
      6  CG       -24.4400   48.1910  192.5510 C.ar   18  PHE18      -0.0203
      7  CD1      -24.0920   49.3900  193.0460 C.ar   18  PHE18      -0.0042
      8  CD2      -24.6350   47.1650  193.4060 C.ar   18  PHE18      -0.0042
      9  CE1      -23.9490   49.5800  194.3900 C.ar   18  PHE18      -0.0003
     10  CE2      -24.5060   47.3390  194.7540 C.ar   18  PHE18      -0.0003
     11  CZ       -24.1660   48.5540  195.2530 C.ar   18  PHE18      -0.0000
     12  N        -20.6280   45.1050  194.9760 N.3    20  ALA20      -0.1245
     13  CA       -19.9850   45.3040  196.2610 C.3    20  ALA20       0.1562
     14  C        -19.1280   44.0810  196.4090 C.2    20  ALA20       0.2260
     15  O        -19.6330   43.0240  196.3800 O.2    20  ALA20      -0.2867
     16  CB       -21.0030   45.3620  197.3470 C.3    20  ALA20       0.0290
     17  N        -20.3110   40.1480  196.7520 N.3    36  PHE36      -0.1227
     18  CA       -21.4210   40.0240  197.6520 C.3    36  PHE36       0.1736
     19  C        -22.7130   40.1970  196.9260 C.2    36  PHE36       0.2595
     20  O        -23.6280   39.4670  197.1130 O.2    36  PHE36      -0.2718
     21  CB       -21.3340   41.1130  198.6730 C.3    36  PHE36       0.0547
     22  CG       -20.1620   41.0100  199.5620 C.ar   36  PHE36      -0.0202
     23  CD1      -19.9930   39.9280  200.3500 C.ar   36  PHE36      -0.0042
     24  CD2      -19.2740   42.0190  199.6400 C.ar   36  PHE36      -0.0042
     25  CE1      -18.9300   39.8380  201.1920 C.ar   36  PHE36      -0.0003
     26  CE2      -18.2080   41.9470  200.4600 C.ar   36  PHE36      -0.0003
     27  CZ       -18.0320   40.8490  201.2430 C.ar   36  PHE36      -0.0000
     28  N        -22.7820   41.2430  196.1380 N.am   37  VAL37      -0.1980
     29  CA       -23.9270   41.5450  195.2950 C.3    37  VAL37       0.1595
     30  C        -23.4640   42.0390  193.9430 C.2    37  VAL37       0.2287
     31  O        -22.4520   42.6310  193.8630 O.2    37  VAL37      -0.2864
     32  CB       -24.8330   42.5790  195.9320 C.3    37  VAL37       0.0276
     33  CG1      -25.4270   42.0470  197.1970 C.3    37  VAL37       0.0022
     34  CG2      -24.0910   43.8240  196.2450 C.3    37  VAL37       0.0022
     35  N        -27.8290   38.3540  199.0320 N.3    89  ALA89      -0.1245
     36  CA       -26.3990   38.3720  199.1990 C.3    89  ALA89       0.1562
     37  C        -25.6780   37.0750  199.4480 C.2    89  ALA89       0.2260
     38  O        -26.1640   36.2040  200.1000 O.2    89  ALA89      -0.2867
     39  CB       -26.0440   39.3640  200.2710 C.3    89  ALA89       0.0290
     40  N        -22.7630   35.7550  201.2950 N.3    91  LEU91      -0.1245
     41  CA       -21.8090   36.0570  202.3180 C.3    91  LEU91       0.1561
     42  C        -20.8230   34.9390  202.5200 C.2    91  LEU91       0.2260
     43  O        -20.1600   34.9080  203.5060 O.2    91  LEU91      -0.2867
     44  CB       -22.5090   36.3870  203.6140 C.3    91  LEU91       0.0270
     45  CG       -23.4600   37.5750  203.6230 C.3    91  LEU91       0.0019
     46  CD1      -23.9090   37.8170  205.0330 C.3    91  LEU91       0.0001
     47  CD2      -22.7900   38.8200  203.1140 C.3    91  LEU91       0.0001
     48  N        -16.6970   48.8640  196.5770 N.3   105  VAL105     -0.1245
     49  CA       -17.9000   49.0690  195.8130 C.3   105  VAL105      0.1561
     50  C        -17.5420   49.7390  194.5100 C.2   105  VAL105      0.2260
     51  O        -16.6030   50.4550  194.4280 O.2   105  VAL105     -0.2867
     52  CB       -18.8590   50.0070  196.5300 C.3   105  VAL105      0.0252
     53  CG1      -20.2540   49.8630  195.9910 C.3   105  VAL105      0.0019
     54  CG2      -18.8630   49.7150  197.9910 C.3   105  VAL105      0.0019
     55  N        -25.4270   58.1880  198.9000 N.3   121  THR121     -0.1218
     56  CA       -25.8220   56.8620  199.2830 C.3   121  THR121      0.1862
     57  C        -26.0920   56.9140  200.7440 C.2   121  THR121      0.2287
     58  O        -25.2240   57.2140  201.4820 O.2   121  THR121     -0.2866
     59  CB       -24.6630   55.9150  199.0970 C.3   121  THR121      0.1770
     60  OG1      -24.5210   55.6270  197.7160 O.3   121  THR121     -0.2211
     61  CG2      -24.9050   54.6690  199.8390 C.3   121  THR121      0.0375
     62  N        -27.2450   54.9160  204.1680 N.3   123  VAL123     -0.1245
     63  CA       -27.4940   53.6360  204.7730 C.3   123  VAL123      0.1561
     64  C        -28.4050   53.8550  205.9470 C.2   123  VAL123      0.2260
     65  O        -28.1950   54.7680  206.6880 O.2   123  VAL123     -0.2867
     66  CB       -26.2220   53.0290  205.2810 C.3   123  VAL123      0.0252
     67  CG1      -26.5010   51.6910  205.8870 C.3   123  VAL123      0.0019
     68  CG2      -25.2580   52.8910  204.1450 C.3   123  VAL123      0.0019
     69  N        -25.6950   56.6150  207.9900 N.3   131  VAL131     -0.1245
     70  CA       -24.5420   57.1700  207.3190 C.3   131  VAL131      0.1561
     71  C        -24.9200   57.7140  205.9820 C.2   131  VAL131      0.2260
     72  O        -25.7860   57.1900  205.3600 O.2   131  VAL131     -0.2867
     73  CB       -23.5610   56.0830  206.9340 C.3   131  VAL131      0.0252
     74  CG1      -22.1780   56.6430  206.7260 C.3   131  VAL131      0.0019
     75  CG2      -23.5470   54.9870  207.9490 C.3   131  VAL131      0.0019
     76  N        -22.9710   58.7500  202.4450 N.3   133  LYS133     -0.1245
     77  CA       -21.7640   58.9150  201.6900 C.3   133  LYS133      0.1561
     78  C        -22.1210   59.6540  200.4280 C.2   133  LYS133      0.2260
     79  O        -23.0800   59.3540  199.8220 O.2   133  LYS133     -0.2867
     80  CB       -21.1750   57.5650  201.3570 C.3   133  LYS133      0.0271
     81  CG       -19.8820   57.6550  200.5770 C.3   133  LYS133      0.0035
     82  CD       -19.2960   56.2590  200.7230 C.3   133  LYS133      0.0206
     83  CE       -17.7810   56.2190  200.5980 C.3   133  LYS133      0.1093
     84  NZ       -17.3270   55.0030  199.8980 N.3   133  LYS133     -0.1314
     85  N        -14.2460   52.3890  198.8440 N.3   154  PRO154     -0.2102
     86  CA       -14.0770   51.5290  199.9840 C.3   154  PRO154      0.1504
     87  C        -15.2600   51.4360  200.8460 C.2   154  PRO154      0.2576
     88  O        -15.8750   52.4280  201.0830 O.2   154  PRO154     -0.2718
     89  CB       -13.0400   52.2650  200.7770 C.3   154  PRO154      0.0282
     90  CG       -12.2550   53.0040  199.7860 C.3   154  PRO154      0.0208
     91  CD       -12.9900   53.0280  198.4940 C.3   154  PRO154      0.0893
     92  N        -15.6080   50.2440  201.2450 N.am  155  LEU155     -0.1966
     93  CA       -16.6950   50.1280  202.1390 C.3   155  LEU155      0.1728
     94  C        -16.2520   50.7210  203.4430 C.2   155  LEU155      0.2616
     95  O        -15.1130   50.6450  203.8500 O.2   155  LEU155     -0.2715
     96  CB       -17.1010   48.6960  202.3120 C.3   155  LEU155      0.0311
     97  CG       -18.2520   48.3450  201.4100 C.3   155  LEU155      0.0022
     98  CD1      -18.0590   46.9340  200.9500 C.3   155  LEU155      0.0001
     99  CD2      -19.5130   48.4370  202.2280 C.3   155  LEU155      0.0001
    100  N        -17.2040   51.3560  204.0590 N.am  156  CYS156     -0.1968
    101  CA       -17.0060   52.0150  205.3060 C.3   156  CYS156      0.1712
    102  C        -16.8210   51.0000  206.4020 C.2   156  CYS156      0.2296
    103  O        -17.1890   49.8540  206.2780 O.2   156  CYS156     -0.2864
    104  CB       -18.2360   52.8790  205.5560 C.3   156  CYS156      0.0983
    105  SG       -19.0920   53.2680  204.0070 S.3   156  CYS156     -0.0798
    106  N        -19.9340   49.4040  207.5520 N.3   159  MET159     -0.1245
    107  CA       -20.3360   48.4190  206.5980 C.3   159  MET159      0.1570
    108  C        -19.5590   47.1560  206.7400 C.2   159  MET159      0.2261
    109  O        -20.1130   46.1010  206.6740 O.2   159  MET159     -0.2867
    110  CB       -20.0610   48.9810  205.2420 C.3   159  MET159      0.0387
    111  CG       -21.2700   49.0650  204.3720 C.3   159  MET159      0.0595
    112  SD       -22.6860   48.9910  205.4120 S.3   159  MET159     -0.1393
    113  CE       -23.7340   47.9820  204.4260 C.3   159  MET159      0.0692
    114  N        -20.5680   45.4530  209.9850 N.3   162  PHE162     -0.1227
    115  CA       -21.8900   44.8920  209.8930 C.3   162  PHE162      0.1736
    116  C        -21.8240   43.5750  209.1900 C.2   162  PHE162      0.2595
    117  O        -22.4730   42.6450  209.5670 O.2   162  PHE162     -0.2718
    118  CB       -22.7740   45.8760  209.1550 C.3   162  PHE162      0.0547
    119  CG       -24.1100   45.3540  208.7890 C.ar  162  PHE162     -0.0202
    120  CD1      -25.0370   45.1120  209.7370 C.ar  162  PHE162     -0.0042
    121  CD2      -24.4410   45.1620  207.4800 C.ar  162  PHE162     -0.0042
    122  CE1      -26.2670   44.6390  209.4010 C.ar  162  PHE162     -0.0003
    123  CE2      -25.6560   44.6830  207.1270 C.ar  162  PHE162     -0.0003
    124  CZ       -26.5800   44.4280  208.0960 C.ar  162  PHE162     -0.0000
    125  N        -21.0530   43.5000  208.1310 N.am  163  ILE163     -0.1980
    126  CA       -20.9210   42.2680  207.4100 C.3   163  ILE163      0.1595
    127  C        -20.2650   41.2370  208.2830 C.2   163  ILE163      0.2287
    128  O        -20.6350   40.1120  208.2820 O.2   163  ILE163     -0.2864
    129  CB       -20.0760   42.4630  206.1730 C.3   163  ILE163      0.0276
    130  CG1      -20.8320   43.2610  205.1470 C.3   163  ILE163      0.0022
    131  CG2      -19.7060   41.1410  205.5750 C.3   163  ILE163      0.0022
    132  CD1      -20.0340   43.4530  203.8920 C.3   163  ILE163      0.0001
    133  N        -22.7780   40.1510  210.9430 N.3   166  LEU166     -0.1245
    134  CA       -23.8570   39.4350  210.3070 C.3   166  LEU166      0.1561
    135  C        -23.5040   38.0300  209.9920 C.2   166  LEU166      0.2260
    136  O        -24.2530   37.1400  210.1910 O.2   166  LEU166     -0.2867
    137  CB       -24.2450   40.1790  209.0570 C.3   166  LEU166      0.0270
    138  CG       -25.6210   40.0030  208.4810 C.3   166  LEU166      0.0019
    139  CD1      -26.6050   40.6350  209.4020 C.3   166  LEU166      0.0001
    140  CD2      -25.6710   40.6610  207.1290 C.3   166  LEU166      0.0001
    141  N        -31.4920   41.7950  208.7300 N.3   179  LEU179     -0.1245
    142  CA       -31.4670   42.4260  207.4190 C.3   179  LEU179      0.1561
    143  C        -32.7690   43.0200  206.9900 C.2   179  LEU179      0.2260
    144  O        -32.8580   43.6360  205.9620 O.2   179  LEU179     -0.2867
    145  CB       -31.1010   41.4130  206.3790 C.3   179  LEU179      0.0270
    146  CG       -29.6690   41.2480  206.0120 C.3   179  LEU179      0.0019
    147  CD1      -29.6570   40.2720  204.8860 C.3   179  LEU179      0.0001
    148  CD2      -29.1450   42.5720  205.5740 C.3   179  LEU179      0.0001
    149  N        -32.6870   46.8290  207.4560 N.3   182  PHE182     -0.1241
    150  CA       -31.5510   47.4620  206.9060 C.3   182  PHE182      0.1605
    151  C        -31.8880   47.7820  205.4860 C.2   182  PHE182      0.2264
    152  O        -32.2970   46.9250  204.7600 O.2   182  PHE182     -0.2867
    153  CB       -30.4090   46.4780  206.9230 C.3   182  PHE182      0.0534
    154  CG       -29.1560   47.0250  206.3750 C.ar  182  PHE182     -0.0203
    155  CD1      -28.3830   47.8230  207.1390 C.ar  182  PHE182     -0.0042
    156  CD2      -28.7760   46.7580  205.0970 C.ar  182  PHE182     -0.0042
    157  CE1      -27.2430   48.3490  206.6470 C.ar  182  PHE182     -0.0003
    158  CE2      -27.6350   47.2750  204.5950 C.ar  182  PHE182     -0.0003
    159  CZ       -26.8710   48.0790  205.3730 C.ar  182  PHE182     -0.0000
    160  N        -30.7540   50.5490  201.9750 N.3   184  ILE184     -0.1245
    161  CA       -29.9060   51.5620  201.4010 C.3   184  ILE184      0.1561
    162  C        -30.6770   52.3270  200.3640 C.2   184  ILE184      0.2260
    163  O        -31.4500   51.7640  199.6810 O.2   184  ILE184     -0.2867
    164  CB       -28.6540   50.9600  200.7920 C.3   184  ILE184      0.0252
    165  CG1      -27.9300   50.1650  201.8460 C.3   184  ILE184      0.0019
    166  CG2      -27.7290   52.0280  200.2710 C.3   184  ILE184      0.0019
    167  CD1      -26.4620   50.0610  201.6090 C.3   184  ILE184      0.0001
    168  N        -32.6090   49.8770  197.9540 N.3   202  TYR202     -0.1241
    169  CA       -32.0870   48.5400  198.0420 C.3   202  TYR202      0.1605
    170  C        -32.5210   47.7860  199.2640 C.2   202  TYR202      0.2264
    171  O        -32.4750   48.3090  200.3320 O.2   202  TYR202     -0.2867
    172  CB       -30.5850   48.5970  198.1030 C.3   202  TYR202      0.0534
    173  CG       -29.8840   49.2110  196.9540 C.ar  202  TYR202     -0.0201
    174  CD1      -29.6140   48.4860  195.8320 C.ar  202  TYR202     -0.0009
    175  CD2      -29.4340   50.4910  197.0060 C.ar  202  TYR202     -0.0009
    176  CE1      -28.9480   49.0360  194.7650 C.ar  202  TYR202      0.0417
    177  CE2      -28.7650   51.0420  195.9490 C.ar  202  TYR202      0.0417
    178  CZ       -28.5300   50.2930  194.8330 C.ar  202  TYR202      0.1957
    179  OH       -27.8720   50.8080  193.7860 O.3   202  TYR202     -0.2866
    180  N        -32.2870   43.7970  201.2510 N.3   204  PHE204     -0.1241
    181  CA       -31.4750   42.6340  201.2960 C.3   204  PHE204      0.1605
    182  C        -32.0410   41.4300  201.9660 C.2   204  PHE204      0.2264
    183  O        -32.9560   41.4710  202.7230 O.2   204  PHE204     -0.2867
    184  CB       -30.1610   42.9650  201.9800 C.3   204  PHE204      0.0534
    185  CG       -29.4180   44.0840  201.3470 C.ar  204  PHE204     -0.0203
    186  CD1      -28.5140   43.8580  200.3550 C.ar  204  PHE204     -0.0042
    187  CD2      -29.6130   45.3610  201.7710 C.ar  204  PHE204     -0.0042
    188  CE1      -27.8450   44.8910  199.7870 C.ar  204  PHE204     -0.0003
    189  CE2      -28.9360   46.3930  201.2080 C.ar  204  PHE204     -0.0003
    190  CZ       -28.0670   46.1570  200.2080 C.ar  204  PHE204     -0.0000
    191  N        -30.2420   37.0590  202.3600 N.3   206  VAL206     -0.1245
    192  CA       -29.0680   36.2330  202.2210 C.3   206  VAL206      0.1561
    193  C        -29.4940   35.0010  201.4770 C.2   206  VAL206      0.2260
    194  O        -30.4170   34.3440  201.8870 O.2   206  VAL206     -0.2867
    195  CB       -28.5070   35.8420  203.5970 C.3   206  VAL206      0.0252
    196  CG1      -27.0370   35.5670  203.5170 C.3   206  VAL206      0.0019
    197  CG2      -28.7040   36.9670  204.5700 C.3   206  VAL206      0.0019
@<TRIPOS>BOND
     1     1     2    1
     2     2     3    1
     3     2     5    1
     4     4     3    2
     5     5     6    1
     6     6     7   ar
     7     6     8   ar
     8     7     9   ar
     9     8    10   ar
    10   179   178    1
    11    31    30    2
    12    30    29    1
    13     9    11   ar
    14    51    50    2
    15    50    49    1
    16    10    11   ar
    17   176   178   ar
    18   176   174   ar
    19   178   177   ar
    20    12    13    1
    21    29    32    1
    22    29    28    1
    23    49    52    1
    24    49    48    1
    25   174   173   ar
    26    32    34    1
    27    32    33    1
    28   177   175   ar
    29    53    52    1
    30    28    19   am
    31    13    14    1
    32    13    16    1
    33    15    14    2
    34    52    54    1
    35    17    18    1
    36    19    20    2
    37    19    18    1
    38   173   175   ar
    39   173   172    1
    40    18    21    1
    41    60    59    1
    42   168   169    1
    43   169   172    1
    44   169   170    1
    45    91    85    1
    46    91    90    1
    47    21    22    1
    48    85    86    1
    49    55    56    1
    50    35    36    1
    51    59    56    1
    52    59    61    1
    53    36    37    1
    54    36    39    1
    55   170   171    2
    56    56    57    1
    57    37    38    2
    58    22    24   ar
    59    22    23   ar
    60    24    26   ar
    61   163   162    2
    62    90    89    1
    63   188   190   ar
    64   188   186   ar
    65    79    78    2
    66    84    83    1
    67    86    89    1
    68    86    87    1
    69   190   189   ar
    70   166   164    1
    71    23    25   ar
    72   186   185   ar
    73   162   161    1
    74    78    77    1
    75    26    27   ar
    76    81    82    1
    77    81    80    1
    78    83    82    1
    79    57    58    2
    80   164   161    1
    81   164   165    1
    82    87    88    2
    83    87    92   am
    84    98    97    1
    85    25    27   ar
    86   189   187   ar
    87    92    93    1
    88   180   181    1
    89    40    41    1
    90   181   182    1
    91   181   184    1
    92   185   187   ar
    93   185   184    1
    94    80    77    1
    95   161   160    1
    96    97    99    1
    97    97    96    1
    98   193   194    2
    99   193   192    1
   100   167   165    1
   101    77    76    1
   102   182   183    2
   103    93    96    1
   104    93    94    1
   105   192   191    1
   106   192   195    1
   107    41    42    1
   108    41    44    1
   109    42    43    2
   110    47    45    1
   111    94    95    2
   112    94   100   am
   113   196   195    1
   114   195   197    1
   115    44    45    1
   116    45    46    1
   117   132   130    1
   118   105   104    1
   119   100   101    1
   120    68    66    1
   121    62    63    1
   122   111   110    1
   123   111   112    1
   124   113   112    1
   125   158   156   ar
   126   158   159   ar
   127   152   151    2
   128    63    66    1
   129    63    64    1
   130   147   146    1
   131   156   154   ar
   132   130   129    1
   133   110   107    1
   134    66    67    1
   135   101   104    1
   136   101   102    1
   137    72    71    2
   138   159   157   ar
   139   151   150    1
   140   148   146    1
   141   131   129    1
   142    64    65    2
   143   144   143    2
   144    71    70    1
   145   146   145    1
   146   129   126    1
   147   103   102    2
   148   154   153    1
   149   154   155   ar
   150   145   142    1
   151   107   108    1
   152   107   106    1
   153   157   155   ar
   154   109   108    2
   155    74    73    1
   156   150   153    1
   157   150   149    1
   158    73    70    1
   159    73    75    1
   160   143   142    1
   161   123   121   ar
   162   123   124   ar
   163   140   138    1
   164    70    69    1
   165   126   125    1
   166   126   127    1
   167   142   141    1
   168   121   119   ar
   169   124   122   ar
   170   125   116   am
   171   128   127    2
   172   138   137    1
   173   138   139    1
   174   119   118    1
   175   119   120   ar
   176   137   134    1
   177   118   115    1
   178   116   117    2
   179   116   115    1
   180   122   120   ar
   181   115   114    1
   182   135   136    2
   183   135   134    1
   184   134   133    1
