@<TRIPOS>MOLECULE
tmp/5gn5B00.pdb
 169 165 0 0 0
SMALL
GASTEIGER

@<TRIPOS>ATOM
      1  N         -9.7720   32.2990   21.8440 N.3    86  ARG86      -0.1231
      2  CA       -10.6720   32.1780   20.6770 C.3    86  ARG86       0.1694
      3  C        -10.6350   30.7610   20.0970 C.2    86  ARG86       0.2591
      4  O         -9.7240   29.9730   20.3740 O.2    86  ARG86      -0.2718
      5  CB       -10.2690   33.1770   19.5690 C.3    86  ARG86       0.0321
      6  CG        -9.8160   34.5660   20.0700 C.3    86  ARG86       0.0489
      7  CD        -8.9040   35.2640   19.0780 C.3    86  ARG86       0.2205
      8  NE        -7.7580   34.4270   18.7210 N.pl3  86  ARG86      -0.0865
      9  CZ        -6.8820   34.7220   17.7710 C.cat  86  ARG86       0.5346
     10  NH1       -7.0230   35.8490   17.0910 N.pl3  86  ARG86       0.1354
     11  NH2       -5.8680   33.8910   17.5050 N.pl3  86  ARG86       0.1354
     12  N        -11.6440   30.4600   19.2810 N.am   87  GLU87      -0.1979
     13  CA       -11.8530   29.1440   18.6760 C.3    87  GLU87       0.1602
     14  C        -12.3880   28.1250   19.6640 C.2    87  GLU87       0.2287
     15  O        -13.2390   27.3440   19.2810 O.2    87  GLU87      -0.2864
     16  CB       -10.5940   28.5830   17.9770 C.3    87  GLU87       0.0415
     17  CG       -10.1060   29.3350   16.7360 C.3    87  GLU87       0.1163
     18  CD        -8.8160   30.1230   16.9280 C.2    87  GLU87       0.3649
     19  OE1       -8.0320   29.7670   17.8150 O.co2  87  GLU87      -0.2457
     20  OE2       -8.5550   31.0870   16.1620 O.co2  87  GLU87      -0.2457
     21  N         -8.9140   25.3990   21.2940 N.3   106  TRP106     -0.1241
     22  CA        -8.3220   25.7680   20.0200 C.3   106  TRP106      0.1605
     23  C         -7.2990   24.7880   19.4280 C.2   106  TRP106      0.2264
     24  O         -7.4120   24.4330   18.2590 O.2   106  TRP106     -0.2867
     25  CB        -7.7580   27.1740   20.0860 C.3   106  TRP106      0.0550
     26  CG        -6.7080   27.4220   21.0680 C.ar  106  TRP106      0.0003
     27  CD1       -6.8750   27.7000   22.4050 C.ar  106  TRP106      0.0946
     28  CD2       -5.3160   27.5160   20.8170 C.ar  106  TRP106      0.0152
     29  NE1       -5.6540   27.9210   23.0000 N.ar  106  TRP106     -0.2442
     30  CE2       -4.6820   27.8090   22.0410 C.ar  106  TRP106      0.0810
     31  CE3       -4.5380   27.3600   19.6960 C.ar  106  TRP106      0.0012
     32  CZ2       -3.3040   27.9640   22.1440 C.ar  106  TRP106      0.0191
     33  CZ3       -3.1860   27.5180   19.8070 C.ar  106  TRP106      0.0001
     34  CH2       -2.5790   27.8110   21.0130 C.ar  106  TRP106      0.0015
     35  N        -10.5010   16.5890    7.0780 N.3   116  LYS116     -0.1245
     36  CA       -10.1530   15.9190    5.8170 C.3   116  LYS116      0.1561
     37  C        -11.4060   15.6250    4.9780 C.2   116  LYS116      0.2260
     38  O        -11.3820   15.7990    3.7570 O.2   116  LYS116     -0.2867
     39  CB        -9.3480   14.6300    6.0780 C.3   116  LYS116      0.0271
     40  CG        -8.0460   14.7990    6.8690 C.3   116  LYS116      0.0035
     41  CD        -6.8950   15.5080    6.1350 C.3   116  LYS116      0.0206
     42  CE        -7.0010   17.0410    6.0870 C.3   116  LYS116      0.1093
     43  NZ        -5.6860   17.7500    5.9850 N.3   116  LYS116     -0.1314
     44  N         -7.7930   23.3560    0.6540 N.3   127  SER127     -0.1217
     45  CA        -8.0200   23.8010    2.0350 C.3   127  SER127      0.1889
     46  C         -8.4200   25.2980    2.1050 C.2   127  SER127      0.2288
     47  O         -9.1980   25.7110    2.9990 O.2   127  SER127     -0.2866
     48  CB        -6.7720   23.5210    2.9110 C.3   127  SER127      0.2089
     49  OG        -5.6200   24.2280    2.4530 O.3   127  SER127     -0.2183
     50  N         -7.8100   29.2740    6.0980 N.3   137  PRO137     -0.2102
     51  CA        -7.7670   27.8830    5.6330 C.3   137  PRO137      0.1504
     52  C         -8.7280   27.0660    6.4150 C.2   137  PRO137      0.2576
     53  O         -9.3600   27.5880    7.2900 O.2   137  PRO137     -0.2718
     54  CB        -6.3420   27.4070    5.9790 C.3   137  PRO137      0.0282
     55  CG        -5.5550   28.6330    6.2300 C.3   137  PRO137      0.0208
     56  CD        -6.5480   29.6190    6.7800 C.3   137  PRO137      0.0893
     57  N         -8.8300   25.7940    6.0840 N.am  138  VAL138     -0.1966
     58  CA        -9.5980   24.8520    6.8660 C.3   138  VAL138      0.1727
     59  C         -8.5580   24.2190    7.7500 C.2   138  VAL138      0.2616
     60  O         -7.5080   23.7780    7.2510 O.2   138  VAL138     -0.2715
     61  CB       -10.2740   23.7670    6.0020 C.3   138  VAL138      0.0290
     62  CG1      -10.7150   22.5710    6.8440 C.3   138  VAL138      0.0023
     63  CG2      -11.4590   24.3430    5.2240 C.3   138  VAL138      0.0023
     64  N         -8.8470   24.1980    9.0600 N.am  139  SER139     -0.1950
     65  CA        -8.0120   23.5160   10.0420 C.3   139  SER139      0.1924
     66  C         -8.7870   22.9580   11.2380 C.2   139  SER139      0.2314
     67  O         -9.9760   23.2160   11.3920 O.2   139  SER139     -0.2863
     68  CB        -6.9130   24.4410   10.5320 C.3   139  SER139      0.2116
     69  OG        -5.8570   23.6280   10.9930 O.3   139  SER139     -0.2180
     70  N         -8.2720   23.8310   14.1480 N.3   141  TYR141     -0.1227
     71  CA        -8.3660   24.9420   15.0760 C.3   141  TYR141      0.1736
     72  C         -9.7000   25.6620   15.1370 C.2   141  TYR141      0.2595
     73  O        -10.1770   25.9400   16.2080 O.2   141  TYR141     -0.2718
     74  CB        -7.2590   25.9520   14.8020 C.3   141  TYR141      0.0548
     75  CG        -5.8970   25.4160   15.1530 C.ar  141  TYR141     -0.0200
     76  CD1       -5.0930   24.7810   14.2050 C.ar  141  TYR141     -0.0009
     77  CD2       -5.4020   25.5450   16.4260 C.ar  141  TYR141     -0.0009
     78  CE1       -3.8210   24.3040   14.5260 C.ar  141  TYR141      0.0417
     79  CE2       -4.1350   25.0790   16.7560 C.ar  141  TYR141      0.0417
     80  CZ        -3.3550   24.4600   15.8080 C.ar  141  TYR141      0.1957
     81  OH        -2.1320   23.9900   16.1830 O.3   141  TYR141     -0.2866
     82  N        -10.3080   25.9470   14.0030 N.am  142  PHE142     -0.1976
     83  CA       -11.4460   26.8840   13.9560 C.3   142  PHE142      0.1639
     84  C        -12.7920   26.2900   14.4030 C.2   142  PHE142      0.2290
     85  O        -12.9840   25.0740   14.3690 O.2   142  PHE142     -0.2864
     86  CB       -11.5160   27.4550   12.5620 C.3   142  PHE142      0.0560
     87  CG       -10.2020   28.0010   12.0880 C.ar  142  PHE142     -0.0200
     88  CD1       -9.6370   29.1250   12.7130 C.ar  142  PHE142     -0.0042
     89  CD2       -9.5060   27.3860   11.0510 C.ar  142  PHE142     -0.0042
     90  CE1       -8.4260   29.6530   12.2840 C.ar  142  PHE142     -0.0003
     91  CE2       -8.2960   27.9020   10.6240 C.ar  142  PHE142     -0.0003
     92  CZ        -7.7580   29.0350   11.2390 C.ar  142  PHE142     -0.0000
     93  N        -13.4030   33.8430   13.6210 N.3   194  ARG194     -0.1245
     94  CA       -12.6190   32.6500   13.8920 C.3   194  ARG194      0.1563
     95  C        -13.4220   31.3670   13.7080 C.2   194  ARG194      0.2260
     96  O        -12.8590   30.2670   13.6960 O.2   194  ARG194     -0.2867
     97  CB       -12.0540   32.7520   15.3120 C.3   194  ARG194      0.0307
     98  CG       -11.4180   34.1170   15.6150 C.3   194  ARG194      0.0489
     99  CD       -10.2890   34.4700   14.6550 C.3   194  ARG194      0.2205
    100  NE        -9.2440   33.4400   14.7040 N.pl3 194  ARG194     -0.0865
    101  CZ        -7.9820   33.6180   14.3300 C.cat 194  ARG194      0.5346
    102  NH1       -7.5630   34.7890   13.8520 N.pl3 194  ARG194      0.1354
    103  NH2       -7.1230   32.6100   14.4480 N.pl3 194  ARG194      0.1354
    104  N          1.9050   34.9630   18.3500 N.3   281  PHE281     -0.1241
    105  CA         1.0500   35.4450   17.2590 C.3   281  PHE281      0.1605
    106  C          1.5100   36.8290   16.9010 C.2   281  PHE281      0.2264
    107  O          1.7760   37.6580   17.7860 O.2   281  PHE281     -0.2867
    108  CB        -0.4150   35.4920   17.6350 C.3   281  PHE281      0.0534
    109  CG        -0.9710   34.1680   18.0400 C.ar  281  PHE281     -0.0203
    110  CD1       -1.6000   33.3660   17.1220 C.ar  281  PHE281     -0.0042
    111  CD2       -0.8450   33.7190   19.3450 C.ar  281  PHE281     -0.0042
    112  CE1       -2.1170   32.1430   17.4870 C.ar  281  PHE281     -0.0003
    113  CE2       -1.3530   32.4990   19.7140 C.ar  281  PHE281     -0.0003
    114  CZ        -1.9910   31.7080   18.7840 C.ar  281  PHE281     -0.0000
    115  N         -3.3830   34.4610    7.7910 N.3   298  LEU298     -0.1245
    116  CA        -4.8000   34.5340    8.0670 C.3   298  LEU298      0.1561
    117  C         -5.3210   35.9570    7.8730 C.2   298  LEU298      0.2260
    118  O         -4.6170   36.9390    8.0810 O.2   298  LEU298     -0.2867
    119  CB        -5.0510   34.0450    9.4980 C.3   298  LEU298      0.0270
    120  CG        -4.5940   32.6230    9.8950 C.3   298  LEU298      0.0019
    121  CD1       -5.1580   32.3260   11.2840 C.3   298  LEU298      0.0001
    122  CD2       -5.0140   31.5250    8.9270 C.3   298  LEU298      0.0001
    123  N         -2.6110   37.6780   10.1490 N.3   316  GLU316     -0.1231
    124  CA        -2.1960   36.9150   11.3210 C.3   316  GLU316      0.1699
    125  C         -1.3400   35.6970   10.9600 C.2   316  GLU316      0.2593
    126  O         -1.7140   34.8490   10.1390 O.2   316  GLU316     -0.2718
    127  CB        -3.4050   36.5260   12.2150 C.3   316  GLU316      0.0402
    128  CG        -3.0630   35.5850   13.3900 C.3   316  GLU316      0.1161
    129  CD        -4.2220   35.3000   14.3500 C.2   316  GLU316      0.3649
    130  OE1       -5.3240   34.9680   13.8950 O.co2 316  GLU316     -0.2457
    131  OE2       -4.0270   35.3560   15.5820 O.co2 316  GLU316     -0.2457
    132  N         -0.1890   35.6350   11.6210 N.am  317  GLY317     -0.1942
    133  CA         0.6760   34.4760   11.5780 C.3   317  GLY317      0.2014
    134  C          1.0360   34.0100   12.9840 C.2   317  GLY317      0.2638
    135  O          1.0290   34.8010   13.9230 O.2   317  GLY317     -0.2714
    136  N          1.3750   32.7260   13.0940 N.am  318  ALA318     -0.1977
    137  CA         1.7330   32.0750   14.3330 C.3   318  ALA318      0.1597
    138  C          3.1710   31.5650   14.3030 C.2   318  ALA318      0.2287
    139  O          3.6100   31.0650   13.2990 O.2   318  ALA318     -0.2864
    140  CB         0.7970   30.9030   14.5430 C.3   318  ALA318      0.0319
    141  N          5.0290   26.3100   11.0230 N.3   365  LEU365     -0.1245
    142  CA         3.7120   26.9300   10.8300 C.3   365  LEU365      0.1561
    143  C          3.6250   28.4430   10.8720 C.2   365  LEU365      0.2260
    144  O          2.8290   29.0060   11.6110 O.2   365  LEU365     -0.2867
    145  CB         2.7270   26.3220   11.8460 C.3   365  LEU365      0.0270
    146  CG         2.9020   26.4290   13.3710 C.3   365  LEU365      0.0019
    147  CD1        2.1110   27.5930   13.9640 C.3   365  LEU365      0.0001
    148  CD2        2.4230   25.0930   13.9390 C.3   365  LEU365      0.0001
    149  N          4.0300   25.7360    5.7680 N.3   369  TRP369     -0.1241
    150  CA         3.0860   24.9200    6.5720 C.3   369  TRP369      0.1605
    151  C          3.3240   23.4230    6.5400 C.2   369  TRP369      0.2264
    152  O          2.4340   22.6250    6.2270 O.2   369  TRP369     -0.2867
    153  CB         1.6150   25.2840    6.2900 C.3   369  TRP369      0.0550
    154  CG         1.2180   26.2160    7.3120 C.ar  369  TRP369      0.0003
    155  CD1        0.9600   25.9290    8.6040 C.ar  369  TRP369      0.0946
    156  CD2        1.1740   27.6220    7.1980 C.ar  369  TRP369      0.0152
    157  NE1        0.7050   27.0830    9.3030 N.ar  369  TRP369     -0.2442
    158  CE2        0.8240   28.1390    8.4490 C.ar  369  TRP369      0.0810
    159  CE3        1.3740   28.4990    6.1510 C.ar  369  TRP369      0.0012
    160  CZ2        0.6690   29.5000    8.6760 C.ar  369  TRP369      0.0191
    161  CZ3        1.2370   29.8340    6.3810 C.ar  369  TRP369      0.0001
    162  CH2        0.8710   30.3320    7.6270 C.ar  369  TRP369      0.0015
    163  N          3.5870   20.2400    8.4700 N.3   371  PRO371     -0.2116
    164  CA         3.3800   19.6410    9.7750 C.3   371  PRO371      0.1372
    165  C          4.2830   18.3890   10.0040 C.2   371  PRO371      0.2244
    166  O          4.2200   17.7800   11.0890 O.2   371  PRO371     -0.2868
    167  CB         1.9030   19.2850    9.7180 C.3   371  PRO371      0.0268
    168  CG         1.7180   18.8480    8.3160 C.3   371  PRO371      0.0207
    169  CD         2.6050   19.7300    7.4880 C.3   371  PRO371      0.0892
@<TRIPOS>BOND
     1    44    45    1
     2    45    46    1
     3    45    48    1
     4    46    47    2
     5    49    48    1
     6    38    37    2
     7    37    36    1
     8    63    61    1
     9    51    54    1
    10    51    50    1
    11    51    52    1
    12   149   150    1
    13    36    39    1
    14    36    35    1
    15    54    55    1
    16    43    42    1
    17    61    62    1
    18    61    58    1
    19    39    40    1
    20    57    52   am
    21    57    58    1
    22    42    41    1
    23    50    56    1
    24    41    40    1
    25   159   161   ar
    26   159   156   ar
    27   152   151    2
    28    55    56    1
    29   153   150    1
    30   153   154    1
    31   161   162   ar
    32    52    53    2
    33   151   150    1
    34    58    59    1
    35   156   154   ar
    36   156   158   ar
    37    60    59    2
    38   154   155   ar
    39   169   168    1
    40   169   163    1
    41   162   160   ar
    42    59    64   am
    43   115   116    1
    44   117   116    1
    45   117   118    2
    46   116   119    1
    47   168   167    1
    48   158   160   ar
    49   158   157   ar
    50   163   164    1
    51   155   157   ar
    52   122   120    1
    53    64    65    1
    54   119   120    1
    55   167   164    1
    56   164   165    1
    57   120   121    1
    58   165   166    2
    59    65    68    1
    60    65    66    1
    61   126   125    2
    62   123   124    1
    63    68    69    1
    64    91    89   ar
    65    91    92   ar
    66   142   143    1
    67   142   141    1
    68   142   145    1
    69   143   144    2
    70   125   124    1
    71   125   132   am
    72    89    87   ar
    73    66    67    2
    74    92    90   ar
    75   124   127    1
    76   133   132    1
    77   133   134    1
    78   145   146    1
    79    87    86    1
    80    87    88   ar
    81   127   128    1
    82    90    88   ar
    83    86    83    1
    84   134   136   am
    85   134   135    2
    86   136   137    1
    87   139   138    2
    88   146   148    1
    89   146   147    1
    90   128   129    1
    91    93    94    1
    92    96    95    2
    93    95    94    1
    94   102   101    1
    95    94    97    1
    96   130   129   ar
    97    83    82    1
    98    83    84    1
    99    82    72   am
   100    70    71    1
   101    76    78   ar
   102    76    75   ar
   103   138   137    1
   104   101   103    1
   105   101   100    2
   106   137   140    1
   107   129   131   ar
   108    85    84    2
   109    78    80   ar
   110    99   100    1
   111    99    98    1
   112    74    71    1
   113    74    75    1
   114    71    72    1
   115    72    73    2
   116    75    77   ar
   117    97    98    1
   118    80    81    1
   119    80    79   ar
   120    20    18   ar
   121    77    79   ar
   122    17    18    1
   123    17    16    1
   124   106   105    1
   125   106   107    2
   126    18    19   ar
   127    10     9    1
   128   110   112   ar
   129   110   109   ar
   130   105   108    1
   131   105   104    1
   132   112   114   ar
   133    11     9    1
   134   108   109    1
   135     9     8    2
   136    16    13    1
   137   109   111   ar
   138    24    23    2
   139    13    12    1
   140    13    14    1
   141     8     7    1
   142   114   113   ar
   143     7     6    1
   144    12     3   am
   145    15    14    2
   146   111   113   ar
   147    23    22    1
   148     5     6    1
   149     5     2    1
   150    31    33   ar
   151    31    28   ar
   152    33    34   ar
   153    22    25    1
   154    22    21    1
   155    25    26    1
   156     3     4    2
   157     3     2    1
   158     2     1    1
   159    28    26   ar
   160    28    30   ar
   161    34    32   ar
   162    26    27   ar
   163    30    32   ar
   164    30    29   ar
   165    27    29   ar
