@<TRIPOS>MOLECULE
tmp/5gn6B00.pdb
 160 158 0 0 0
SMALL
GASTEIGER

@<TRIPOS>ATOM
      1  N        -29.4790   56.9390   16.8290 N.3    86  ARG86      -0.1231
      2  CA       -29.3090   57.7950   18.0390 C.3    86  ARG86       0.1694
      3  C        -27.8570   57.8650   18.4610 C.2    86  ARG86       0.2591
      4  O        -27.0140   57.1370   17.9470 O.2    86  ARG86      -0.2718
      5  CB       -30.1370   57.2350   19.2040 C.3    86  ARG86       0.0321
      6  CG       -31.6050   57.0800   18.8450 C.3    86  ARG86       0.0489
      7  CD       -32.3700   56.1420   19.7630 C.3    86  ARG86       0.2205
      8  NE       -31.5870   54.9550   20.1110 N.pl3  86  ARG86      -0.0865
      9  CZ       -31.8940   54.1140   21.0830 C.cat  86  ARG86       0.5346
     10  NH1      -32.9900   54.2860   21.8430 N.pl3  86  ARG86       0.1354
     11  NH2      -31.0960   53.0920   21.3010 N.pl3  86  ARG86       0.1354
     12  N        -27.5990   58.7860   19.3910 N.am   87  GLU87      -0.1979
     13  CA       -26.2790   59.0740   19.9570 C.3    87  GLU87       0.1602
     14  C        -25.2090   59.6220   19.0140 C.2    87  GLU87       0.2287
     15  O        -24.1950   60.1510   19.4910 O.2    87  GLU87      -0.2864
     16  CB       -25.7000   57.8740   20.6730 C.3    87  GLU87       0.0415
     17  CG       -26.3450   57.4920   21.9900 C.3    87  GLU87       0.1163
     18  CD       -27.3780   56.3850   21.8810 C.2    87  GLU87       0.3649
     19  OE1      -27.6240   55.8990   20.7570 O.co2  87  GLU87      -0.2457
     20  OE2      -27.9580   55.9840   22.9320 O.co2  87  GLU87      -0.2457
     21  N        -22.5640   56.2830   17.3660 N.3   106  TRP106     -0.1241
     22  CA       -22.9390   55.6900   18.6680 C.3   106  TRP106      0.1605
     23  C        -21.9960   54.6660   19.2920 C.2   106  TRP106      0.2264
     24  O        -21.7380   54.7440   20.5130 O.2   106  TRP106     -0.2867
     25  CB       -24.3400   55.1190   18.6120 C.3   106  TRP106      0.0550
     26  CG       -24.5610   54.0530   17.6040 C.ar  106  TRP106      0.0003
     27  CD1      -24.8420   54.2240   16.2800 C.ar  106  TRP106      0.0946
     28  CD2      -24.5950   52.6480   17.8500 C.ar  106  TRP106      0.0152
     29  NE1      -25.0430   53.0120   15.6870 N.ar  106  TRP106     -0.2442
     30  CE2      -24.8870   52.0210   16.6210 C.ar  106  TRP106      0.0810
     31  CE3      -24.4420   51.8630   18.9880 C.ar  106  TRP106      0.0012
     32  CZ2      -25.0040   50.6320   16.4900 C.ar  106  TRP106      0.0191
     33  CZ3      -24.5480   50.4740   18.8610 C.ar  106  TRP106      0.0001
     34  CH2      -24.8220   49.8750   17.6070 C.ar  106  TRP106      0.0015
     35  N        -26.2550   55.1020   32.5010 N.3   137  PRO137     -0.2102
     36  CA       -24.8960   55.0840   33.0460 C.3   137  PRO137      0.1504
     37  C        -24.0150   55.9960   32.2210 C.2   137  PRO137      0.2576
     38  O        -24.4520   56.4880   31.1670 O.2   137  PRO137     -0.2718
     39  CB       -24.4590   53.6370   32.8360 C.3   137  PRO137      0.0282
     40  CG       -25.1180   53.2750   31.5600 C.3   137  PRO137      0.0208
     41  CD       -26.4660   53.9530   31.6020 C.3   137  PRO137      0.0893
     42  N        -22.7840   56.1910   32.6810 N.am  138  VAL138     -0.1966
     43  CA       -21.7790   56.9210   31.9160 C.3   138  VAL138      0.1727
     44  C        -21.1150   55.8860   31.0310 C.2   138  VAL138      0.2616
     45  O        -20.5590   54.8970   31.5340 O.2   138  VAL138     -0.2715
     46  CB       -20.7400   57.6490   32.8150 C.3   138  VAL138      0.0290
     47  CG1      -19.5550   58.1660   31.9990 C.3   138  VAL138      0.0023
     48  CG2      -21.3890   58.8110   33.5660 C.3   138  VAL138      0.0023
     49  N        -21.2010   56.1160   29.7180 N.am  139  SER139     -0.1950
     50  CA       -20.6350   55.2180   28.7140 C.3   139  SER139      0.1924
     51  C        -20.1480   55.9670   27.4790 C.2   139  SER139      0.2314
     52  O        -20.4260   57.1530   27.3180 O.2   139  SER139     -0.2863
     53  CB       -21.6650   54.1890   28.2810 C.3   139  SER139      0.2116
     54  OG       -20.9790   53.1200   27.6720 O.3   139  SER139     -0.2180
     55  N        -21.1050   55.5250   24.5240 N.3   141  TYR141     -0.1227
     56  CA       -22.1990   55.6870   23.5940 C.3   141  TYR141      0.1736
     57  C        -22.8360   57.0870   23.5380 C.2   141  TYR141      0.2595
     58  O        -23.1240   57.5880   22.4450 O.2   141  TYR141     -0.2718
     59  CB       -23.2800   54.6430   23.8710 C.3   141  TYR141      0.0548
     60  CG       -22.8360   53.2370   23.5620 C.ar  141  TYR141     -0.0200
     61  CD1      -22.3240   52.4100   24.5580 C.ar  141  TYR141     -0.0009
     62  CD2      -22.9390   52.7180   22.2750 C.ar  141  TYR141     -0.0009
     63  CE1      -21.9200   51.1160   24.2840 C.ar  141  TYR141      0.0417
     64  CE2      -22.5310   51.4170   21.9910 C.ar  141  TYR141      0.0417
     65  CZ       -22.0190   50.6250   23.0030 C.ar  141  TYR141      0.1957
     66  OH       -21.6100   49.3340   22.7640 O.3   141  TYR141     -0.2866
     67  N        -23.0200   57.7450   24.6790 N.am  142  PHE142     -0.1976
     68  CA       -23.9150   58.9110   24.6980 C.3   142  PHE142      0.1639
     69  C        -23.3180   60.2190   24.1900 C.2   142  PHE142      0.2290
     70  O        -22.0870   60.4040   24.0870 O.2   142  PHE142     -0.2864
     71  CB       -24.5800   59.0200   26.0520 C.3   142  PHE142      0.0560
     72  CG       -25.1980   57.7230   26.4790 C.ar  142  PHE142     -0.0200
     73  CD1      -26.3610   57.2600   25.8530 C.ar  142  PHE142     -0.0042
     74  CD2      -24.5820   56.9250   27.4280 C.ar  142  PHE142     -0.0042
     75  CE1      -26.9260   56.0550   26.2240 C.ar  142  PHE142     -0.0003
     76  CE2      -25.1400   55.7150   27.7970 C.ar  142  PHE142     -0.0003
     77  CZ       -26.3170   55.2800   27.2000 C.ar  142  PHE142     -0.0000
     78  N        -31.0760   60.6990   24.9510 N.3   194  ARG194     -0.1245
     79  CA       -29.8050   59.9620   24.7840 C.3   194  ARG194      0.1563
     80  C        -28.5490   60.8320   24.8340 C.2   194  ARG194      0.2260
     81  O        -27.4550   60.3520   24.5630 O.2   194  ARG194     -0.2867
     82  CB       -29.8360   59.2260   23.4340 C.3   194  ARG194      0.0307
     83  CG       -31.1590   58.5160   23.1280 C.3   194  ARG194      0.0489
     84  CD       -31.4980   57.4330   24.1580 C.3   194  ARG194      0.2205
     85  NE       -30.5550   56.3200   24.0490 N.pl3 194  ARG194     -0.0865
     86  CZ       -30.7750   55.0640   24.4200 C.cat 194  ARG194      0.5346
     87  NH1      -31.9250   54.6870   24.9550 N.pl3 194  ARG194      0.1354
     88  NH2      -29.8150   54.1730   24.2350 N.pl3 194  ARG194      0.1354
     89  N        -31.9410   45.5070   20.4070 N.3   281  PHE281     -0.1241
     90  CA       -32.3820   46.4000   21.4610 C.3   281  PHE281      0.1605
     91  C        -33.7610   45.9470   21.7800 C.2   281  PHE281      0.2264
     92  O        -34.5480   45.6400   20.8660 O.2   281  PHE281     -0.2867
     93  CB       -32.4380   47.8440   21.0160 C.3   281  PHE281      0.0534
     94  CG       -31.1550   48.3430   20.5160 C.ar  281  PHE281     -0.0203
     95  CD1      -30.2550   48.9420   21.3710 C.ar  281  PHE281     -0.0042
     96  CD2      -30.8270   48.1880   19.1760 C.ar  281  PHE281     -0.0042
     97  CE1      -29.0330   49.3970   20.8910 C.ar  281  PHE281     -0.0003
     98  CE2      -29.6040   48.6320   18.6910 C.ar  281  PHE281     -0.0003
     99  CZ       -28.7040   49.2250   19.5530 C.ar  281  PHE281     -0.0000
    100  N        -29.7250   48.1890   32.8220 N.3   297  LEU297     -0.1231
    101  CA       -30.6980   48.7250   31.8480 C.3   297  LEU297      0.1693
    102  C        -30.8890   50.2480   31.7990 C.2   297  LEU297      0.2591
    103  O        -30.8080   50.9290   32.8140 O.2   297  LEU297     -0.2718
    104  CB       -32.0900   48.1850   32.1190 C.3   297  LEU297      0.0284
    105  CG       -32.3920   46.7160   32.2420 C.3   297  LEU297      0.0019
    106  CD1      -33.8970   46.5970   32.3920 C.3   297  LEU297      0.0001
    107  CD2      -31.8810   45.9810   31.0150 C.3   297  LEU297      0.0001
    108  N        -31.2240   50.7720   30.6260 N.am  298  LEU298     -0.1980
    109  CA       -31.4210   52.2090   30.4800 C.3   298  LEU298      0.1596
    110  C        -32.8940   52.5640   30.6500 C.2   298  LEU298      0.2287
    111  O        -33.7870   51.7890   30.2640 O.2   298  LEU298     -0.2864
    112  CB       -30.9350   52.6890   29.1000 C.3   298  LEU298      0.0297
    113  CG       -29.5840   52.1810   28.5980 C.3   298  LEU298      0.0022
    114  CD1      -29.2310   52.7910   27.2400 C.3   298  LEU298      0.0001
    115  CD2      -28.5630   52.4710   29.6620 C.3   298  LEU298      0.0001
    116  N        -34.8780   49.9890   28.5130 N.3   316  GLU316     -0.1231
    117  CA       -34.1220   49.5420   27.3360 C.3   316  GLU316      0.1699
    118  C        -32.8980   48.7200   27.6940 C.2   316  GLU316      0.2593
    119  O        -32.0520   49.1580   28.4790 O.2   316  GLU316     -0.2718
    120  CB       -33.6420   50.7280   26.5080 C.3   316  GLU316      0.0402
    121  CG       -32.6440   50.3530   25.4010 C.3   316  GLU316      0.1161
    122  CD       -32.3290   51.4760   24.4280 C.2   316  GLU316      0.3649
    123  OE1      -33.0210   52.5000   24.4080 O.co2 316  GLU316     -0.2457
    124  OE2      -31.3640   51.3440   23.6840 O.co2 316  GLU316     -0.2457
    125  N        -32.7870   47.5690   27.0430 N.am  317  GLY317     -0.1942
    126  CA       -31.5780   46.7740   27.0460 C.3   317  GLY317      0.2014
    127  C        -31.2010   46.2660   25.6620 C.2   317  GLY317      0.2638
    128  O        -32.0470   46.1900   24.7520 O.2   317  GLY317     -0.2714
    129  N        -29.9160   45.9230   25.5340 N.am  318  ALA318     -0.1977
    130  CA       -29.2850   45.5260   24.2810 C.3   318  ALA318      0.1597
    131  C        -28.5560   44.1630   24.3470 C.2   318  ALA318      0.2287
    132  O        -28.0590   43.7650   25.3990 O.2   318  ALA318     -0.2864
    133  CB       -28.2920   46.6000   23.8710 C.3   318  ALA318      0.0319
    134  N        -23.4530   42.4990   27.5180 N.3   365  LEU365     -0.1231
    135  CA       -24.2000   43.7650   27.7360 C.3   365  LEU365      0.1693
    136  C        -25.2960   43.5860   28.8200 C.2   365  LEU365      0.2591
    137  O        -24.9830   43.1570   29.9400 O.2   365  LEU365     -0.2718
    138  CB       -24.7830   44.3210   26.4150 C.3   365  LEU365      0.0284
    139  CG       -23.9210   44.5210   25.1530 C.3   365  LEU365      0.0019
    140  CD1      -24.3540   45.8100   24.4600 C.3   365  LEU365      0.0001
    141  CD2      -22.4040   44.5460   25.3810 C.3   365  LEU365      0.0001
    142  N        -26.5480   43.9790   28.5320 N.am  366  ALA366     -0.1980
    143  CA       -27.7160   43.3710   29.1830 C.3   366  ALA366      0.1597
    144  C        -27.7100   43.6360   30.7280 C.2   366  ALA366      0.2287
    145  O        -27.3450   44.7700   31.1320 O.2   366  ALA366     -0.2864
    146  CB       -27.7560   41.8840   28.7900 C.3   366  ALA366      0.0319
    147  N        -22.8280   43.7110   32.7650 N.3   369  TRP369     -0.1241
    148  CA       -21.8860   44.3810   31.8440 C.3   369  TRP369      0.1605
    149  C        -20.4700   43.9220   32.0980 C.2   369  TRP369      0.2264
    150  O        -19.7520   44.5140   32.9060 O.2   369  TRP369     -0.2867
    151  CB       -21.9120   45.9110   31.9420 C.3   369  TRP369      0.0550
    152  CG       -23.1440   46.5330   31.4520 C.ar  369  TRP369      0.0003
    153  CD1      -23.9030   46.1500   30.3840 C.ar  369  TRP369      0.0946
    154  CD2      -23.7680   47.6860   31.9980 C.ar  369  TRP369      0.0152
    155  NE1      -24.9860   46.9820   30.2400 N.ar  369  TRP369     -0.2442
    156  CE2      -24.9250   47.9430   31.2220 C.ar  369  TRP369      0.0810
    157  CE3      -23.4680   48.5290   33.0800 C.ar  369  TRP369      0.0012
    158  CZ2      -25.7760   49.0150   31.4960 C.ar  369  TRP369      0.0191
    159  CZ3      -24.3160   49.5830   33.3540 C.ar  369  TRP369      0.0001
    160  CH2      -25.4560   49.8170   32.5690 C.ar  369  TRP369      0.0015
@<TRIPOS>BOND
     1    29    27   ar
     2    29    30   ar
     3    27    26   ar
     4    32    30   ar
     5    32    34   ar
     6    30    28   ar
     7     1     2    1
     8    21    22    1
     9    26    28   ar
    10    26    25    1
    11    34    33   ar
    12    28    31   ar
    13     4     3    2
    14     2     3    1
    15     2     5    1
    16     3    12   am
    17    25    22    1
    18    22    23    1
    19    98    96   ar
    20    98    99   ar
    21     6     5    1
    22     6     7    1
    23    33    31   ar
    24    14    15    2
    25    14    13    1
    26    96    94   ar
    27    23    24    2
    28    12    13    1
    29    99    97   ar
    30     7     8    1
    31    13    16    1
    32     8     9    2
    33    89    90    1
    34    94    93    1
    35    94    95   ar
    36    16    17    1
    37    19    18   ar
    38    92    91    2
    39    97    95   ar
    40    93    90    1
    41     9    11    1
    42     9    10    1
    43    90    91    1
    44    18    17    1
    45    18    20   ar
    46    64    62   ar
    47    64    65   ar
    48    62    60   ar
    49    58    57    2
    50    66    65    1
    51    65    63   ar
    52    83    82    1
    53    83    84    1
    54    82    79    1
    55    57    56    1
    56    57    67   am
    57    60    59    1
    58    60    61   ar
    59    56    59    1
    60    56    55    1
    61   124   122   ar
    62   133   130    1
    63    85    84    1
    64    85    86    2
    65    70    69    2
    66    69    68    1
    67    88    86    1
    68   130   131    1
    69   130   129    1
    70    63    61   ar
    71   131   132    2
    72   123   122   ar
    73    86    87    1
    74   122   121    1
    75   140   139    1
    76    81    80    2
    77    67    68    1
    78    68    71    1
    79   128   127    2
    80    79    80    1
    81    79    78    1
    82   139   141    1
    83   139   138    1
    84   121   120    1
    85   129   127   am
    86   127   126    1
    87    73    75   ar
    88    73    72   ar
    89    71    72    1
    90    75    77   ar
    91   138   135    1
    92    72    74   ar
    93   120   117    1
    94   125   126    1
    95   125   118   am
    96    77    76   ar
    97   114   113    1
    98    52    51    2
    99   117   118    1
   100   117   116    1
   101    74    76   ar
   102    51    50    1
   103   134   135    1
   104    54    53    1
   105   118   119    2
   106   135   136    1
   107    53    50    1
   108   142   136   am
   109   142   143    1
   110   113   112    1
   111   113   115    1
   112    50    49    1
   113   146   143    1
   114   136   137    2
   115   112   109    1
   116   143   144    1
   117    49    44   am
   118   155   153   ar
   119   155   156   ar
   120   111   110    2
   121   153   152   ar
   122   109   108    1
   123   109   110    1
   124   108   102   am
   125   144   145    2
   126   107   105    1
   127    44    45    2
   128    44    43    1
   129    38    37    2
   130   156   158   ar
   131   156   154   ar
   132   152   151    1
   133   152   154   ar
   134   158   160   ar
   135    40    41    1
   136    40    39    1
   137    41    35    1
   138   102   101    1
   139   102   103    2
   140   148   151    1
   141   148   149    1
   142   148   147    1
   143   101   104    1
   144   101   100    1
   145    43    42    1
   146    43    46    1
   147   154   157   ar
   148    47    46    1
   149   149   150    2
   150   104   105    1
   151    37    42   am
   152    37    36    1
   153   105   106    1
   154    35    36    1
   155   160   159   ar
   156    46    48    1
   157    39    36    1
   158   157   159   ar
