@<TRIPOS>MOLECULE
tmp/5gn7A00.pdb
 202 192 0 0 0
SMALL
GASTEIGER

@<TRIPOS>ATOM
      1  N         -4.2840   29.1150   29.3520 N.3    61  VAL61      -0.1245
      2  CA        -3.7110   28.6830   30.6260 C.3    61  VAL61       0.1561
      3  C         -4.4870   29.2810   31.7900 C.2    61  VAL61       0.2260
      4  O         -4.7430   28.6000   32.7660 O.2    61  VAL61      -0.2867
      5  CB        -2.2080   29.0070   30.7360 C.3    61  VAL61       0.0252
      6  CG1       -1.6940   28.7150   32.1320 C.3    61  VAL61       0.0019
      7  CG2       -1.4150   28.1790   29.7250 C.3    61  VAL61       0.0019
      8  N         -7.9370   27.7120   32.1120 N.3    64  CYS64      -0.1221
      9  CA        -7.6490   26.4270   32.7600 C.3    64  CYS64       0.1808
     10  C         -7.2520   26.4870   34.2220 C.2    64  CYS64       0.2601
     11  O         -7.5730   25.5640   34.9530 O.2    64  CYS64      -0.2717
     12  CB        -6.5300   25.6960   32.0590 C.3    64  CYS64       0.0970
     13  SG        -6.9910   25.0320   30.4760 S.3    64  CYS64      -0.0800
     14  N         -6.5160   27.5090   34.6560 N.am   65  ARG65      -0.1979
     15  CA        -6.1090   27.5620   36.0660 C.3    65  ARG65       0.1597
     16  C         -7.3620   27.7840   36.9080 C.2    65  ARG65       0.2287
     17  O         -7.5600   27.1460   37.9570 O.2    65  ARG65      -0.2864
     18  CB        -5.0600   28.6580   36.3520 C.3    65  ARG65       0.0334
     19  CG        -4.0650   28.3090   37.4750 C.3    65  ARG65       0.0492
     20  CD        -3.7590   29.4780   38.4230 C.3    65  ARG65       0.2205
     21  NE        -2.3820   29.5030   38.9620 N.pl3  65  ARG65      -0.0865
     22  CZ        -1.8530   28.6580   39.8590 C.cat  65  ARG65       0.5346
     23  NH1       -2.5590   27.6460   40.3640 N.pl3  65  ARG65       0.1354
     24  NH2       -0.5850   28.8270   40.2530 N.pl3  65  ARG65       0.1354
     25  N        -10.5720   27.1480   36.1880 N.3    67  LEU67      -0.1231
     26  CA       -11.3000   25.8610   36.2960 C.3    67  LEU67       0.1693
     27  C        -10.6410   25.0270   37.3710 C.2    67  LEU67       0.2592
     28  O        -11.1760   24.8790   38.4680 O.2    67  LEU67      -0.2718
     29  CB       -11.3250   25.0710   34.9710 C.3    67  LEU67       0.0284
     30  CG       -12.4500   25.3880   33.9680 C.3    67  LEU67       0.0019
     31  CD1      -12.9750   26.8210   34.0320 C.3    67  LEU67       0.0001
     32  CD2      -11.9800   25.0830   32.5590 C.3    67  LEU67       0.0001
     33  N         -9.4330   24.5680   37.0850 N.am   68  PHE68      -0.1976
     34  CA        -8.7790   23.5750   37.9240 C.3    68  PHE68       0.1639
     35  C         -8.6580   23.9250   39.4290 C.2    68  PHE68       0.2290
     36  O         -8.7210   23.0250   40.2740 O.2    68  PHE68      -0.2864
     37  CB        -7.4250   23.1850   37.3230 C.3    68  PHE68       0.0560
     38  CG        -6.8150   22.0200   37.9880 C.ar   68  PHE68      -0.0200
     39  CD1       -7.2820   20.7520   37.7260 C.ar   68  PHE68      -0.0042
     40  CD2       -5.8440   22.1900   38.9440 C.ar   68  PHE68      -0.0042
     41  CE1       -6.7650   19.6460   38.3930 C.ar   68  PHE68      -0.0003
     42  CE2       -5.3100   21.1030   39.6080 C.ar   68  PHE68      -0.0003
     43  CZ        -5.7680   19.8190   39.3330 C.ar   68  PHE68      -0.0000
     44  N         -2.7830   17.6550   43.7440 N.3    87  ARG87      -0.1231
     45  CA        -2.7520   18.6660   42.6920 C.3    87  ARG87       0.1694
     46  C         -1.7000   18.3150   41.6510 C.2    87  ARG87       0.2592
     47  O         -2.0190   18.2200   40.4480 O.2    87  ARG87      -0.2718
     48  CB        -2.4810   20.0440   43.2390 C.3    87  ARG87       0.0321
     49  CG        -2.7770   21.1090   42.2050 C.3    87  ARG87       0.0489
     50  CD        -2.0250   22.4310   42.3660 C.3    87  ARG87       0.2205
     51  NE        -2.3610   23.3120   41.2410 N.pl3  87  ARG87      -0.0865
     52  CZ        -3.5400   23.9200   41.0510 C.cat  87  ARG87       0.5346
     53  NH1       -4.5510   23.7960   41.9180 N.pl3  87  ARG87       0.1354
     54  NH2       -3.7120   24.6810   39.9740 N.pl3  87  ARG87       0.1354
     55  N         -0.4810   18.0510   42.1390 N.am   88  CYS88      -0.1970
     56  CA         0.7150   17.8640   41.2930 C.3    88  CYS88       0.1712
     57  C          0.7500   16.5040   40.5210 C.2    88  CYS88       0.2296
     58  O          0.8290   16.4530   39.2770 O.2    88  CYS88      -0.2864
     59  CB         1.9640   18.1270   42.1440 C.3    88  CYS88       0.0983
     60  SG         1.8500   19.7740   42.9280 S.3    88  CYS88      -0.0798
     61  N         -1.7580   14.9810   39.6550 N.3    90  PHE90      -0.1227
     62  CA        -2.6470   15.2150   38.5340 C.3    90  PHE90       0.1736
     63  C         -1.9980   16.1170   37.5050 C.2    90  PHE90       0.2595
     64  O         -2.0180   15.8130   36.3100 O.2    90  PHE90      -0.2718
     65  CB        -3.9760   15.8400   38.9560 C.3    90  PHE90       0.0547
     66  CG        -4.9390   16.0280   37.7920 C.ar   90  PHE90      -0.0202
     67  CD1       -5.0460   17.2600   37.1430 C.ar   90  PHE90      -0.0042
     68  CD2       -5.7000   14.9610   37.3180 C.ar   90  PHE90      -0.0042
     69  CE1       -5.9130   17.4290   36.0750 C.ar   90  PHE90      -0.0003
     70  CE2       -6.5720   15.1350   36.2410 C.ar   90  PHE90      -0.0003
     71  CZ        -6.6680   16.3710   35.6110 C.ar   90  PHE90      -0.0000
     72  N         -1.4690   17.2480   37.9480 N.am   91  LEU91      -0.1966
     73  CA        -0.8440   18.1480   37.0010 C.3    91  LEU91       0.1728
     74  C          0.2740   17.4990   36.1510 C.2    91  LEU91       0.2616
     75  O          0.3280   17.7660   34.9560 O.2    91  LEU91      -0.2715
     76  CB        -0.3700   19.4480   37.6700 C.3    91  LEU91       0.0311
     77  CG        -1.5030   20.4700   37.6250 C.3    91  LEU91       0.0022
     78  CD1       -1.3280   21.5800   38.6560 C.3    91  LEU91       0.0001
     79  CD2       -1.6600   21.0430   36.2210 C.3    91  LEU91       0.0001
     80  N          1.1070   16.6150   36.7070 N.am   92  GLU92      -0.1977
     81  CA         2.2030   16.0410   35.9020 C.3    92  GLU92       0.1602
     82  C          1.8130   15.0430   34.7810 C.2    92  GLU92       0.2287
     83  O          2.6230   14.7500   33.9180 O.2    92  GLU92      -0.2864
     84  CB         3.2860   15.4170   36.7770 C.3    92  GLU92       0.0415
     85  CG         3.8480   16.2890   37.9080 C.3    92  GLU92       0.1163
     86  CD         4.5290   17.5720   37.4680 C.2    92  GLU92       0.3649
     87  OE1        5.4700   18.0210   38.1780 O.co2  92  GLU92      -0.2457
     88  OE2        4.1260   18.1530   36.4310 O.co2  92  GLU92      -0.2457
     89  N         -0.3150   15.5980   32.4180 N.3    94  VAL94      -0.1231
     90  CA        -0.4250   16.3670   31.1850 C.3    94  VAL94       0.1692
     91  C          0.9660   16.8950   30.9150 C.2    94  VAL94       0.2591
     92  O          1.4480   16.8000   29.7920 O.2    94  VAL94      -0.2718
     93  CB        -1.4240   17.5320   31.2270 C.3    94  VAL94       0.0266
     94  CG1       -1.9210   17.7530   29.8220 C.3    94  VAL94       0.0020
     95  CG2       -2.6110   17.2770   32.1740 C.3    94  VAL94       0.0020
     96  N          1.6440   17.3800   31.9500 N.am   95  ALA95      -0.1980
     97  CA         3.1020   17.6140   31.8800 C.3    95  ALA95       0.1597
     98  C          3.9880   16.5590   31.1250 C.2    95  ALA95       0.2287
     99  O          5.0680   16.8770   30.6380 O.2    95  ALA95      -0.2864
    100  CB         3.6550   17.8460   33.2770 C.3    95  ALA95       0.0319
    101  N          9.1680   15.4200   33.3720 N.3   131  GLU131     -0.1245
    102  CA         7.8000   15.5480   33.8530 C.3   131  GLU131      0.1567
    103  C          7.1710   14.2160   34.2100 C.2   131  GLU131      0.2260
    104  O          6.3240   14.1840   35.0870 O.2   131  GLU131     -0.2867
    105  CB         6.9220   16.2920   32.8730 C.3   131  GLU131      0.0388
    106  CG         7.2840   17.7690   32.7600 C.3   131  GLU131      0.1160
    107  CD         7.1320   18.6100   34.0540 C.2   131  GLU131      0.3649
    108  OE1        6.7070   18.0950   35.1400 O.co2 131  GLU131     -0.2457
    109  OE2        7.4310   19.8350   33.9610 O.co2 131  GLU131     -0.2457
    110  N         -8.7150   12.8200   30.8660 N.3   155  THR155     -0.1218
    111  CA        -7.9450   14.0810   30.6790 C.3   155  THR155      0.1862
    112  C         -6.9160   13.8300   29.6170 C.2   155  THR155      0.2287
    113  O         -6.9110   14.4860   28.5650 O.2   155  THR155     -0.2866
    114  CB        -7.1570   14.5570   31.9430 C.3   155  THR155      0.1770
    115  OG1       -8.0060   14.5820   33.0950 O.3   155  THR155     -0.2211
    116  CG2       -6.5190   15.9710   31.7320 C.3   155  THR155      0.0375
    117  N         -8.2000   13.6220   26.1660 N.3   158  ILE158     -0.1231
    118  CA        -8.5480   14.9610   25.7090 C.3   158  ILE158      0.1692
    119  C         -7.2680   15.7460   25.4020 C.2   158  ILE158      0.2591
    120  O         -7.1310   16.2930   24.2990 O.2   158  ILE158     -0.2718
    121  CB        -9.4560   15.6860   26.7440 C.3   158  ILE158      0.0266
    122  CG1      -10.8530   15.0470   26.7490 C.3   158  ILE158      0.0019
    123  CG2       -9.5900   17.1810   26.4590 C.3   158  ILE158      0.0020
    124  CD1      -11.4700   14.9550   28.1280 C.3   158  ILE158      0.0001
    125  N         -6.3230   15.7560   26.3440 N.am  159  MET159     -0.1979
    126  CA        -5.0990   16.5310   26.1730 C.3   159  MET159      0.1605
    127  C         -4.2400   16.0270   25.0240 C.2   159  MET159      0.2287
    128  O         -3.9250   16.7940   24.1060 O.2   159  MET159     -0.2864
    129  CB        -4.2920   16.5960   27.4620 C.3   159  MET159      0.0413
    130  CG        -4.9330   17.5310   28.4900 C.3   159  MET159      0.0598
    131  SD        -4.9570   19.3160   28.1660 S.3   159  MET159     -0.1393
    132  CE        -3.4070   19.7120   27.3280 C.3   159  MET159      0.0692
    133  N          2.0880   28.0620   24.9540 N.3   177  PHE177     -0.1241
    134  CA         1.1250   27.5280   25.9250 C.3   177  PHE177      0.1605
    135  C          1.8680   26.8710   27.1060 C.2   177  PHE177      0.2264
    136  O          1.5180   27.0700   28.2720 O.2   177  PHE177     -0.2867
    137  CB         0.1990   26.5300   25.1820 C.3   177  PHE177      0.0534
    138  CG        -0.7890   25.7820   26.0500 C.ar  177  PHE177     -0.0203
    139  CD1       -2.1060   26.2650   26.2020 C.ar  177  PHE177     -0.0042
    140  CD2       -0.4320   24.5680   26.6460 C.ar  177  PHE177     -0.0042
    141  CE1       -3.0180   25.5850   26.9770 C.ar  177  PHE177     -0.0003
    142  CE2       -1.3490   23.8850   27.4130 C.ar  177  PHE177     -0.0003
    143  CZ        -2.6400   24.3860   27.5790 C.ar  177  PHE177     -0.0000
    144  N          2.2390   27.6990   31.1100 N.3   181  LEU181     -0.1231
    145  CA         1.9540   26.6680   32.1350 C.3   181  LEU181      0.1693
    146  C          3.0470   26.5830   33.1960 C.2   181  LEU181      0.2591
    147  O          2.7500   26.4000   34.3790 O.2   181  LEU181     -0.2718
    148  CB         1.7830   25.2670   31.5250 C.3   181  LEU181      0.0284
    149  CG         0.3900   24.8120   31.1240 C.3   181  LEU181      0.0019
    150  CD1        0.4530   23.6680   30.1310 C.3   181  LEU181      0.0001
    151  CD2       -0.3390   24.3590   32.3530 C.3   181  LEU181      0.0001
    152  N          4.3050   26.7010   32.7870 N.am  182  GLU182     -0.1979
    153  CA         5.3810   26.5440   33.7530 C.3   182  GLU182      0.1602
    154  C          5.5280   27.7830   34.6550 C.2   182  GLU182      0.2287
    155  O          6.0140   27.6700   35.7760 O.2   182  GLU182     -0.2864
    156  CB         6.6990   26.2070   33.0700 C.3   182  GLU182      0.0415
    157  CG         6.6430   25.1060   32.0090 C.3   182  GLU182      0.1163
    158  CD         6.3470   23.7220   32.5500 C.2   182  GLU182      0.3649
    159  OE1        5.7950   23.6690   33.6770 O.co2 182  GLU182     -0.2457
    160  OE2        6.6660   22.7100   31.8340 O.co2 182  GLU182     -0.2457
    161  N          3.2800   29.0440   36.0690 N.3   184  GLU184     -0.1231
    162  CA         2.3430   28.5990   37.1110 C.3   184  GLU184      0.1699
    163  C          2.9280   27.4340   37.9770 C.2   184  GLU184      0.2592
    164  O          2.7960   27.4340   39.2090 O.2   184  GLU184     -0.2718
    165  CB         0.9940   28.2360   36.4730 C.3   184  GLU184      0.0402
    166  CG         0.4100   29.3020   35.5430 C.3   184  GLU184      0.1161
    167  CD        -0.4280   30.3610   36.2610 C.2   184  GLU184      0.3649
    168  OE1       -0.5390   30.2920   37.5010 O.co2 184  GLU184     -0.2457
    169  OE2       -1.0040   31.2650   35.5880 O.co2 184  GLU184     -0.2457
    170  N          3.5970   26.4690   37.3550 N.am  185  ALA185     -0.1980
    171  CA         4.4030   25.5230   38.1250 C.3   185  ALA185      0.1597
    172  C          5.3800   26.2100   39.0810 C.2   185  ALA185      0.2287
    173  O          5.5250   25.7920   40.2260 O.2   185  ALA185     -0.2864
    174  CB         5.1800   24.6150   37.2050 C.3   185  ALA185      0.0319
    175  N          3.3880   28.0790   41.9990 N.3   188  THR188     -0.1203
    176  CA         2.8880   27.1380   42.9840 C.3   188  THR188      0.1994
    177  C          3.9990   26.4960   43.7640 C.2   188  THR188      0.2617
    178  O          3.9990   26.5760   44.9790 O.2   188  THR188     -0.2717
    179  CB         2.0560   26.0470   42.3510 C.3   188  THR188      0.1784
    180  OG1        0.9660   26.6590   41.6570 O.3   188  THR188     -0.2211
    181  CG2        1.5030   25.1120   43.4180 C.3   188  THR188      0.0376
    182  N          4.9660   25.8920   43.0910 N.am  189  TYR189     -0.1975
    183  CA         6.0720   25.2920   43.8300 C.3   189  TYR189      0.1639
    184  C          6.7670   26.3390   44.7620 C.2   189  TYR189      0.2290
    185  O          7.3120   25.9430   45.7760 O.2   189  TYR189     -0.2864
    186  CB         7.0700   24.5220   42.9140 C.3   189  TYR189      0.0560
    187  CG         6.5010   23.3230   42.1290 C.ar  189  TYR189     -0.0198
    188  CD1        5.8960   22.2340   42.7720 C.ar  189  TYR189     -0.0009
    189  CD2        6.5920   23.2690   40.7490 C.ar  189  TYR189     -0.0009
    190  CE1        5.3860   21.1400   42.0520 C.ar  189  TYR189      0.0417
    191  CE2        6.0700   22.1990   40.0270 C.ar  189  TYR189      0.0417
    192  CZ         5.4720   21.1310   40.6610 C.ar  189  TYR189      0.1957
    193  OH         4.9790   20.1030   39.8290 O.3   189  TYR189     -0.2866
    194  N         11.1200   23.0630   36.7670 N.3   235  GLU235     -0.1245
    195  CA         9.9870   23.6840   36.1270 C.3   235  GLU235      0.1567
    196  C         10.3300   25.0200   35.4980 C.2   235  GLU235      0.2260
    197  O          9.7760   25.3990   34.4230 O.2   235  GLU235     -0.2867
    198  CB         8.8200   23.7710   37.1030 C.3   235  GLU235      0.0388
    199  CG         8.1110   22.4240   37.2580 C.3   235  GLU235      0.1160
    200  CD         7.1210   22.1070   36.1150 C.2   235  GLU235      0.3649
    201  OE1        5.9390   21.8190   36.4090 O.co2 235  GLU235     -0.2457
    202  OE2        7.5100   22.1210   34.9160 O.co2 235  GLU235     -0.2457
@<TRIPOS>BOND
     1   128   127    2
     2   120   119    2
     3   133   134    1
     4   127   126    1
     5   137   134    1
     6   137   138    1
     7   119   118    1
     8   119   125   am
     9   118   117    1
    10   118   121    1
    11   134   135    1
    12   138   139   ar
    13   138   140   ar
    14   126   125    1
    15   126   129    1
    16   139   141   ar
    17   123   121    1
    18   140   142   ar
    19   121   122    1
    20   122   124    1
    21   141   143   ar
    22   135   136    2
    23   132   131    1
    24   142   143   ar
    25   129   130    1
    26   131   130    1
    27   113   112    2
    28     1     2    1
    29   112   111    1
    30     7     5    1
    31    92    91    2
    32    94    93    1
    33   150   149    1
    34    13    12    1
    35     2     5    1
    36     2     3    1
    37    99    98    2
    38   111   110    1
    39   111   114    1
    40     5     6    1
    41    91    90    1
    42    91    96   am
    43   144   145    1
    44   149   148    1
    45   149   151    1
    46    98    97    1
    47    90    93    1
    48    90    89    1
    49    93    95    1
    50   148   145    1
    51   116   114    1
    52     3     4    2
    53   160   158   ar
    54    97    96    1
    55    97   100    1
    56   114   115    1
    57   157   158    1
    58   157   156    1
    59    12     9    1
    60     8     9    1
    61   145   146    1
    62   158   159   ar
    63    32    30    1
    64   106   105    1
    65   106   107    1
    66     9    10    1
    67   152   146   am
    68   152   153    1
    69   105   102    1
    70   156   153    1
    71   146   147    2
    72   101   102    1
    73   153   154    1
    74   102   103    1
    75    83    82    2
    76   109   107   ar
    77    30    31    1
    78    30    29    1
    79   107   108   ar
    80   103   104    2
    81    10    14   am
    82    10    11    2
    83   197   196    2
    84   154   155    2
    85    14    15    1
    86    82    81    1
    87   202   200   ar
    88    75    74    2
    89    29    26    1
    90   196   195    1
    91   166   167    1
    92   166   165    1
    93   169   167   ar
    94    71    69   ar
    95    71    70   ar
    96    81    80    1
    97    81    84    1
    98    15    18    1
    99    15    16    1
   100   161   162    1
   101    69    67   ar
   102   200   201   ar
   103   200   199    1
   104   195   194    1
   105   195   198    1
   106    74    80   am
   107    74    73    1
   108    25    26    1
   109    79    77    1
   110    70    68   ar
   111   167   168   ar
   112    26    27    1
   113    64    63    2
   114    18    19    1
   115    88    86   ar
   116   165   162    1
   117    84    85    1
   118    16    17    2
   119    73    76    1
   120    73    72    1
   121    33    27   am
   122    33    34    1
   123   198   199    1
   124   162   163    1
   125    67    66   ar
   126   174   171    1
   127    68    66   ar
   128    37    34    1
   129    37    38    1
   130   170   163   am
   131   170   171    1
   132    27    28    2
   133    86    85    1
   134    86    87   ar
   135    19    20    1
   136    63    72   am
   137    63    62    1
   138    77    76    1
   139    77    78    1
   140    39    38   ar
   141    39    41   ar
   142    66    65    1
   143    34    35    1
   144   163   164    2
   145    38    40   ar
   146   171   172    1
   147    41    43   ar
   148    20    21    1
   149    62    65    1
   150    62    61    1
   151    40    42   ar
   152    21    22    2
   153   172   173    2
   154    58    57    2
   155    43    42   ar
   156    35    36    2
   157   193   192    1
   158    22    24    1
   159    22    23    1
   160    54    52    1
   161   191   192   ar
   162   191   189   ar
   163    47    46    2
   164    57    56    1
   165   192   190   ar
   166   189   187   ar
   167    52    51    2
   168    52    53    1
   169    51    50    1
   170    56    55    1
   171    56    59    1
   172    46    55   am
   173    46    45    1
   174   180   179    1
   175   175   176    1
   176   190   188   ar
   177   187   188   ar
   178   187   186    1
   179    59    60    1
   180    49    50    1
   181    49    48    1
   182   179   176    1
   183   179   181    1
   184    45    48    1
   185    45    44    1
   186   186   183    1
   187   176   177    1
   188   182   177   am
   189   182   183    1
   190   177   178    2
   191   183   184    1
   192   184   185    2
