@<TRIPOS>MOLECULE
tmp/5gn9D00.pdb
 142 133 0 0 0
SMALL
GASTEIGER

@<TRIPOS>ATOM
      1  N         18.3750   32.6420   56.8290 N.3    61  VAL61      -0.1245
      2  CA        18.8110   32.9130   58.2070 C.3    61  VAL61       0.1561
      3  C         19.9870   32.0260   58.5910 C.2    61  VAL61       0.2260
      4  O         20.9340   32.5200   59.2200 O.2    61  VAL61      -0.2867
      5  CB        17.6870   32.7200   59.2390 C.3    61  VAL61       0.0252
      6  CG1       18.1900   32.9570   60.6610 C.3    61  VAL61       0.0019
      7  CG2       16.5690   33.6940   58.9710 C.3    61  VAL61       0.0019
      8  N         22.9760   33.3070   57.0950 N.3    64  CYS64      -0.1221
      9  CA        23.3780   34.4870   57.8530 C.3    64  CYS64       0.1808
     10  C         24.0480   34.1430   59.1910 C.2    64  CYS64       0.2601
     11  O         24.9360   34.8690   59.6390 O.2    64  CYS64      -0.2717
     12  CB        22.1740   35.4140   58.0500 C.3    64  CYS64       0.0970
     13  SG        21.4210   35.9710   56.4930 S.3    64  CYS64      -0.0800
     14  N         23.6380   33.0430   59.8210 N.am   65  ARG65      -0.1979
     15  CA        24.3310   32.5680   61.0290 C.3    65  ARG65       0.1597
     16  C         25.6900   31.9910   60.6310 C.2    65  ARG65       0.2287
     17  O         26.6750   32.1950   61.3430 O.2    65  ARG65      -0.2864
     18  CB        23.4950   31.5420   61.8370 C.3    65  ARG65       0.0334
     19  CG        23.4310   31.8060   63.3550 C.3    65  ARG65       0.0492
     20  CD        24.2010   30.8220   64.2350 C.3    65  ARG65       0.2205
     21  NE        24.3110   31.2760   65.6350 N.pl3  65  ARG65      -0.0865
     22  CZ        23.3460   31.2210   66.5700 C.cat  65  ARG65       0.5346
     23  NH1       22.1320   30.7430   66.3120 N.pl3  65  ARG65       0.1354
     24  NH2       23.5940   31.6650   67.7980 N.pl3  65  ARG65       0.1354
     25  N         28.2020   34.8520   59.6310 N.3    68  PHE68      -0.1241
     26  CA        28.6160   35.6460   60.7680 C.3    68  PHE68       0.1605
     27  C         29.5410   34.8910   61.7160 C.2    68  PHE68       0.2264
     28  O         30.4900   35.4810   62.2430 O.2    68  PHE68      -0.2867
     29  CB        27.3810   36.1490   61.5160 C.3    68  PHE68       0.0534
     30  CG        27.6960   37.1170   62.6110 C.ar   68  PHE68      -0.0203
     31  CD1       28.4410   38.2650   62.3480 C.ar   68  PHE68      -0.0042
     32  CD2       27.2520   36.8880   63.9060 C.ar   68  PHE68      -0.0042
     33  CE1       28.7460   39.1620   63.3600 C.ar   68  PHE68      -0.0003
     34  CE2       27.5470   37.7840   64.9200 C.ar   68  PHE68      -0.0003
     35  CZ        28.2940   38.9240   64.6480 C.ar   68  PHE68      -0.0000
     36  N         29.8200   40.5200   69.6210 N.3    87  ARG87      -0.1231
     37  CA        28.8770   39.7720   68.7380 C.3    87  ARG87       0.1694
     38  C         27.4680   40.4090   68.6300 C.2    87  ARG87       0.2592
     39  O         26.9930   40.6950   67.5240 O.2    87  ARG87      -0.2718
     40  CB        28.7650   38.2710   69.1560 C.3    87  ARG87       0.0321
     41  CG        27.4270   37.5750   68.8920 C.3    87  ARG87       0.0489
     42  CD        27.4230   36.1270   69.3510 C.3    87  ARG87       0.2205
     43  NE        26.7380   35.2660   68.3840 N.pl3  87  ARG87      -0.0865
     44  CZ        27.2780   34.7890   67.2550 C.cat  87  ARG87       0.5346
     45  NH1       28.5420   35.0680   66.9060 N.pl3  87  ARG87       0.1354
     46  NH2       26.5400   34.0160   66.4560 N.pl3  87  ARG87       0.1354
     47  N         26.8080   40.5980   69.7750 N.am   88  CYS88      -0.1970
     48  CA        25.4060   41.0280   69.8020 C.3    88  CYS88       0.1712
     49  C         25.2970   42.4960   69.4680 C.2    88  CYS88       0.2296
     50  O         24.3850   42.8960   68.7450 O.2    88  CYS88      -0.2864
     51  CB        24.7870   40.7870   71.1660 C.3    88  CYS88       0.0983
     52  SG        25.3230   39.2290   71.8630 S.3    88  CYS88      -0.0798
     53  N         24.9790   42.6760   66.1890 N.3    91  LEU91      -0.1231
     54  CA        23.6840   42.0780   65.8460 C.3    91  LEU91       0.1693
     55  C         22.4080   42.8940   66.1040 C.2    91  LEU91       0.2591
     56  O         21.3920   42.6580   65.4380 O.2    91  LEU91      -0.2718
     57  CB        23.5670   40.7000   66.5070 C.3    91  LEU91       0.0284
     58  CG        23.7730   39.6060   65.4720 C.3    91  LEU91       0.0019
     59  CD1       24.3800   38.3590   66.0880 C.3    91  LEU91       0.0001
     60  CD2       22.4300   39.3880   64.7800 C.3    91  LEU91       0.0001
     61  N         22.4500   43.8230   67.0570 N.am   92  GLU92      -0.1979
     62  CA        21.3240   44.7350   67.2920 C.3    92  GLU92       0.1602
     63  C         21.2750   45.8400   66.2250 C.2    92  GLU92       0.2287
     64  O         20.1930   46.1200   65.6900 O.2    92  GLU92      -0.2864
     65  CB        21.3450   45.3180   68.7250 C.3    92  GLU92       0.0415
     66  CG        21.4290   44.3230   69.9090 C.3    92  GLU92       0.1163
     67  CD        20.4560   43.1500   69.8490 C.2    92  GLU92       0.3649
     68  OE1       19.8630   42.7570   70.8740 O.co2  92  GLU92      -0.2457
     69  OE2       20.2860   42.5790   68.7650 O.co2  92  GLU92      -0.2457
     70  N         19.2520   44.2170   63.8170 N.3    95  ALA95      -0.1245
     71  CA        17.9440   43.7720   64.3360 C.3    95  ALA95       0.1562
     72  C         16.9430   44.9290   64.4300 C.2    95  ALA95       0.2260
     73  O         15.7520   44.7620   64.1200 O.2    95  ALA95      -0.2867
     74  CB        18.0990   43.1040   65.6910 C.3    95  ALA95       0.0290
     75  N         14.9890   46.5280   70.1250 N.3   131  GLU131     -0.1245
     76  CA        16.3160   46.1090   69.6490 C.3   131  GLU131      0.1567
     77  C         17.3130   47.2750   69.8370 C.2   131  GLU131      0.2260
     78  O         18.3750   47.1020   70.4450 O.2   131  GLU131     -0.2867
     79  CB        16.3030   45.6280   68.1900 C.3   131  GLU131      0.0388
     80  CG        15.2880   44.5290   67.8290 C.3   131  GLU131      0.1160
     81  CD        15.5560   43.1450   68.4190 C.2   131  GLU131      0.3649
     82  OE1       16.5880   42.9770   69.1170 O.co2 131  GLU131     -0.2457
     83  OE2       14.7200   42.2220   68.1620 O.co2 131  GLU131     -0.2457
     84  N         15.2940   34.3770   62.6350 N.3   181  LEU181     -0.1231
     85  CA        16.3390   35.2320   63.2450 C.3   181  LEU181      0.1693
     86  C         16.2150   35.4290   64.7820 C.2   181  LEU181      0.2591
     87  O         17.2210   35.7140   65.4590 O.2   181  LEU181     -0.2718
     88  CB        16.3710   36.6060   62.5870 C.3   181  LEU181      0.0284
     89  CG        17.7270   37.1240   62.1420 C.3   181  LEU181      0.0019
     90  CD1       17.5850   38.5670   61.6560 C.3   181  LEU181      0.0001
     91  CD2       18.7590   37.0640   63.2480 C.3   181  LEU181      0.0001
     92  N         14.9940   35.2940   65.3170 N.am  182  GLU182     -0.1979
     93  CA        14.7400   35.4330   66.7660 C.3   182  GLU182      0.1602
     94  C         14.8590   34.1240   67.5390 C.2   182  GLU182      0.2287
     95  O         15.2720   34.1300   68.7000 O.2   182  GLU182     -0.2864
     96  CB        13.3470   36.0540   67.0310 C.3   182  GLU182      0.0415
     97  CG        13.1020   37.4990   66.5650 C.3   182  GLU182      0.1163
     98  CD        14.1350   38.4930   67.0460 C.2   182  GLU182      0.3649
     99  OE1       15.3330   38.2710   66.8860 O.co2 182  GLU182     -0.2457
    100  OE2       13.7600   39.5530   67.5530 O.co2 182  GLU182     -0.2457
    101  N         17.0820   32.0080   66.7730 N.3   184  GLU184     -0.1231
    102  CA        18.5480   32.1430   66.9330 C.3   184  GLU184      0.1699
    103  C         18.9270   33.0810   68.1070 C.2   184  GLU184      0.2592
    104  O         19.8630   32.7990   68.8670 O.2   184  GLU184     -0.2718
    105  CB        19.2380   32.7060   65.6640 C.3   184  GLU184      0.0402
    106  CG        18.9410   32.0500   64.3150 C.3   184  GLU184      0.1161
    107  CD        19.4580   30.6320   64.1680 C.2   184  GLU184      0.3649
    108  OE1       20.5270   30.3360   64.7470 O.co2 184  GLU184     -0.2457
    109  OE2       18.8070   29.8270   63.4370 O.co2 184  GLU184     -0.2457
    110  N         18.2330   34.2160   68.2090 N.am  185  ALA185     -0.1980
    111  CA        18.4230   35.1580   69.3260 C.3   185  ALA185      0.1597
    112  C         18.1970   34.5070   70.6990 C.2   185  ALA185      0.2287
    113  O         19.0650   34.5880   71.5660 O.2   185  ALA185     -0.2864
    114  CB        17.5190   36.3790   69.1700 C.3   185  ALA185      0.0319
    115  N         21.1070   32.0640   71.1970 N.3   188  THR188     -0.1203
    116  CA        22.2590   32.8220   71.6190 C.3   188  THR188      0.1994
    117  C         22.1250   33.2930   73.0730 C.2   188  THR188      0.2617
    118  O         22.9790   32.9630   73.9030 O.2   188  THR188     -0.2717
    119  CB        22.5040   34.0040   70.6880 C.3   188  THR188      0.1784
    120  OG1       22.7960   33.5050   69.3740 O.3   188  THR188     -0.2211
    121  CG2       23.6760   34.8270   71.1950 C.3   188  THR188      0.0376
    122  N         21.0510   34.0220   73.3830 N.am  189  TYR189     -0.1975
    123  CA        20.8990   34.6120   74.7250 C.3   189  TYR189      0.1639
    124  C         20.6640   33.5740   75.8000 C.2   189  TYR189      0.2290
    125  O         20.9870   33.8640   76.9440 O.2   189  TYR189     -0.2864
    126  CB        19.8050   35.7050   74.8020 C.3   189  TYR189      0.0560
    127  CG        20.1570   36.9610   74.0350 C.ar  189  TYR189     -0.0198
    128  CD1       21.1750   37.8120   74.4810 C.ar  189  TYR189     -0.0009
    129  CD2       19.4900   37.2920   72.8450 C.ar  189  TYR189     -0.0009
    130  CE1       21.5290   38.9550   73.7650 C.ar  189  TYR189      0.0417
    131  CE2       19.8300   38.4250   72.1150 C.ar  189  TYR189      0.0417
    132  CZ        20.8540   39.2660   72.5680 C.ar  189  TYR189      0.1957
    133  OH        21.1920   40.4080   71.8330 O.3   189  TYR189     -0.2866
    134  N         13.1240   39.0310   72.8500 N.3   235  GLU235     -0.1245
    135  CA        13.4230   38.3700   71.5660 C.3   235  GLU235      0.1567
    136  C         12.4620   37.2150   71.3430 C.2   235  GLU235      0.2260
    137  O         12.1270   36.8850   70.2070 O.2   235  GLU235     -0.2867
    138  CB        14.8710   37.8880   71.5380 C.3   235  GLU235      0.0388
    139  CG        15.9120   38.9990   71.7420 C.3   235  GLU235      0.1160
    140  CD        16.2130   39.8390   70.5040 C.2   235  GLU235      0.3649
    141  OE1       17.2000   40.6090   70.5630 O.co2 235  GLU235     -0.2457
    142  OE2       15.4890   39.7490   69.4860 O.co2 235  GLU235     -0.2457
@<TRIPOS>BOND
     1    13    12    1
     2     1     2    1
     3     8     9    1
     4     9    12    1
     5     9    10    1
     6     2     3    1
     7     2     5    1
     8     3     4    2
     9     7     5    1
    10    10    11    2
    11    10    14   am
    12     5     6    1
    13    25    26    1
    14    14    15    1
    15    16    15    1
    16    16    17    2
    17    26    29    1
    18    26    27    1
    19    15    18    1
    20    29    30    1
    21    90    89    1
    22    27    28    2
    23    18    19    1
    24    89    88    1
    25    89    91    1
    26    31    30   ar
    27    31    33   ar
    28    88    85    1
    29    30    32   ar
    30    84    85    1
    31    85    86    1
    32    19    20    1
    33    33    35   ar
    34   109   107   ar
    35    70    71    1
    36    32    34   ar
    37    73    72    2
    38   107   106    1
    39   107   108   ar
    40    20    21    1
    41   106   105    1
    42    71    72    1
    43    71    74    1
    44    35    34   ar
    45    60    58    1
    46    86    92   am
    47    86    87    2
    48    92    93    1
    49    56    55    2
    50    58    59    1
    51    58    57    1
    52    21    22    2
    53   105   102    1
    54    64    63    2
    55    54    55    1
    56    54    53    1
    57    54    57    1
    58    55    61   am
    59    63    62    1
    60    23    22    1
    61    46    44    1
    62    97    96    1
    63    97    98    1
    64    22    24    1
    65    93    96    1
    66    93    94    1
    67   101   102    1
    68    99    98   ar
    69    45    44    1
    70   102   103    1
    71    98   100   ar
    72    61    62    1
    73    44    43    2
    74    62    65    1
    75    39    38    2
    76    94    95    2
    77    80    79    1
    78    80    81    1
    79   103   110   am
    80   103   104    2
    81    83    81   ar
    82    79    76    1
    83   110   111    1
    84    43    42    1
    85    81    82   ar
    86    38    37    1
    87    38    47   am
    88    65    66    1
    89    37    40    1
    90    37    36    1
    91    50    49    2
    92    69    67   ar
    93    41    40    1
    94    41    42    1
    95   114   111    1
    96   111   112    1
    97   120   119    1
    98    49    48    1
    99   142   140   ar
   100    76    77    1
   101    76    75    1
   102    47    48    1
   103    48    51    1
   104    77    78    2
   105    67    66    1
   106    67    68   ar
   107   137   136    2
   108   140   141   ar
   109   140   139    1
   110   119   121    1
   111   119   116    1
   112   112   113    2
   113    51    52    1
   114   115   116    1
   115   136   135    1
   116   138   135    1
   117   138   139    1
   118   135   134    1
   119   116   117    1
   120   133   132    1
   121   131   132   ar
   122   131   129   ar
   123   132   130   ar
   124   129   127   ar
   125   117   122   am
   126   117   118    2
   127   122   123    1
   128   130   128   ar
   129   127   128   ar
   130   127   126    1
   131   123   126    1
   132   123   124    1
   133   124   125    2
