@<TRIPOS>MOLECULE
tmp/5gnkA00.pdb
 192 179 0 0 0
SMALL
GASTEIGER

@<TRIPOS>ATOM
      1  N         19.7980   12.4770   43.7300 N.3    22  LEU22      -0.1231
      2  CA        19.8200   12.2610   42.2990 C.3    22  LEU22       0.1693
      3  C         19.7530   10.7800   41.9350 C.2    22  LEU22       0.2593
      4  O         19.1820   10.4190   40.9730 O.2    22  LEU22      -0.2718
      5  CB        21.0590   12.8890   41.6530 C.3    22  LEU22       0.0284
      6  CG        21.2140   14.3990   41.6330 C.3    22  LEU22       0.0019
      7  CD1       22.5480   14.7900   41.0710 C.3    22  LEU22       0.0001
      8  CD2       20.0960   15.0980   40.8880 C.3    22  LEU22       0.0001
      9  N         20.3900    9.9610   42.7280 N.am   23  GLY23      -0.1942
     10  CA        20.3920    8.5450   42.5110 C.3    23  GLY23       0.2014
     11  C         21.4290    7.8390   43.3490 C.2    23  GLY23       0.2639
     12  O         22.1450    8.4360   44.0840 O.2    23  GLY23      -0.2714
     13  N         21.4880    6.5350   43.2030 N.am   24  SER24      -0.1949
     14  CA        22.4110    5.7260   43.9640 C.3    24  SER24       0.1924
     15  C         23.1010    4.7190   43.0730 C.2    24  SER24       0.2314
     16  O         22.5650    4.3150   42.0780 O.2    24  SER24      -0.2863
     17  CB        21.6770    4.9340   45.0160 C.3    24  SER24       0.2116
     18  OG        21.3370    5.7380   46.0940 O.3    24  SER24      -0.2180
     19  N         24.1110    9.9250   45.4760 N.3    30  VAL30      -0.1245
     20  CA        24.4630   11.2220   44.9430 C.3    30  VAL30       0.1561
     21  C         23.2960   12.2030   45.0820 C.2    30  VAL30       0.2260
     22  O         22.1930   11.8500   44.8060 O.2    30  VAL30      -0.2867
     23  CB        24.8210   11.1710   43.4560 C.3    30  VAL30       0.0252
     24  CG1       25.2860   12.5270   43.0110 C.3    30  VAL30       0.0019
     25  CG2       25.8910   10.1250   43.2150 C.3    30  VAL30       0.0019
     26  N         27.4830   18.5400   43.1090 N.3    47  ALA47      -0.1245
     27  CA        27.0310   17.2000   43.4030 C.3    47  ALA47       0.1562
     28  C         27.7570   16.7060   44.6440 C.2    47  ALA47       0.2260
     29  O         28.8720   17.0530   44.8480 O.2    47  ALA47      -0.2867
     30  CB        27.2710   16.2520   42.2480 C.3    47  ALA47       0.0290
     31  N         28.4150   13.1000   46.8360 N.3    49  LYS49      -0.1245
     32  CA        28.2560   11.6840   46.9630 C.3    49  LYS49       0.1561
     33  C         28.6150   11.2220   48.3560 C.2    49  LYS49       0.2260
     34  O         29.7140   11.3840   48.7640 O.2    49  LYS49      -0.2867
     35  CB        29.1430   10.9400   45.9750 C.3    49  LYS49       0.0271
     36  CG        28.9630    9.4550   46.0510 C.3    49  LYS49       0.0035
     37  CD        29.7400    8.7180   44.9820 C.3    49  LYS49       0.0206
     38  CE        29.0200    8.6890   43.6570 C.3    49  LYS49       0.1093
     39  NZ        29.5190    7.6750   42.6950 N.3    49  LYS49      -0.1314
     40  N         41.8660   12.2730   43.2990 N.3    70  MET70      -0.1245
     41  CA        40.7440   13.0000   42.7230 C.3    70  MET70       0.1570
     42  C         40.9700   14.5090   42.7220 C.2    70  MET70       0.2261
     43  O         40.5710   15.1900   41.8070 O.2    70  MET70      -0.2867
     44  CB        39.4440   12.6390   43.4250 C.3    70  MET70       0.0387
     45  CG        38.9930   11.2160   43.2020 C.3    70  MET70       0.0595
     46  SD        37.5210   10.7250   44.1080 S.3    70  MET70      -0.1393
     47  CE        36.9950    9.3390   43.1280 C.3    70  MET70       0.0692
     48  N         37.0580   13.6400   35.8470 N.3    79  CYS79      -0.1221
     49  CA        36.4720   14.5150   36.8580 C.3    79  CYS79       0.1808
     50  C         37.3460   14.6730   38.0830 C.2    79  CYS79       0.2601
     51  O         38.0130   13.7560   38.4850 O.2    79  CYS79      -0.2717
     52  CB        35.0960   14.0380   37.2910 C.3    79  CYS79       0.0970
     53  SG        33.8690   14.1860   35.9700 S.3    79  CYS79      -0.0800
     54  N         37.2430   15.8390   38.7060 N.am   80  ARG80      -0.1965
     55  CA        38.0460   16.2690   39.8400 C.3    80  ARG80       0.1729
     56  C         37.2030   16.5040   41.0940 C.2    80  ARG80       0.2616
     57  O         36.0350   16.7600   41.0090 O.2    80  ARG80      -0.2715
     58  CB        38.7960   17.5610   39.5180 C.3    80  ARG80       0.0348
     59  CG        39.9100   17.8830   40.5010 C.3    80  ARG80       0.0492
     60  CD        39.5770   18.9940   41.5010 C.3    80  ARG80       0.2205
     61  NE        40.7760   19.5560   42.1400 N.pl3  80  ARG80      -0.0865
     62  CZ        40.8150   20.5720   43.0030 C.cat  80  ARG80       0.5346
     63  NH1       39.7210   21.2120   43.3570 N.pl3  80  ARG80       0.1354
     64  NH2       41.9700   20.9870   43.4620 N.pl3  80  ARG80       0.1354
     65  N         37.8220   16.3420   42.2490 N.am   81  LEU81      -0.1977
     66  CA        37.2190   16.6170   43.5310 C.3    81  LEU81       0.1596
     67  C         37.3000   18.1030   43.8900 C.2    81  LEU81       0.2287
     68  O         38.3470   18.6630   43.8210 O.2    81  LEU81      -0.2864
     69  CB        37.9680   15.8460   44.6060 C.3    81  LEU81       0.0297
     70  CG        37.4380   15.8680   46.0270 C.3    81  LEU81       0.0022
     71  CD1       36.2150   15.0050   46.1170 C.3    81  LEU81       0.0001
     72  CD2       38.4590   15.3560   47.0130 C.3    81  LEU81       0.0001
     73  N         31.8760   13.3160   49.1520 N.3    92  LEU92      -0.1245
     74  CA        32.6900   13.8700   48.1180 C.3    92  LEU92       0.1561
     75  C         31.8740   14.9210   47.3550 C.2    92  LEU92       0.2260
     76  O         30.7920   14.6720   46.9300 O.2    92  LEU92      -0.2867
     77  CB        33.1180   12.8040   47.1370 C.3    92  LEU92       0.0270
     78  CG        33.7170   11.5190   47.6880 C.3    92  LEU92       0.0019
     79  CD1       34.1090   10.5510   46.6000 C.3    92  LEU92       0.0001
     80  CD2       34.9260   11.8320   48.5090 C.3    92  LEU92       0.0001
     81  N         31.7520   17.6870   44.1570 N.3    94  MET94      -0.1230
     82  CA        32.2750   17.9760   42.8420 C.3    94  MET94       0.1702
     83  C         31.2740   18.8140   42.0450 C.2    94  MET94       0.2592
     84  O         30.1980   19.0550   42.4810 O.2    94  MET94      -0.2718
     85  CB        32.6110   16.7070   42.0780 C.3    94  MET94       0.0401
     86  CG        31.4150   15.9560   41.5570 C.3    94  MET94       0.0596
     87  SD        31.8530   14.6960   40.3460 S.3    94  MET94      -0.1393
     88  CE        32.3200   15.6950   38.9470 C.3    94  MET94       0.0692
     89  N         31.7070   19.2570   40.8900 N.am   95  GLN95      -0.1966
     90  CA        30.8780   20.0560   40.0240 C.3    95  GLN95       0.1733
     91  C         29.6070   19.2910   39.6320 C.2    95  GLN95       0.2616
     92  O         29.6320   18.1120   39.4630 O.2    95  GLN95      -0.2715
     93  CB        31.7050   20.4680   38.7990 C.3    95  GLN95       0.0408
     94  CG        30.9720   20.5340   37.4970 C.3    95  GLN95       0.0908
     95  CD        31.8230   21.0630   36.3520 C.2    95  GLN95       0.2608
     96  OE1       32.9690   20.6850   36.1910 O.2    95  GLN95      -0.2717
     97  NE2       31.2470   21.9050   35.5470 N.am   95  GLN95      -0.0878
     98  N         28.4930   20.0030   39.5340 N.am   96  LEU96      -0.1963
     99  CA        27.2390   19.3940   39.1710 C.3    96  LEU96       0.1728
    100  C         27.0970   19.4120   37.6660 C.2    96  LEU96       0.2616
    101  O         27.1550   20.4400   37.0790 O.2    96  LEU96      -0.2715
    102  CB        26.0910   20.1680   39.7950 C.3    96  LEU96       0.0311
    103  CG        24.6710   19.7140   39.5340 C.3    96  LEU96       0.0022
    104  CD1       24.4510   18.2910   39.9760 C.3    96  LEU96       0.0001
    105  CD2       23.6580   20.6520   40.1750 C.3    96  LEU96       0.0001
    106  N         26.9150   18.2430   37.0730 N.am   97  MET97      -0.1977
    107  CA        26.7860   18.1430   35.6370 C.3    97  MET97       0.1605
    108  C         25.3080   18.0220   35.2340 C.2    97  MET97       0.2287
    109  O         24.7140   17.0200   35.4010 O.2    97  MET97      -0.2864
    110  CB        27.5840   16.9310   35.1340 C.3    97  MET97       0.0413
    111  CG        29.0240   16.9490   35.5550 C.3    97  MET97       0.0598
    112  SD        29.9590   18.1580   34.6490 S.3    97  MET97      -0.1393
    113  CE        31.5870   17.5270   34.9810 C.3    97  MET97       0.0692
    114  N         24.0670   14.9140   33.0990 N.3   100  GLY100     -0.1210
    115  CA        24.0430   13.5880   33.6470 C.3   100  GLY100      0.1956
    116  C         25.0570   12.6120   33.0700 C.2   100  GLY100      0.2612
    117  O         26.0090   12.9830   32.4950 O.2   100  GLY100     -0.2717
    118  N         24.8270   11.3280   33.3250 N.am  101  CYS101     -0.1970
    119  CA        25.7270   10.2700   32.8350 C.3   101  CYS101      0.1712
    120  C         25.5110    9.9690   31.3420 C.2   101  CYS101      0.2296
    121  O         24.4220   10.1330   30.7960 O.2   101  CYS101     -0.2864
    122  CB        25.6410    8.9930   33.6770 C.3   101  CYS101      0.0983
    123  SG        24.0730    8.0840   33.4690 S.3   101  CYS101     -0.0798
    124  N         25.5530    7.0300   29.8740 N.3   103  LEU103     -0.1231
    125  CA        24.6790    5.9110   29.5920 C.3   103  LEU103      0.1693
    126  C         23.2260    6.3650   29.3980 C.2   103  LEU103      0.2592
    127  O         22.6120    6.0530   28.4120 O.2   103  LEU103     -0.2718
    128  CB        24.7160    4.9260   30.7470 C.3   103  LEU103      0.0284
    129  CG        23.7700    3.7440   30.6730 C.3   103  LEU103      0.0019
    130  CD1       24.0530    2.9260   29.4430 C.3   103  LEU103      0.0001
    131  CD2       23.8150    2.8840   31.9110 C.3   103  LEU103      0.0001
    132  N         22.7420    7.1830   30.3220 N.am  104  ASP104     -0.1974
    133  CA        21.3830    7.7040   30.1950 C.3   104  ASP104      0.1709
    134  C         21.2880    8.5780   28.9460 C.2   104  ASP104      0.2293
    135  O         20.3050    8.5730   28.2700 O.2   104  ASP104     -0.2864
    136  CB        20.9700    8.5280   31.4110 C.3   104  ASP104      0.1436
    137  CG        20.7420    7.7110   32.6540 C.2   104  ASP104      0.3671
    138  OD1       20.8890    6.5110   32.6550 O.co2 104  ASP104     -0.2456
    139  OD2       20.4210    8.3130   33.6630 O.co2 104  ASP104     -0.2456
    140  N         28.0310    4.2870   32.6700 N.3   145  ARG145     -0.1245
    141  CA        27.4370    4.9720   33.8110 C.3   145  ARG145      0.1563
    142  C         28.4330    5.8610   34.5590 C.2   145  ARG145      0.2260
    143  O         28.0530    6.7660   35.2400 O.2   145  ARG145     -0.2867
    144  CB        26.7710    3.9980   34.7640 C.3   145  ARG145      0.0307
    145  CG        27.7390    3.1020   35.4800 C.3   145  ARG145      0.0489
    146  CD        27.0560    2.1060   36.3940 C.3   145  ARG145      0.2205
    147  NE        28.0580    1.4350   37.1940 N.pl3 145  ARG145     -0.0865
    148  CZ        28.4380    1.8600   38.3920 C.cat 145  ARG145      0.5346
    149  NH1       27.8490    2.9080   38.9330 N.pl3 145  ARG145      0.1354
    150  NH2       29.3790    1.2240   39.0600 N.pl3 145  ARG145      0.1354
    151  N         30.4320   11.1190   32.6890 N.3   148  LEU148     -0.1245
    152  CA        29.4800   12.2210   32.7770 C.3   148  LEU148      0.1561
    153  C         29.5720   13.1540   31.5750 C.2   148  LEU148      0.2260
    154  O         30.6170   13.3950   31.0620 O.2   148  LEU148     -0.2867
    155  CB        29.6760   13.0320   34.0560 C.3   148  LEU148      0.0270
    156  CG        29.4340   12.3490   35.4020 C.3   148  LEU148      0.0019
    157  CD1       29.6950   13.2670   36.5520 C.3   148  LEU148      0.0001
    158  CD2       28.0630   11.7520   35.5220 C.3   148  LEU148      0.0001
    159  N         34.4160    9.3360   35.8460 N.3   158  THR158     -0.1203
    160  CA        34.2100    9.3980   37.2810 C.3   158  THR158      0.1994
    161  C         34.5300    8.0810   38.0210 C.2   158  THR158      0.2618
    162  O         34.6070    7.0560   37.4320 O.2   158  THR158     -0.2717
    163  CB        32.7600    9.8050   37.6580 C.3   158  THR158      0.1784
    164  OG1       31.8440    8.7870   37.3040 O.3   158  THR158     -0.2211
    165  CG2       32.3810   11.1300   37.0310 C.3   158  THR158      0.0376
    166  N         34.7360    8.1950   39.3230 N.am  159  ASP159     -0.1959
    167  CA        34.6830    7.0700   40.2270 C.3   159  ASP159      0.1840
    168  C         35.8710    6.0920   40.1660 C.2   159  ASP159      0.2622
    169  O         35.8240    5.0230   40.7160 O.2   159  ASP159     -0.2715
    170  CB        33.3630    6.3540   40.0780 C.3   159  ASP159      0.1450
    171  CG        32.1880    7.2130   40.5490 C.2   159  ASP159      0.3671
    172  OD1       32.2660    7.6290   41.6740 O.co2 159  ASP159     -0.2456
    173  OD2       31.2990    7.5180   39.7830 O.co2 159  ASP159     -0.2456
    174  N         36.9390    6.5310   39.5480 N.am  160  PHE160     -0.1974
    175  CA        38.1290    5.7350   39.4900 C.3   160  PHE160      0.1639
    176  C         38.6460    5.4880   40.8860 C.2   160  PHE160      0.2290
    177  O         38.7380    6.3900   41.6610 O.2   160  PHE160     -0.2864
    178  CB        39.2090    6.4240   38.6770 C.3   160  PHE160      0.0560
    179  CG        39.2190    7.8980   38.8360 C.ar  160  PHE160     -0.0200
    180  CD1       38.4070    8.6800   38.0750 C.ar  160  PHE160     -0.0042
    181  CD2       40.0640    8.4940   39.7310 C.ar  160  PHE160     -0.0042
    182  CE1       38.4120   10.0350   38.2160 C.ar  160  PHE160     -0.0003
    183  CE2       40.0810    9.8610   39.8650 C.ar  160  PHE160     -0.0003
    184  CZ        39.2480   10.6300   39.1170 C.ar  160  PHE160     -0.0000
    185  N         37.4170    3.8620   43.4550 N.3   162  LEU162     -0.1245
    186  CA        36.4970    3.5960   44.5450 C.3   162  LEU162      0.1561
    187  C         36.2420    2.1200   44.7990 C.2   162  LEU162      0.2260
    188  O         36.0100    1.7250   45.9120 O.2   162  LEU162     -0.2867
    189  CB        35.1790    4.3370   44.3500 C.3   162  LEU162      0.0270
    190  CG        35.2300    5.8460   44.5230 C.3   162  LEU162      0.0019
    191  CD1       33.8620    6.4850   44.3960 C.3   162  LEU162      0.0001
    192  CD2       35.8970    6.2540   45.8220 C.3   162  LEU162      0.0001
@<TRIPOS>BOND
     1   135   134    2
     2   127   126    2
     3   134   133    1
     4   126   125    1
     5   126   132   am
     6   130   129    1
     7   125   124    1
     8   125   128    1
     9   133   132    1
    10   133   136    1
    11   129   128    1
    12   129   131    1
    13   121   120    2
    14   154   153    2
    15   120   119    1
    16   136   137    1
    17   153   152    1
    18   117   116    2
    19   137   138   ar
    20   137   139   ar
    21   140   141    1
    22   151   152    1
    23   152   155    1
    24   119   118    1
    25   119   122    1
    26   116   118   am
    27   116   115    1
    28   114   115    1
    29   123   122    1
    30   141   142    1
    31   141   144    1
    32   155   156    1
    33   142   143    2
    34   112   113    1
    35   112   111    1
    36   144   145    1
    37   110   111    1
    38   110   107    1
    39   108   109    2
    40   108   107    1
    41   156   158    1
    42   156   157    1
    43   145   146    1
    44    97    95   am
    45   107   106    1
    46   159   160    1
    47    48    49    1
    48    53    52    1
    49    96    95    2
    50    95    94    1
    51   146   147    1
    52    49    52    1
    53    49    50    1
    54   165   163    1
    55   106   100   am
    56   101   100    2
    57   147   148    2
    58   160   163    1
    59   160   161    1
    60   164   163    1
    61   162   161    2
    62    94    93    1
    63   100    99    1
    64   161   166   am
    65   180   182   ar
    66   180   179   ar
    67    50    51    2
    68    50    54   am
    69   182   184   ar
    70   148   149    1
    71   148   150    1
    72   178   179    1
    73   178   175    1
    74    54    55    1
    75    93    90    1
    76   179   181   ar
    77    88    87    1
    78   184   183   ar
    79    99    98    1
    80    99   102    1
    81   166   167    1
    82    92    91    2
    83   175   174    1
    84   175   176    1
    85    58    55    1
    86    58    59    1
    87   103   102    1
    88   103   104    1
    89   103   105    1
    90    98    91   am
    91   174   168   am
    92    91    90    1
    93   181   183   ar
    94   173   171   ar
    95    55    56    1
    96    90    89    1
    97   170   167    1
    98   170   171    1
    99   168   167    1
   100   168   169    2
   101    87    86    1
   102    59    60    1
   103   171   172   ar
   104   176   177    2
   105     8     6    1
   106    89    83   am
   107     4     3    2
   108    57    56    2
   109     7     6    1
   110    56    65   am
   111    60    61    1
   112    86    85    1
   113     6     5    1
   114     5     2    1
   115    43    42    2
   116     3     2    1
   117     3     9   am
   118    83    84    2
   119    83    82    1
   120    16    15    2
   121    85    82    1
   122    61    62    2
   123    30    27    1
   124    65    66    1
   125     2     1    1
   126    10     9    1
   127    10    11    1
   128    39    38    1
   129    42    41    1
   130    41    40    1
   131    41    44    1
   132    82    81    1
   133    62    63    1
   134    62    64    1
   135    24    23    1
   136    15    14    1
   137    26    27    1
   138    47    46    1
   139    45    44    1
   140    45    46    1
   141    13    11   am
   142    13    14    1
   143    25    23    1
   144    11    12    2
   145    27    28    1
   146   185   186    1
   147    23    20    1
   148    66    67    1
   149    66    69    1
   150    38    37    1
   151    68    67    2
   152    14    17    1
   153   189   190    1
   154   189   186    1
   155   191   190    1
   156   190   192    1
   157   186   187    1
   158    69    70    1
   159    28    29    2
   160   187   188    2
   161    22    21    2
   162    20    21    1
   163    20    19    1
   164    37    36    1
   165    17    18    1
   166    35    36    1
   167    35    32    1
   168    70    71    1
   169    70    72    1
   170    79    78    1
   171    31    32    1
   172    76    75    2
   173    32    33    1
   174    77    78    1
   175    77    74    1
   176    75    74    1
   177    78    80    1
   178    74    73    1
   179    33    34    2
