@<TRIPOS>MOLECULE
tmp/5gnlA01.pdb
 73 66 0 0 0
SMALL
GASTEIGER

@<TRIPOS>ATOM
      1  N         17.8510    8.7710   -3.5570 N.3    76  THR76      -0.1218
      2  CA        17.8650    9.8980   -2.6130 C.3    76  THR76       0.1862
      3  C         17.7520    9.3170   -1.1800 C.2    76  THR76       0.2287
      4  O         17.0560    8.3090   -0.9820 O.2    76  THR76      -0.2866
      5  CB        16.7550   10.9490   -2.9490 C.3    76  THR76       0.1770
      6  OG1       16.7340   11.9880   -1.9620 O.3    76  THR76      -0.2211
      7  CG2       15.3440   10.3040   -3.0820 C.3    76  THR76       0.0375
      8  N         15.9630    8.9200    1.0710 N.3    78  MET78      -0.1245
      9  CA        14.5670    8.9990    1.5260 C.3    78  MET78       0.1570
     10  C         14.0740    7.7390    2.2160 C.2    78  MET78       0.2261
     11  O         14.1450    6.6340    1.6820 O.2    78  MET78      -0.2867
     12  CB        13.6240    9.4040    0.3960 C.3    78  MET78       0.0387
     13  CG        13.5510   10.8930    0.1180 C.3    78  MET78       0.0595
     14  SD        12.2830   11.1840   -1.1250 S.3    78  MET78      -0.1393
     15  CE        12.6140   12.8550   -1.6570 C.3    78  MET78       0.0692
     16  N         11.2390    6.4170    2.9580 N.3    80  ILE80      -0.1231
     17  CA        10.2270    5.5870    2.3370 C.3    80  ILE80       0.1692
     18  C         10.8400    4.5420    1.3800 C.2    80  ILE80       0.2591
     19  O         10.2010    3.5090    1.0870 O.2    80  ILE80      -0.2718
     20  CB         9.1420    6.4440    1.6410 C.3    80  ILE80       0.0266
     21  CG1        7.9140    5.5790    1.2880 C.3    80  ILE80       0.0019
     22  CG2        9.6930    7.1520    0.4020 C.3    80  ILE80       0.0020
     23  CD1        6.6460    6.3920    1.2300 C.3    80  ILE80       0.0001
     24  N         12.0710    4.8030    0.9160 N.am   81  LEU81      -0.1980
     25  CA        12.7650    3.9000   -0.0190 C.3    81  LEU81       0.1596
     26  C         13.7170    2.9090    0.6590 C.2    81  LEU81       0.2287
     27  O         14.4230    2.1720   -0.0180 O.2    81  LEU81      -0.2864
     28  CB        13.4970    4.7100   -1.1050 C.3    81  LEU81       0.0297
     29  CG        12.6810    5.7140   -1.9340 C.3    81  LEU81       0.0022
     30  CD1       13.5770    6.5700   -2.8370 C.3    81  LEU81       0.0001
     31  CD2       11.6210    5.0040   -2.7630 C.3    81  LEU81       0.0001
     32  N         10.7070   14.7070    1.1920 N.3   224  LEU224     -0.1245
     33  CA         9.7590   13.6070    1.3950 C.3   224  LEU224      0.1561
     34  C          8.4220   14.0710    1.9520 C.2   224  LEU224      0.2260
     35  O          7.3610   13.6420    1.4620 O.2   224  LEU224     -0.2867
     36  CB        10.3430   12.4790    2.2710 C.3   224  LEU224      0.0270
     37  CG         9.4110   11.2860    2.6160 C.3   224  LEU224      0.0019
     38  CD1        8.9760   10.5410    1.3640 C.3   224  LEU224      0.0001
     39  CD2       10.0930   10.3360    3.5930 C.3   224  LEU224      0.0001
     40  N          6.4610   15.8700   -0.7280 N.3   227  ILE227     -0.1231
     41  CA         5.9860   15.0100   -1.7890 C.3   227  ILE227      0.1692
     42  C          4.9130   14.0740   -1.2250 C.2   227  ILE227      0.2591
     43  O          3.8730   13.9450   -1.8360 O.2   227  ILE227     -0.2718
     44  CB         7.1370   14.2500   -2.5090 C.3   227  ILE227      0.0266
     45  CG1        8.0630   15.2570   -3.2070 C.3   227  ILE227      0.0019
     46  CG2        6.5990   13.1960   -3.4960 C.3   227  ILE227      0.0020
     47  CD1        9.3260   14.6050   -3.7140 C.3   227  ILE227      0.0001
     48  N          5.1690   13.4600   -0.0700 N.am  228  ALA228     -0.1980
     49  CA         4.2160   12.5420    0.5790 C.3   228  ALA228      0.1597
     50  C          2.9300   13.2490    1.0240 C.2   228  ALA228      0.2287
     51  O          1.8660   12.6430    1.0380 O.2   228  ALA228     -0.2864
     52  CB         4.8630   11.8690    1.7730 C.3   228  ALA228      0.0319
     53  N         -1.4150   13.5400   -2.1580 N.3   232  THR232     -0.1218
     54  CA        -2.2120   12.6070   -1.3850 C.3   232  THR232      0.1862
     55  C         -3.3960   13.3260   -0.7320 C.2   232  THR232      0.2287
     56  O         -4.5500   12.9610   -0.9930 O.2   232  THR232     -0.2866
     57  CB        -1.3350   11.8830   -0.3530 C.3   232  THR232      0.1770
     58  OG1       -0.6960   12.8600    0.4690 O.3   232  THR232     -0.2211
     59  CG2       -0.2480   11.0600   -1.0770 C.3   232  THR232      0.0375
     60  N         -4.4110    7.2960   -2.3550 N.3   275  VAL275     -0.1245
     61  CA        -3.2410    6.5190   -2.7680 C.3   275  VAL275      0.1561
     62  C         -3.8620    5.1670   -3.0970 C.2   275  VAL275      0.2260
     63  O         -4.1900    4.3930   -2.2000 O.2   275  VAL275     -0.2867
     64  CB        -2.1490    6.4100   -1.6510 C.3   275  VAL275      0.0252
     65  CG1       -0.9900    5.5060   -2.0820 C.3   275  VAL275      0.0019
     66  CG2       -1.6100    7.8020   -1.3280 C.3   275  VAL275      0.0019
     67  N          3.2930    2.5580   -2.9040 N.3   279  PRO279     -0.2116
     68  CA         4.5410    2.6160   -3.6530 C.3   279  PRO279      0.1372
     69  C          5.1380    1.2150   -3.8070 C.2   279  PRO279      0.2244
     70  O          4.9390    0.3680   -2.9300 O.2   279  PRO279     -0.2868
     71  CB         5.4600    3.4700   -2.7590 C.3   279  PRO279      0.0268
     72  CG         4.5130    4.3320   -1.9820 C.3   279  PRO279      0.0207
     73  CD         3.2910    3.4880   -1.7560 C.3   279  PRO279      0.0892
@<TRIPOS>BOND
     1    69    68    1
     2    69    70    2
     3    47    45    1
     4    68    67    1
     5    68    71    1
     6     1     2    1
     7    46    44    1
     8    45    44    1
     9    62    61    1
    10    62    63    2
    11     7     5    1
    12     5     2    1
    13     5     6    1
    14    67    73    1
    15    30    29    1
    16    61    60    1
    17    61    64    1
    18    31    29    1
    19    71    72    1
    20     2     3    1
    21    44    41    1
    22    53    54    1
    23    65    64    1
    24    72    73    1
    25    29    28    1
    26    43    42    2
    27    41    42    1
    28    41    40    1
    29    15    14    1
    30    64    66    1
    31    54    55    1
    32    54    57    1
    33    42    48   am
    34     3     4    2
    35    14    13    1
    36    28    25    1
    37    59    57    1
    38    56    55    2
    39    57    58    1
    40    48    49    1
    41    25    26    1
    42    25    24    1
    43    27    26    2
    44    13    12    1
    45    12     9    1
    46    22    20    1
    47    49    50    1
    48    49    52    1
    49    24    18   am
    50    50    51    2
    51     8     9    1
    52    19    18    2
    53    32    33    1
    54    23    21    1
    55    21    20    1
    56    38    37    1
    57    18    17    1
    58    33    34    1
    59    33    36    1
    60    35    34    2
    61     9    10    1
    62    20    17    1
    63    11    10    2
    64    36    37    1
    65    17    16    1
    66    37    39    1
