@<TRIPOS>MOLECULE
tmp/5gnqA01.pdb
 147 140 0 0 0
SMALL
GASTEIGER

@<TRIPOS>ATOM
      1  N         80.5210   19.1120  -50.3090 N.3    35  TYR35      -0.1227
      2  CA        80.1290   20.3890  -49.7140 C.3    35  TYR35       0.1736
      3  C         81.3450   21.2490  -49.3990 C.2    35  TYR35       0.2595
      4  O         82.3590   20.7660  -48.8750 O.2    35  TYR35      -0.2718
      5  CB        79.2900   20.1720  -48.4270 C.3    35  TYR35       0.0548
      6  CG        78.8930   21.4290  -47.7010 C.ar   35  TYR35      -0.0200
      7  CD1       78.0530   22.3830  -48.2980 C.ar   35  TYR35      -0.0009
      8  CD2       79.3410   21.6740  -46.4120 C.ar   35  TYR35      -0.0009
      9  CE1       77.6500   23.5220  -47.5890 C.ar   35  TYR35       0.0417
     10  CE2       78.9430   22.8120  -45.7000 C.ar   35  TYR35       0.0417
     11  CZ        78.1120   23.7370  -46.2820 C.ar   35  TYR35       0.1957
     12  OH        77.8080   24.8770  -45.5740 O.3    35  TYR35      -0.2866
     13  N         81.2340   22.5190  -49.7580 N.am   36  LYS36      -0.1980
     14  CA        82.2820   23.4710  -49.5280 C.3    36  LYS36       0.1596
     15  C         81.8490   24.3500  -48.4120 C.2    36  LYS36       0.2287
     16  O         81.0950   25.2550  -48.6090 O.2    36  LYS36      -0.2864
     17  CB        82.5550   24.2650  -50.8080 C.3    36  LYS36       0.0298
     18  CG        83.2320   23.4270  -51.8940 C.3    36  LYS36       0.0038
     19  CD        84.1210   24.2830  -52.7990 C.3    36  LYS36       0.0206
     20  CE        83.3030   25.2220  -53.6920 C.3    36  LYS36       0.1093
     21  NZ        84.1240   26.2780  -54.3660 N.3    36  LYS36      -0.1314
     22  N         82.3180   26.9730  -44.9280 N.3    38  SER38      -0.1217
     23  CA        82.9300   28.2130  -44.5310 C.3    38  SER38       0.1889
     24  C         82.9990   28.3510  -43.0180 C.2    38  SER38       0.2288
     25  O         82.0880   27.9650  -42.3080 O.2    38  SER38      -0.2866
     26  CB        82.2000   29.4180  -45.1550 C.3    38  SER38       0.2089
     27  OG        81.7760   29.1080  -46.4860 O.3    38  SER38      -0.2183
     28  N         85.0960   31.2630  -40.1050 N.3    40  PHE40      -0.1241
     29  CA        85.3220   32.6950  -39.9650 C.3    40  PHE40       0.1605
     30  C         86.3910   32.9740  -38.9180 C.2    40  PHE40       0.2264
     31  O         86.5370   32.2150  -37.9170 O.2    40  PHE40      -0.2867
     32  CB        84.0170   33.4030  -39.5690 C.3    40  PHE40       0.0534
     33  CG        82.8910   33.1980  -40.5530 C.ar   40  PHE40      -0.0203
     34  CD1       82.2070   32.0060  -40.6090 C.ar   40  PHE40      -0.0042
     35  CD2       82.4970   34.2140  -41.3930 C.ar   40  PHE40      -0.0042
     36  CE1       81.1650   31.8290  -41.4820 C.ar   40  PHE40      -0.0003
     37  CE2       81.4370   34.0400  -42.2740 C.ar   40  PHE40      -0.0003
     38  CZ        80.7850   32.8390  -42.3320 C.ar   40  PHE40      -0.0000
     39  N         80.1270   42.0790  -44.4170 N.3    50  LYS50      -0.1231
     40  CA        78.7380   41.9030  -43.9300 C.3    50  LYS50       0.1693
     41  C         78.6250   40.9970  -42.6870 C.2    50  LYS50       0.2592
     42  O         77.5360   40.8490  -42.1310 O.2    50  LYS50      -0.2718
     43  CB        77.7900   41.4450  -45.0560 C.3    50  LYS50       0.0285
     44  CG        78.2460   40.2150  -45.8140 C.3    50  LYS50       0.0035
     45  CD        77.1810   39.7280  -46.7800 C.3    50  LYS50       0.0206
     46  CE        77.7430   38.5650  -47.5870 C.3    50  LYS50       0.1093
     47  NZ        76.7020   37.7810  -48.3130 N.3    50  LYS50      -0.1314
     48  N         79.7670   40.4870  -42.2110 N.am   51  TYR51      -0.1976
     49  CA        79.8630   39.4200  -41.1850 C.3    51  TYR51       0.1639
     50  C         80.4640   39.9030  -39.8790 C.2    51  TYR51       0.2290
     51  O         81.6330   40.3140  -39.8290 O.2    51  TYR51      -0.2864
     52  CB        80.7310   38.2670  -41.6700 C.3    51  TYR51       0.0560
     53  CG        80.2310   37.5360  -42.8980 C.ar   51  TYR51      -0.0198
     54  CD1       80.9490   37.5630  -44.0930 C.ar   51  TYR51      -0.0009
     55  CD2       79.0290   36.8200  -42.8690 C.ar   51  TYR51      -0.0009
     56  CE1       80.4850   36.8650  -45.2120 C.ar   51  TYR51       0.0417
     57  CE2       78.5570   36.1190  -43.9680 C.ar   51  TYR51       0.0417
     58  CZ        79.2560   36.1600  -45.1410 C.ar   51  TYR51       0.1957
     59  OH        78.7890   35.4650  -46.2320 O.3    51  TYR51      -0.2866
     60  N         84.9610   35.8220  -43.8930 N.3    61  ARG61      -0.1245
     61  CA        84.6660   34.5000  -44.3840 C.3    61  ARG61       0.1563
     62  C         85.9090   33.7420  -44.9530 C.2    61  ARG61       0.2260
     63  O         86.7210   34.3170  -45.6690 O.2    61  ARG61      -0.2867
     64  CB        83.5440   34.5990  -45.3990 C.3    61  ARG61       0.0307
     65  CG        83.2200   33.2810  -46.0680 C.3    61  ARG61       0.0489
     66  CD        81.7450   33.0230  -46.1270 C.3    61  ARG61       0.2205
     67  NE        81.1410   33.3160  -47.4080 N.pl3  61  ARG61      -0.0865
     68  CZ        80.7530   32.4140  -48.3160 C.cat  61  ARG61       0.5346
     69  NH1       80.9360   31.1080  -48.1560 N.pl3  61  ARG61       0.1354
     70  NH2       80.1650   32.8320  -49.4250 N.pl3  61  ARG61       0.1354
     71  N         82.1430   30.0980  -36.3590 N.3    86  GLY86      -0.1210
     72  CA        81.2070   29.4880  -37.3120 C.3    86  GLY86       0.1956
     73  C         80.8380   28.0400  -36.9540 C.2    86  GLY86       0.2611
     74  O         81.3710   27.4260  -36.0090 O.2    86  GLY86      -0.2717
     75  N         79.9350   27.4970  -37.7590 N.am   87  MET87      -0.1979
     76  CA        79.3740   26.1970  -37.5610 C.3    87  MET87       0.1605
     77  C         80.3660   25.0970  -37.9370 C.2    87  MET87       0.2287
     78  O         80.5430   24.7580  -39.0860 O.2    87  MET87      -0.2864
     79  CB        78.0620   26.0900  -38.3300 C.3    87  MET87       0.0413
     80  CG        77.3950   24.7340  -38.3200 C.3    87  MET87       0.0598
     81  SD        77.2090   23.9340  -36.7070 S.3    87  MET87      -0.1393
     82  CE        76.0380   24.9940  -35.8720 C.3    87  MET87       0.0692
     83  N         75.3070   23.2340  -41.3710 N.3    93  ALA93      -0.1245
     84  CA        75.5120   24.3280  -42.3560 C.3    93  ALA93       0.1562
     85  C         74.9860   23.8730  -43.7180 C.2    93  ALA93       0.2260
     86  O         74.2390   24.6150  -44.4000 O.2    93  ALA93      -0.2867
     87  CB        76.9900   24.7340  -42.4360 C.3    93  ALA93       0.0290
     88  N         72.0600   25.9640  -45.5500 N.3    97  ASP97      -0.1239
     89  CA        72.2580   26.4260  -46.9190 C.3    97  ASP97       0.1674
     90  C         71.3110   25.7270  -47.9020 C.2    97  ASP97       0.2266
     91  O         70.8130   26.3780  -48.7710 O.2    97  ASP97      -0.2867
     92  CB        73.7210   26.1170  -47.3950 C.3    97  ASP97       0.1410
     93  CG        74.7960   26.9110  -46.6180 C.2    97  ASP97       0.3668
     94  OD1       75.9890   26.5870  -46.8970 O.co2  97  ASP97      -0.2456
     95  OD2       74.4570   27.7400  -45.6990 O.co2  97  ASP97      -0.2456
     96  N         72.0720   28.8210  -34.4410 N.3   372  PHE372     -0.1241
     97  CA        72.9000   29.0090  -35.6550 C.3   372  PHE372      0.1605
     98  C         72.0960   29.5410  -36.8410 C.2   372  PHE372      0.2264
     99  O         72.4620   30.5750  -37.4660 O.2   372  PHE372     -0.2867
    100  CB        73.6660   27.7290  -36.0190 C.3   372  PHE372      0.0534
    101  CG        74.0800   27.6650  -37.4390 C.ar  372  PHE372     -0.0203
    102  CD1       73.6430   26.6500  -38.2490 C.ar  372  PHE372     -0.0042
    103  CD2       74.9360   28.6130  -37.9520 C.ar  372  PHE372     -0.0042
    104  CE1       74.0460   26.5660  -39.6010 C.ar  372  PHE372     -0.0003
    105  CE2       75.3450   28.5410  -39.2840 C.ar  372  PHE372     -0.0003
    106  CZ        74.8700   27.5260  -40.1200 C.ar  372  PHE372     -0.0000
    107  N         72.8080   33.1610  -38.6330 N.3   376  LYS376     -0.1245
    108  CA        73.2360   33.1440  -40.0280 C.3   376  LYS376      0.1561
    109  C         72.3120   34.0160  -40.9170 C.2   376  LYS376      0.2260
    110  O         72.7940   34.5480  -41.9190 O.2   376  LYS376     -0.2867
    111  CB        73.1730   31.7340  -40.5970 C.3   376  LYS376      0.0271
    112  CG        73.8530   31.5450  -41.9450 C.3   376  LYS376      0.0035
    113  CD        73.4360   30.2820  -42.6670 C.3   376  LYS376      0.0206
    114  CE        72.4430   30.5200  -43.7920 C.3   376  LYS376      0.1093
    115  NZ        72.1850   29.2850  -44.5760 N.3   376  LYS376     -0.1314
    116  N         73.4730   37.5110  -40.9760 N.3   379  ASN379     -0.1225
    117  CA        74.8880   37.5120  -41.3480 C.3   379  ASN379      0.1785
    118  C         75.7870   37.5860  -40.1370 C.2   379  ASN379      0.2597
    119  O         76.9100   38.1280  -40.2230 O.2   379  ASN379     -0.2718
    120  CB        75.2480   38.6910  -42.3260 C.3   379  ASN379      0.1169
    121  CG        74.6560   38.5370  -43.7070 C.2   379  ASN379      0.2627
    122  OD1       74.5820   37.4540  -44.2660 O.2   379  ASN379     -0.2716
    123  ND2       74.2860   39.6360  -44.2790 N.am  379  ASN379     -0.0877
    124  N         75.3140   37.0380  -38.9970 N.am  380  LYS380     -0.1966
    125  CA        76.1650   36.9480  -37.8080 C.3   380  LYS380      0.1728
    126  C         76.8460   35.5830  -37.7180 C.2   380  LYS380      0.2616
    127  O         76.5040   34.6330  -38.4400 O.2   380  LYS380     -0.2715
    128  CB        75.4200   37.3320  -36.5450 C.3   380  LYS380      0.0311
    129  CG        75.2180   38.8300  -36.4310 C.3   380  LYS380      0.0038
    130  CD        74.2470   39.1180  -35.3060 C.3   380  LYS380      0.0206
    131  CE        73.8030   40.5720  -35.2620 C.3   380  LYS380      0.1093
    132  NZ        73.2680   40.8060  -33.9020 N.3   380  LYS380     -0.1314
    133  N         77.8760   35.5440  -36.8790 N.am  381  VAL381     -0.1963
    134  CA        78.8360   34.4620  -36.8770 C.3   381  VAL381      0.1727
    135  C         78.9480   33.8880  -35.4470 C.2   381  VAL381      0.2616
    136  O         79.2630   34.6360  -34.4760 O.2   381  VAL381     -0.2715
    137  CB        80.1810   34.9720  -37.4020 C.3   381  VAL381      0.0290
    138  CG1       81.2570   33.9200  -37.2080 C.3   381  VAL381      0.0023
    139  CG2       80.0360   35.3790  -38.8710 C.3   381  VAL381      0.0023
    140  N         78.7030   32.5710  -35.3310 N.am  382  ILE382     -0.1977
    141  CA        78.5710   31.9420  -34.0160 C.3   382  ILE382      0.1596
    142  C         79.9760   31.7720  -33.3800 C.2   382  ILE382      0.2287
    143  O         80.9810   31.6180  -34.0880 O.2   382  ILE382     -0.2864
    144  CB        77.7710   30.6310  -34.0950 C.3   382  ILE382      0.0276
    145  CG1       78.5460   29.5530  -34.8740 C.3   382  ILE382      0.0022
    146  CG2       76.3960   30.8690  -34.7150 C.3   382  ILE382      0.0022
    147  CD1       77.9280   28.1690  -34.7780 C.3   382  ILE382      0.0001
@<TRIPOS>BOND
     1    21    20    1
     2    20    19    1
     3    19    18    1
     4    18    17    1
     5    17    14    1
     6     1     2    1
     7    13    14    1
     8    13     3   am
     9     2     3    1
    10     2     5    1
    11    14    15    1
    12    70    68    1
    13     3     4    2
    14    91    90    2
    15    16    15    2
    16     5     6    1
    17    68    69    1
    18    68    67    2
    19    47    46    1
    20     7     6   ar
    21     7     9   ar
    22    90    89    1
    23     6     8   ar
    24     9    11   ar
    25    46    45    1
    26    67    66    1
    27    92    89    1
    28    92    93    1
    29    89    88    1
    30    94    93   ar
    31    45    44    1
    32    93    95   ar
    33    27    26    1
    34     8    10   ar
    35    11    10   ar
    36    11    12    1
    37    59    58    1
    38    66    65    1
    39    65    64    1
    40    44    43    1
    41    63    62    2
    42    64    61    1
    43    56    58   ar
    44    56    54   ar
    45    26    23    1
    46    58    57   ar
    47    43    40    1
    48    62    61    1
    49    22    23    1
    50   115   114    1
    51    23    24    1
    52    39    40    1
    53    86    85    2
    54    61    60    1
    55   123   121   am
    56   122   121    2
    57    54    53   ar
    58    57    55   ar
    59    40    41    1
    60   114   113    1
    61    85    84    1
    62   121   120    1
    63    24    25    2
    64    53    55   ar
    65    53    52    1
    66    41    48   am
    67    41    42    2
    68   113   112    1
    69    87    84    1
    70    84    83    1
    71    38    37   ar
    72    38    36   ar
    73   120   117    1
    74    37    35   ar
    75    48    49    1
    76   112   111    1
    77   110   109    2
    78    52    49    1
    79    36    34   ar
    80    35    33   ar
    81   117   116    1
    82   117   118    1
    83    49    50    1
    84   109   108    1
    85    34    33   ar
    86   111   108    1
    87    33    32    1
    88   119   118    2
    89   118   124   am
    90   106   104   ar
    91   106   105   ar
    92    28    29    1
    93   108   107    1
    94    29    32    1
    95    29    30    1
    96    50    51    2
    97   104   102   ar
    98   105   103   ar
    99    78    77    2
   100   124   125    1
   101    30    31    2
   102   139   137    1
   103   127   126    2
   104    79    80    1
   105    79    76    1
   106    80    81    1
   107   102   101   ar
   108   103   101   ar
   109    77    76    1
   110   125   126    1
   111   125   128    1
   112    75    76    1
   113    75    73   am
   114   126   133   am
   115    99    98    2
   116   101   100    1
   117   137   138    1
   118   137   134    1
   119    72    73    1
   120    72    71    1
   121    73    74    2
   122   133   134    1
   123   134   135    1
   124    98    97    1
   125    81    82    1
   126   128   129    1
   127   129   130    1
   128   100    97    1
   129    97    96    1
   130   135   140   am
   131   135   136    2
   132   140   141    1
   133   130   131    1
   134   131   132    1
   135   145   147    1
   136   145   144    1
   137   146   144    1
   138   144   141    1
   139   143   142    2
   140   141   142    1
