@<TRIPOS>MOLECULE
tmp/5gnsA00.pdb
 135 126 0 0 0
SMALL
GASTEIGER

@<TRIPOS>ATOM
      1  N         10.7430   61.0240  120.1490 N.3    81  THR81      -0.1203
      2  CA         9.7110   61.0130  121.1450 C.3    81  THR81       0.1994
      3  C         10.4850   60.3620  122.2410 C.2    81  THR81       0.2619
      4  O         10.9650   59.2680  122.0590 O.2    81  THR81      -0.2717
      5  CB         8.5740   60.0650  120.7550 C.3    81  THR81       0.1784
      6  OG1        8.9280   58.7410  121.1320 O.3    81  THR81      -0.2211
      7  CG2        8.3520   60.0650  119.2660 C.3    81  THR81       0.0376
      8  N         10.6910   61.0330  123.3520 N.am   82  SER82      -0.1937
      9  CA        10.0020   62.2260  123.6870 C.3    82  SER82       0.2055
     10  C         11.0020   63.0620  124.4010 C.2    82  SER82       0.2644
     11  O         11.1130   63.0130  125.6080 O.2    82  SER82      -0.2714
     12  CB         9.0430   61.8230  124.7220 C.3    82  SER82       0.2130
     13  OG         9.7170   60.8190  125.4490 O.3    82  SER82      -0.2179
     14  N         11.7530   63.8250  123.6430 N.am   83  SER83      -0.1935
     15  CA        12.6970   64.7160  124.2180 C.3    83  SER83       0.2055
     16  C         11.9750   65.9710  124.5560 C.2    83  SER83       0.2644
     17  O         12.4740   66.7890  125.2790 O.2    83  SER83      -0.2714
     18  CB        13.7610   64.9820  123.2050 C.3    83  SER83       0.2130
     19  OG        14.1530   63.7740  122.6240 O.3    83  SER83      -0.2179
     20  N         10.7790   66.1190  124.0240 N.am   84  GLY84      -0.1939
     21  CA         9.9330   67.2360  124.3660 C.3    84  GLY84       0.2014
     22  C          9.8180   68.3190  123.3340 C.2    84  GLY84       0.2639
     23  O          9.5840   69.4470  123.6500 O.2    84  GLY84      -0.2714
     24  N          9.9810   67.9710  122.0850 N.am   85  ALA85      -0.1963
     25  CA         9.8160   68.9400  121.0160 C.3    85  ALA85       0.1728
     26  C          8.5250   69.7350  121.1970 C.2    85  ALA85       0.2617
     27  O          8.5520   70.9540  121.1970 O.2    85  ALA85      -0.2715
     28  CB         9.8350   68.2490  119.6530 C.3    85  ALA85       0.0334
     29  N          7.3980   69.0550  121.3820 N.am   86  SER86      -0.1936
     30  CA         6.1310   69.7720  121.4930 C.3    86  SER86       0.2055
     31  C          6.1100   70.7090  122.7130 C.2    86  SER86       0.2643
     32  O          5.5480   71.8020  122.6520 O.2    86  SER86      -0.2714
     33  CB         4.9470   68.7980  121.5410 C.3    86  SER86       0.2130
     34  OG         5.2890   67.6240  122.2390 O.3    86  SER86      -0.2179
     35  N          6.7450   70.3120  123.8060 N.am   87  SER87      -0.1949
     36  CA         6.7570   71.1710  124.9880 C.3    87  SER87       0.1924
     37  C          7.6670   72.3910  124.8030 C.2    87  SER87       0.2314
     38  O          7.4560   73.4400  125.4260 O.2    87  SER87      -0.2863
     39  CB         7.1740   70.3710  126.2190 C.3    87  SER87       0.2116
     40  OG         6.2370   69.3260  126.4750 O.3    87  SER87      -0.2180
     41  N          5.3830   74.6880  122.6540 N.3    90  ASN90      -0.1240
     42  CA         4.3540   75.2320  123.5290 C.3    90  ASN90       0.1653
     43  C          4.8770   76.2860  124.4730 C.2    90  ASN90       0.2266
     44  O          4.1510   77.1960  124.8270 O.2    90  ASN90      -0.2867
     45  CB         3.6880   74.1300  124.3440 C.3    90  ASN90       0.1155
     46  CG         2.6090   73.4330  123.5730 C.2    90  ASN90       0.2627
     47  OD1        2.0640   74.0060  122.6410 O.2    90  ASN90      -0.2716
     48  ND2        2.2940   72.1890  123.9450 N.am   90  ASN90      -0.0877
     49  N         -0.5030   75.8080  126.0090 N.3    96  LYS96      -0.1245
     50  CA        -0.5500   74.4500  125.4990 C.3    96  LYS96       0.1561
     51  C         -1.1870   74.4670  124.1080 C.2    96  LYS96       0.2260
     52  O         -2.2380   73.8590  123.8690 O.2    96  LYS96      -0.2867
     53  CB        -1.3140   73.5280  126.4620 C.3    96  LYS96       0.0271
     54  CG        -1.0720   72.0290  126.2480 C.3    96  LYS96       0.0035
     55  CD         0.2090   71.5490  126.9190 C.3    96  LYS96       0.0206
     56  CE         0.3930   70.0360  126.7750 C.3    96  LYS96       0.1093
     57  NZ         1.3270   69.4660  127.7900 N.3    96  LYS96      -0.1314
     58  N         -0.0040   73.0840  121.5070 N.3    98  LEU98      -0.1245
     59  CA         0.0610   71.7180  121.0160 C.3    98  LEU98       0.1561
     60  C         -0.2290   70.7280  122.1440 C.2    98  LEU98       0.2260
     61  O          0.6860   70.2890  122.8580 O.2    98  LEU98      -0.2867
     62  CB         1.4340   71.4120  120.3960 C.3    98  LEU98       0.0270
     63  CG         1.8450   71.9890  119.0370 C.3    98  LEU98       0.0019
     64  CD1        3.3360   71.7490  118.7670 C.3    98  LEU98       0.0001
     65  CD2        1.0070   71.4140  117.9060 C.3    98  LEU98       0.0001
     66  N         -1.3960   66.7760  122.1730 N.3   100  SER100     -0.1202
     67  CA        -0.7170   66.2440  123.3400 C.3   100  SER100      0.2020
     68  C         -0.0780   64.9820  122.7990 C.2   100  SER100      0.2619
     69  O          0.2290   64.0580  123.5330 O.2   100  SER100     -0.2717
     70  CB        -1.6910   65.9180  124.4570 C.3   100  SER100      0.2103
     71  OG        -1.5430   66.8240  125.5290 O.3   100  SER100     -0.2182
     72  N          0.0820   64.9850  121.4760 N.am  101  GLY101     -0.1956
     73  CA         0.7720   63.9740  120.6900 C.3   101  GLY101      0.1869
     74  C          1.0210   64.6240  119.3370 C.2   101  GLY101      0.2309
     75  O          0.7900   65.8170  119.2280 O.2   101  GLY101     -0.2863
     76  N          2.2750   60.2330  118.3510 N.3   102  ILE102     -0.1245
     77  CA         1.1030   61.0660  118.5330 C.3   102  ILE102      0.1561
     78  C          0.2850   61.1470  117.2450 C.2   102  ILE102      0.2260
     79  O         -0.9380   61.0390  117.2780 O.2   102  ILE102     -0.2867
     80  CB         1.4700   62.4680  119.0770 C.3   102  ILE102      0.0252
     81  CG1        1.9100   63.4130  117.9520 C.3   102  ILE102      0.0019
     82  CG2        2.5340   62.3650  120.1580 C.3   102  ILE102      0.0019
     83  CD1        3.0610   62.9000  117.1210 C.3   102  ILE102      0.0001
     84  N         16.7590   69.3190  126.3210 N.3   217  ASN217     -0.1225
     85  CA        15.5710   69.4280  127.1420 C.3   217  ASN217      0.1785
     86  C         15.5990   68.4310  128.2900 C.2   217  ASN217      0.2597
     87  O         16.5380   67.6400  128.4080 O.2   217  ASN217     -0.2718
     88  CB        14.3400   69.1840  126.2770 C.3   217  ASN217      0.1169
     89  CG        13.0660   69.6620  126.9210 C.2   217  ASN217      0.2627
     90  OD1       13.0720   70.5960  127.7280 O.2   217  ASN217     -0.2716
     91  ND2       11.9610   69.0350  126.5610 N.am  217  ASN217     -0.0877
     92  N         14.5520   68.4600  129.1110 N.am  218  ARG218     -0.1979
     93  CA        14.4030   67.5880  130.2760 C.3   218  ARG218      0.1597
     94  C         15.5170   67.7990  131.2890 C.2   218  ARG218      0.2287
     95  O         15.8050   66.9030  132.0810 O.2   218  ARG218     -0.2864
     96  CB        14.3630   66.1090  129.8690 C.3   218  ARG218      0.0334
     97  CG        13.0690   65.6520  129.2380 C.3   218  ARG218      0.0492
     98  CD        12.9830   64.1240  129.2010 C.3   218  ARG218      0.2205
     99  NE        11.5970   63.6630  129.2620 N.pl3 218  ARG218     -0.0865
    100  CZ        11.0490   63.1290  130.3460 C.cat 218  ARG218      0.5346
    101  NH1       11.7880   62.9690  131.4380 N.pl3 218  ARG218      0.1354
    102  NH2        9.7780   62.7330  130.3350 N.pl3 218  ARG218      0.1354
    103  N         15.5960   68.9700  133.9550 N.3   220  ASP220     -0.1225
    104  CA        15.1350   68.8130  135.3550 C.3   220  ASP220      0.1805
    105  C         15.7230   67.5840  135.9950 C.2   220  ASP220      0.2597
    106  O         16.1080   67.6050  137.1520 O.2   220  ASP220     -0.2718
    107  CB        13.6260   68.6120  135.5010 C.3   220  ASP220      0.1424
    108  CG        12.8590   69.1150  134.3650 C.2   220  ASP220      0.3668
    109  OD1       13.1320   70.2330  133.9420 O.co2 220  ASP220     -0.2456
    110  OD2       11.9960   68.3660  133.8760 O.co2 220  ASP220     -0.2456
    111  N         15.6940   66.4780  135.2550 N.am  221  ALA221     -0.1979
    112  CA        16.0480   65.1790  135.8090 C.3   221  ALA221      0.1597
    113  C         17.5180   65.0980  136.2760 C.2   221  ALA221      0.2287
    114  O         17.9270   64.1060  136.8830 O.2   221  ALA221     -0.2864
    115  CB        15.7470   64.0890  134.7870 C.3   221  ALA221      0.0319
    116  N         14.6430   73.2820  130.4250 N.3   264  SER264     -0.1202
    117  CA        13.5090   72.5180  130.9280 C.3   264  SER264      0.2020
    118  C         12.1620   73.0050  130.3960 C.2   264  SER264      0.2619
    119  O         11.5110   73.8610  131.0060 O.2   264  SER264     -0.2717
    120  CB        13.4680   72.5840  132.4300 C.3   264  SER264      0.2103
    121  OG        12.2620   71.9820  132.8670 O.3   264  SER264     -0.2182
    122  N         11.7290   72.4490  129.2780 N.am  265  ALA265     -0.1965
    123  CA        10.5500   72.9630  128.6110 C.3   265  ALA265      0.1728
    124  C          9.2770   72.8120  129.4570 C.2   265  ALA265      0.2616
    125  O          8.4390   73.7140  129.4590 O.2   265  ALA265     -0.2715
    126  CB        10.3840   72.2930  127.2730 C.3   265  ALA265      0.0334
    127  N          9.1350   71.6950  130.1700 N.am  266  LYS266     -0.1977
    128  CA         7.9890   71.4740  131.0670 C.3   266  LYS266      0.1596
    129  C          7.8520   72.6160  132.0530 C.2   266  LYS266      0.2287
    130  O          6.7700   73.1980  132.2050 O.2   266  LYS266     -0.2864
    131  CB         8.1280   70.1480  131.8290 C.3   266  LYS266      0.0298
    132  CG         6.9970   69.8070  132.8140 C.3   266  LYS266      0.0038
    133  CD         7.2150   68.4220  133.4290 C.3   266  LYS266      0.0206
    134  CE         6.0820   67.4490  133.0520 C.3   266  LYS266      0.1093
    135  NZ         6.4370   65.9900  133.2140 N.3   266  LYS266     -0.1314
@<TRIPOS>BOND
     1    83    81    1
     2    78    79    2
     3    78    77    1
     4    65    63    1
     5    81    80    1
     6    76    77    1
     7    77    80    1
     8    64    63    1
     9    63    62    1
    10    80    82    1
    11    75    74    2
    12     7     5    1
    13    74    73    1
    14    28    25    1
    15     1     2    1
    16    62    59    1
    17    73    72    1
    18     5     6    1
    19     5     2    1
    20    59    58    1
    21    59    60    1
    22    25    26    1
    23    25    24    1
    24     2     3    1
    25    26    27    2
    26    26    29   am
    27    29    30    1
    28    72    68   am
    29    30    33    1
    30    30    31    1
    31    33    34    1
    32     4     3    2
    33    24    22   am
    34    60    61    2
    35    66    67    1
    36     3     8   am
    37    19    18    1
    38    47    46    2
    39    32    31    2
    40    41    42    1
    41    31    35   am
    42    68    67    1
    43    68    69    2
    44    18    15    1
    45    22    23    2
    46    22    21    1
    47    67    70    1
    48     8     9    1
    49    42    45    1
    50    42    43    1
    51    46    48   am
    52    46    45    1
    53    14    15    1
    54    14    10   am
    55     9    10    1
    56     9    12    1
    57    35    36    1
    58    52    51    2
    59    20    21    1
    60    20    16   am
    61    51    50    1
    62    15    16    1
    63    10    11    2
    64    70    71    1
    65    43    44    2
    66    16    17    2
    67    12    13    1
    68    37    36    1
    69    37    38    2
    70    36    39    1
    71    50    49    1
    72    50    53    1
    73    39    40    1
    74    54    53    1
    75    54    55    1
    76    88    89    1
    77    88    85    1
    78    84    85    1
    79    91    89   am
    80    56    55    1
    81    56    57    1
    82    89    90    2
    83    85    86    1
    84   126   123    1
    85    86    87    2
    86    86    92   am
    87   123   122    1
    88   123   124    1
    89    92    93    1
    90    98    97    1
    91    98    99    1
    92    97    96    1
    93    99   100    2
    94   122   118   am
    95   124   125    2
    96   124   127   am
    97    96    93    1
    98   127   128    1
    99    93    94    1
   100   102   100    1
   101   100   101    1
   102   118   117    1
   103   118   119    2
   104   116   117    1
   105   117   120    1
   106   128   131    1
   107   128   129    1
   108    94    95    2
   109   131   132    1
   110   129   130    2
   111   120   121    1
   112   132   133    1
   113   134   135    1
   114   134   133    1
   115   110   108   ar
   116   109   108   ar
   117   103   104    1
   118   108   107    1
   119   115   112    1
   120   111   112    1
   121   111   105   am
   122   104   107    1
   123   104   105    1
   124   112   113    1
   125   105   106    2
   126   113   114    2
