@<TRIPOS>MOLECULE
tmp/5gnwA00.pdb
 100 93 0 0 0
SMALL
GASTEIGER

@<TRIPOS>ATOM
      1  N        -21.2940   60.2470  -17.0900 N.3    54  GLY54      -0.1210
      2  CA       -21.4070   58.8030  -17.0440 C.3    54  GLY54       0.1956
      3  C        -22.8200   58.4030  -17.4040 C.2    54  GLY54       0.2612
      4  O        -23.6350   59.2560  -17.7570 O.2    54  GLY54      -0.2717
      5  N        -23.1140   57.1110  -17.3240 N.am   55  GLN55      -0.1965
      6  CA       -24.4320   56.6190  -17.6990 C.3    55  GLN55       0.1733
      7  C        -25.3310   56.5000  -16.4720 C.2    55  GLN55       0.2616
      8  O        -26.2400   57.3080  -16.2820 O.2    55  GLN55      -0.2715
      9  CB       -24.3360   55.2700  -18.4120 C.3    55  GLN55       0.0408
     10  CG       -25.5940   54.9340  -19.1980 C.3    55  GLN55       0.0908
     11  CD       -25.5810   53.5370  -19.7720 C.2    55  GLN55       0.2608
     12  OE1      -24.9600   53.2790  -20.8030 O.2    55  GLN55      -0.2717
     13  NE2      -26.2960   52.6290  -19.1200 N.am   55  GLN55      -0.0878
     14  N        -25.0720   55.4940  -15.6410 N.am   56  ASP56      -0.1958
     15  CA       -25.9280   55.2110  -14.4970 C.3    56  ASP56       0.1825
     16  C        -25.1570   54.5580  -13.3520 C.2    56  ASP56       0.2464
     17  O        -24.1800   53.8520  -13.5900 O.2    56  ASP56      -0.2730
     18  CB       -27.0780   54.2990  -14.9200 C.3    56  ASP56       0.1450
     19  CG       -26.6110   52.9000  -15.2650 C.2    56  ASP56       0.3671
     20  OD1      -25.9000   52.7420  -16.2780 O.co2  56  ASP56      -0.2456
     21  OD2      -26.9410   51.9570  -14.5140 O.co2  56  ASP56      -0.2456
     22  N        -25.5980   54.7820  -12.1000 N.am   57  PRO57      -0.2715
     23  CA       -24.8740   54.2170  -10.9550 C.3    57  PRO57       0.1536
     24  C        -24.9950   52.6980  -10.8570 C.2    57  PRO57       0.2598
     25  O        -25.7790   52.0890  -11.5860 O.2    57  PRO57      -0.2715
     26  CB       -25.5480   54.8770   -9.7420 C.3    57  PRO57       0.0310
     27  CG       -26.4090   55.9620  -10.2800 C.3    57  PRO57       0.0237
     28  CD       -26.7630   55.5730  -11.6680 C.3    57  PRO57       0.0939
     29  N        -24.2070   52.1010   -9.9660 N.am   58  ALA58      -0.1978
     30  CA       -24.2800   50.6670   -9.6990 C.3    58  ALA58       0.1597
     31  C        -24.2920   50.4360   -8.1860 C.2    58  ALA58       0.2287
     32  O        -24.6080   51.3490   -7.4240 O.2    58  ALA58      -0.2864
     33  CB       -23.1180   49.9370  -10.3620 C.3    58  ALA58       0.0319
     34  N        -21.9390   52.4190   -6.0890 N.3    61  GLU61      -0.1245
     35  CA       -22.2820   53.8350   -6.0490 C.3    61  GLU61       0.1567
     36  C        -23.4290   54.0860   -5.0770 C.2    61  GLU61       0.2260
     37  O        -23.6990   55.2260   -4.7000 O.2    61  GLU61      -0.2867
     38  CB       -22.6660   54.3280   -7.4450 C.3    61  GLU61       0.0388
     39  CG       -21.4770   54.6150   -8.3480 C.3    61  GLU61       0.1160
     40  CD       -20.9730   53.3740   -9.0590 C.2    61  GLU61       0.3649
     41  OE1      -21.8050   52.6250   -9.6120 O.co2  61  GLU61      -0.2457
     42  OE2      -19.7440   53.1490   -9.0650 O.co2  61  GLU61      -0.2457
     43  N        -20.5990   58.6970   -7.5750 N.3    67  ILE67      -0.1231
     44  CA       -20.7160   57.9560   -8.7840 C.3    67  ILE67       0.1692
     45  C        -19.4260   57.5370   -9.3780 C.2    67  ILE67       0.2591
     46  O        -18.4380   58.1620   -9.2690 O.2    67  ILE67      -0.2718
     47  CB       -21.5160   58.6820   -9.8770 C.3    67  ILE67       0.0266
     48  CG1      -20.7580   59.8340  -10.4660 C.3    67  ILE67       0.0019
     49  CG2      -22.8730   59.1040   -9.4210 C.3    67  ILE67       0.0020
     50  CD1      -20.9780   59.9460  -11.9240 C.3    67  ILE67       0.0001
     51  N        -19.4630   56.4370  -10.0540 N.am   68  LEU68      -0.1980
     52  CA       -18.2240   55.9330  -10.6290 C.3    68  LEU68       0.1596
     53  C        -17.1770   55.6870   -9.5490 C.2    68  LEU68       0.2287
     54  O        -16.1680   56.3850   -9.4920 O.2    68  LEU68      -0.2864
     55  CB       -17.6860   56.9230  -11.6670 C.3    68  LEU68       0.0297
     56  CG       -18.4130   56.9800  -13.0150 C.3    68  LEU68       0.0022
     57  CD1      -18.1580   58.3150  -13.6980 C.3    68  LEU68       0.0001
     58  CD2      -17.9960   55.8230  -13.9210 C.3    68  LEU68       0.0001
     59  N        -16.5470   52.1840   -8.7820 N.3    70  GLY70      -0.1225
     60  CA       -16.2300   50.7880   -9.0210 C.3    70  GLY70       0.1811
     61  C        -15.1800   50.6400  -10.1050 C.2    70  GLY70       0.2280
     62  O        -14.2990   51.4880  -10.2500 O.2    70  GLY70      -0.2866
     63  N        -15.5880   50.7990  -13.3900 N.3    72  ALA72      -0.1245
     64  CA       -15.7780   51.8910  -14.3390 C.3    72  ALA72       0.1562
     65  C        -15.0620   53.1550  -13.8790 C.2    72  ALA72       0.2260
     66  O        -14.3160   53.7680  -14.6400 O.2    72  ALA72      -0.2867
     67  CB       -17.2600   52.1700  -14.5320 C.3    72  ALA72       0.0290
     68  N        -23.6720   61.6790  -13.8450 N.3    92  ASN92      -0.1240
     69  CA       -24.2620   60.6240  -14.6140 C.3    92  ASN92       0.1653
     70  C        -25.4320   61.0680  -15.3840 C.2    92  ASN92       0.2266
     71  O        -26.0900   61.9630  -15.0430 O.2    92  ASN92      -0.2867
     72  CB       -24.7720   59.5320  -13.7020 C.3    92  ASN92       0.1155
     73  CG       -23.7300   58.6250  -13.2290 C.2    92  ASN92       0.2627
     74  OD1      -22.6850   58.5120  -13.7660 O.2    92  ASN92      -0.2716
     75  ND2      -24.0350   57.9590  -12.1970 N.am   92  ASN92      -0.0877
     76  N        -19.5130   58.8870  -21.4600 N.3   136  LEU136     -0.1245
     77  CA       -19.3090   57.4450  -21.3740 C.3   136  LEU136      0.1561
     78  C        -20.5050   56.6530  -21.9050 C.2   136  LEU136      0.2260
     79  O        -21.5190   56.5150  -21.2200 O.2   136  LEU136     -0.2867
     80  CB       -19.0230   57.0520  -19.9260 C.3   136  LEU136      0.0270
     81  CG       -17.9500   57.8910  -19.2250 C.3   136  LEU136      0.0019
     82  CD1      -17.7620   57.4330  -17.7890 C.3   136  LEU136      0.0001
     83  CD2      -16.6300   57.8340  -19.9770 C.3   136  LEU136      0.0001
     84  N        -18.2330   53.3580  -23.2930 N.3   166  HIS166     -0.1241
     85  CA       -18.4680   53.2070  -21.8650 C.3   166  HIS166      0.1621
     86  C        -17.4740   52.1920  -21.2830 C.2   166  HIS166      0.2264
     87  O        -17.4210   51.0570  -21.7540 O.2   166  HIS166     -0.2867
     88  CB       -19.9050   52.7540  -21.6130 C.3   166  HIS166      0.0745
     89  CG       -20.3040   52.7810  -20.1720 C.ar  166  HIS166      0.0817
     90  ND1      -19.9610   51.7900  -19.2780 N.ar  166  HIS166     -0.2268
     91  CD2      -21.0380   53.6800  -19.4740 C.ar  166  HIS166      0.1154
     92  CE1      -20.4560   52.0840  -18.0880 C.ar  166  HIS166      0.1986
     93  NE2      -21.1140   53.2250  -18.1810 N.ar  166  HIS166     -0.2212
     94  N        -17.0710   49.9000  -19.4060 N.3   168  THR168     -0.1218
     95  CA       -17.4120   48.4940  -19.1810 C.3   168  THR168      0.1862
     96  C        -18.1670   47.9100  -20.3710 C.2   168  THR168      0.2287
     97  O        -19.0180   47.0320  -20.2180 O.2   168  THR168     -0.2866
     98  CB       -18.2620   48.3100  -17.9140 C.3   168  THR168      0.1770
     99  OG1      -19.4950   49.0260  -18.0470 O.3   168  THR168     -0.2211
    100  CG2      -17.5060   48.8070  -16.6940 C.3   168  THR168      0.0375
@<TRIPOS>BOND
     1    84    85    1
     2    78    77    1
     3    78    79    2
     4    85    88    1
     5    85    86    1
     6    87    86    2
     7    88    89    1
     8    76    77    1
     9    77    80    1
    10    12    11    2
    11    96    97    2
    12    96    95    1
    13    89    91   ar
    14    89    90   ar
    15    83    81    1
    16    80    81    1
    17    11    10    1
    18    11    13   am
    19    91    93   ar
    20    94    95    1
    21    90    92   ar
    22    81    82    1
    23    10     9    1
    24    95    98    1
    25     9     6    1
    26    93    92   ar
    27    99    98    1
    28    98   100    1
    29     4     3    2
    30     6     5    1
    31     6     7    1
    32     3     5   am
    33     3     2    1
    34     1     2    1
    35     7     8    2
    36     7    14   am
    37    20    19   ar
    38    14    15    1
    39    70    71    2
    40    70    69    1
    41    19    18    1
    42    19    21   ar
    43    18    15    1
    44    66    65    2
    45    69    68    1
    46    69    72    1
    47    67    64    1
    48    15    16    1
    49    64    65    1
    50    64    63    1
    51    58    56    1
    52    74    73    2
    53    72    73    1
    54    57    56    1
    55    17    16    2
    56    16    22   am
    57    73    75   am
    58    56    55    1
    59    22    28    1
    60    22    23    1
    61    50    48    1
    62    28    27    1
    63    55    52    1
    64    25    24    2
    65    23    24    1
    66    23    26    1
    67    24    29   am
    68    52    51    1
    69    52    53    1
    70    48    47    1
    71    33    30    1
    72    27    26    1
    73    62    61    2
    74    61    60    1
    75    51    45   am
    76    29    30    1
    77    47    49    1
    78    47    44    1
    79    30    31    1
    80    41    40   ar
    81    53    54    2
    82    45    46    2
    83    45    44    1
    84    42    40   ar
    85    40    39    1
    86    60    59    1
    87    44    43    1
    88    39    38    1
    89    31    32    2
    90    38    35    1
    91    34    35    1
    92    35    36    1
    93    36    37    2
