@<TRIPOS>MOLECULE
tmp/5gnxA00.pdb
 141 142 0 0 0
SMALL
GASTEIGER

@<TRIPOS>ATOM
      1  N        -29.7910   38.7420    0.4880 N.3    21  GLN21      -0.1245
      2  CA       -29.1900   38.8250   -0.8360 C.3    21  GLN21       0.1566
      3  C        -29.8920   39.8510   -1.7260 C.2    21  GLN21       0.2260
      4  O        -29.2860   40.2910   -2.7130 O.2    21  GLN21      -0.2867
      5  CB       -29.1730   37.4680   -1.5360 C.3    21  GLN21       0.0367
      6  CG       -28.3950   36.4070   -0.7240 C.3    21  GLN21       0.0905
      7  CD       -28.3530   35.0760   -1.4110 C.2    21  GLN21       0.2608
      8  OE1      -29.1630   34.1700   -1.0780 O.2    21  GLN21      -0.2717
      9  NE2      -27.4310   34.9150   -2.3340 N.am   21  GLN21      -0.0878
     10  N        -32.7270   32.0470    6.5800 N.3   122  HIS122     -0.1226
     11  CA       -31.8130   31.9270    5.4690 C.3   122  HIS122      0.1752
     12  C        -30.5740   32.7600    5.8070 C.2   122  HIS122      0.2596
     13  O        -30.2140   33.6570    5.0810 O.2   122  HIS122     -0.2718
     14  CB       -32.5120   32.3550    4.1840 C.3   122  HIS122      0.0759
     15  CG       -31.8570   31.8790    2.9270 C.ar  122  HIS122      0.0818
     16  ND1      -32.5810   31.4000    1.8430 N.ar  122  HIS122     -0.2268
     17  CD2      -30.5730   31.8250    2.5620 C.ar  122  HIS122      0.1154
     18  CE1      -31.7470   31.0550    0.8870 C.ar  122  HIS122      0.1986
     19  NE2      -30.5200   31.3200    1.2900 N.ar  122  HIS122     -0.2212
     20  N        -29.9770   32.3930    6.9290 N.am  123  TRP123     -0.1976
     21  CA       -28.5810   32.6620    7.2900 C.3   123  TRP123      0.1640
     22  C        -28.2940   33.9740    8.0510 C.2   123  TRP123      0.2290
     23  O        -27.1490   34.1980    8.4210 O.2   123  TRP123     -0.2864
     24  CB       -27.6770   32.5660    6.0840 C.3   123  TRP123      0.0576
     25  CG       -27.7960   31.3160    5.2370 C.ar  123  TRP123      0.0006
     26  CD1      -28.6600   30.2710    5.3930 C.ar  123  TRP123      0.0946
     27  CD2      -27.0460   31.0390    4.0940 C.ar  123  TRP123      0.0152
     28  NE1      -28.4760   29.3500    4.3940 N.ar  123  TRP123     -0.2442
     29  CE2      -27.5000   29.8040    3.5680 C.ar  123  TRP123      0.0810
     30  CE3      -26.0310   31.7040    3.4370 C.ar  123  TRP123      0.0012
     31  CZ2      -26.9750   29.2650    2.4240 C.ar  123  TRP123      0.0191
     32  CZ3      -25.5020   31.1560    2.3500 C.ar  123  TRP123      0.0001
     33  CH2      -25.9760   29.9390    1.8330 C.ar  123  TRP123      0.0015
     34  N        -32.9760   26.9860    5.8780 N.3   166  ASN166     -0.1225
     35  CA       -32.4370   26.7910    4.5420 C.3   166  ASN166      0.1785
     36  C        -30.9990   26.2870    4.6120 C.2   166  ASN166      0.2597
     37  O        -30.1070   27.0190    5.0170 O.2   166  ASN166     -0.2718
     38  CB       -32.5150   28.0760    3.7440 C.3   166  ASN166      0.1169
     39  CG       -31.9820   27.9030    2.3330 C.2   166  ASN166      0.2627
     40  OD1      -32.6260   27.3140    1.5210 O.2   166  ASN166     -0.2716
     41  ND2      -30.7920   28.4020    2.0780 N.am  166  ASN166     -0.0877
     42  N        -30.7750   25.0310    4.2830 N.am  167  GLN167     -0.1979
     43  CA       -29.3970   24.4740    4.1540 C.3   167  GLN167      0.1601
     44  C        -28.5290   24.4920    5.4260 C.2   167  GLN167      0.2287
     45  O        -27.5490   25.2410    5.4890 O.2   167  GLN167     -0.2864
     46  CB       -28.6410   25.1490    3.0450 C.3   167  GLN167      0.0394
     47  CG       -29.3580   25.0410    1.7360 C.3   167  GLN167      0.0908
     48  CD       -28.7880   25.9530    0.7540 C.2   167  GLN167      0.2608
     49  OE1      -28.8910   27.1770    0.8970 O.2   167  GLN167     -0.2717
     50  NE2      -28.1910   25.4180   -0.2330 N.am  167  GLN167     -0.0878
     51  N        -32.2260   21.7000   -2.3100 N.3   292  ASN292     -0.1240
     52  CA       -31.3990   22.6380   -3.0430 C.3   292  ASN292      0.1653
     53  C        -30.3030   21.8890   -3.7260 C.2   292  ASN292      0.2266
     54  O        -29.5080   21.2090   -3.0740 O.2   292  ASN292     -0.2867
     55  CB       -30.7880   23.7030   -2.0860 C.3   292  ASN292      0.1155
     56  CG       -31.7970   24.6880   -1.4910 C.2   292  ASN292      0.2627
     57  OD1      -31.3670   25.5770   -0.7060 O.2   292  ASN292     -0.2716
     58  ND2      -33.0750   24.5660   -1.7980 N.am  292  ASN292     -0.0877
     59  N        -27.3430   21.8300   -7.1100 N.3   294  TYR294     -0.1241
     60  CA       -26.6330   22.5180   -8.2070 C.3   294  TYR294      0.1605
     61  C        -25.6630   21.6480   -8.9540 C.2   294  TYR294      0.2264
     62  O        -25.4550   21.8710  -10.1300 O.2   294  TYR294     -0.2867
     63  CB       -25.8600   23.7330   -7.6970 C.3   294  TYR294      0.0534
     64  CG       -26.7450   24.7660   -7.0810 C.ar  294  TYR294     -0.0201
     65  CD1      -27.2950   25.7590   -7.8450 C.ar  294  TYR294     -0.0009
     66  CD2      -27.0720   24.7230   -5.7330 C.ar  294  TYR294     -0.0009
     67  CE1      -28.1040   26.7340   -7.2860 C.ar  294  TYR294      0.0417
     68  CE2      -27.9060   25.7040   -5.1510 C.ar  294  TYR294      0.0417
     69  CZ       -28.4200   26.6950   -5.9580 C.ar  294  TYR294      0.1957
     70  OH       -29.2540   27.6680   -5.4900 O.3   294  TYR294     -0.2866
     71  N        -18.6970   25.1020  -10.6180 N.3   325  TRP325     -0.1241
     72  CA       -19.4530   23.8850  -10.3770 C.3   325  TRP325      0.1605
     73  C        -19.7210   23.1180  -11.6520 C.2   325  TRP325      0.2264
     74  O        -20.1980   23.6930  -12.6500 O.2   325  TRP325     -0.2867
     75  CB       -20.7860   24.1760   -9.6770 C.3   325  TRP325      0.0550
     76  CG       -20.6440   24.8410   -8.3750 C.ar  325  TRP325      0.0003
     77  CD1      -19.4980   24.9150   -7.6190 C.ar  325  TRP325      0.0946
     78  CD2      -21.6360   25.6070   -7.6760 C.ar  325  TRP325      0.0152
     79  NE1      -19.7440   25.6900   -6.4740 N.ar  325  TRP325     -0.2442
     80  CE2      -21.0480   26.0920   -6.4900 C.ar  325  TRP325      0.0810
     81  CE3      -22.9730   25.9100   -7.9350 C.ar  325  TRP325      0.0012
     82  CZ2      -21.7440   26.9160   -5.5860 C.ar  325  TRP325      0.0191
     83  CZ3      -23.6560   26.6880   -7.0410 C.ar  325  TRP325      0.0001
     84  CH2      -23.0420   27.1920   -5.8810 C.ar  325  TRP325      0.0015
     85  N        -34.3520   25.0970   -4.7240 N.3   353  GLU353     -0.1245
     86  CA       -33.3720   25.9090   -5.4360 C.3   353  GLU353      0.1567
     87  C        -32.6290   25.0750   -6.4460 C.2   353  GLU353      0.2260
     88  O        -32.1240   23.9910   -6.1210 O.2   353  GLU353     -0.2867
     89  CB       -32.3230   26.5310   -4.4800 C.3   353  GLU353      0.0388
     90  CG       -32.8340   27.5140   -3.4840 C.3   353  GLU353      0.1160
     91  CD       -31.6970   28.0920   -2.6600 C.2   353  GLU353      0.3649
     92  OE1      -30.5070   27.9610   -3.0920 O.co2 353  GLU353     -0.2457
     93  OE2      -31.9620   28.6250   -1.5970 O.co2 353  GLU353     -0.2457
     94  N        -33.4450   29.0920   -8.6960 N.3   401  TRP401     -0.1241
     95  CA       -32.5440   30.0520   -7.9930 C.3   401  TRP401      0.1605
     96  C        -31.8020   30.8010   -9.0840 C.2   401  TRP401      0.2264
     97  O        -30.9930   30.1700   -9.7950 O.2   401  TRP401     -0.2867
     98  CB       -31.5570   29.3910   -7.0460 C.3   401  TRP401      0.0550
     99  CG       -30.7580   30.4160   -6.3440 C.ar  401  TRP401      0.0003
    100  CD1      -29.5610   30.9280   -6.7230 C.ar  401  TRP401      0.0946
    101  CD2      -31.1570   31.1350   -5.1880 C.ar  401  TRP401      0.0152
    102  NE1      -29.1910   31.9460   -5.8950 N.ar  401  TRP401     -0.2442
    103  CE2      -30.1320   32.0850   -4.9100 C.ar  401  TRP401      0.0810
    104  CE3      -32.2600   31.0650   -4.3360 C.ar  401  TRP401      0.0012
    105  CZ2      -30.2080   32.9710   -3.8330 C.ar  401  TRP401      0.0191
    106  CZ3      -32.3200   31.9580   -3.2270 C.ar  401  TRP401      0.0001
    107  CH2      -31.2910   32.8640   -2.9850 C.ar  401  TRP401      0.0015
    108  N        -24.1710   37.2820   -3.9270 N.3   408  GLU408     -0.1231
    109  CA       -23.8400   35.8700   -3.6900 C.3   408  GLU408      0.1699
    110  C        -22.9420   35.7790   -2.4590 C.2   408  GLU408      0.2592
    111  O        -21.7700   35.4170   -2.5460 O.2   408  GLU408     -0.2718
    112  CB       -23.1560   35.2450   -4.9030 C.3   408  GLU408      0.0402
    113  CG       -22.8470   33.7380   -4.7340 C.3   408  GLU408      0.1161
    114  CD       -23.9990   32.8720   -4.2580 C.2   408  GLU408      0.3649
    115  OE1      -25.1930   33.1380   -4.5620 O.co2 408  GLU408     -0.2457
    116  OE2      -23.7270   31.8520   -3.5510 O.co2 408  GLU408     -0.2457
    117  N        -23.4920   36.2100   -1.3290 N.am  409  TRP409     -0.1976
    118  CA       -22.7580   36.1320   -0.0480 C.3   409  TRP409      0.1640
    119  C        -21.3250   36.6550   -0.2000 C.2   409  TRP409      0.2290
    120  O        -21.1240   37.7840   -0.7030 O.2   409  TRP409     -0.2864
    121  CB       -22.8430   34.7370    0.5450 C.3   409  TRP409      0.0576
    122  CG       -24.3050   34.2810    0.6280 C.ar  409  TRP409      0.0006
    123  CD1      -24.9480   33.3670   -0.1880 C.ar  409  TRP409      0.0946
    124  CD2      -25.2960   34.7540    1.5480 C.ar  409  TRP409      0.0152
    125  NE1      -26.2660   33.2570    0.1690 N.ar  409  TRP409     -0.2442
    126  CE2      -26.5250   34.0970    1.2130 C.ar  409  TRP409      0.0810
    127  CE3      -25.2910   35.6980    2.5730 C.ar  409  TRP409      0.0012
    128  CZ2      -27.7290   34.3160    1.9290 C.ar  409  TRP409      0.0191
    129  CZ3      -26.4780   35.9340    3.2860 C.ar  409  TRP409      0.0001
    130  CH2      -27.6910   35.2360    2.9600 C.ar  409  TRP409      0.0015
    131  N        -26.8630   34.5970  -10.5080 N.3   417  PHE417     -0.1241
    132  CA       -27.7540   33.4630  -10.6450 C.3   417  PHE417      0.1605
    133  C        -29.1400   33.8250  -11.1620 C.2   417  PHE417      0.2264
    134  O        -29.9900   32.9540  -11.3140 O.2   417  PHE417     -0.2867
    135  CB       -27.9190   32.7360   -9.3370 C.3   417  PHE417      0.0534
    136  CG       -26.7710   31.8510   -8.9540 C.ar  417  PHE417     -0.0203
    137  CD1      -25.6910   32.3710   -8.2420 C.ar  417  PHE417     -0.0042
    138  CD2      -26.8210   30.4780   -9.1900 C.ar  417  PHE417     -0.0042
    139  CE1      -24.6580   31.5500   -7.8310 C.ar  417  PHE417     -0.0003
    140  CE2      -25.8000   29.6370   -8.7820 C.ar  417  PHE417     -0.0003
    141  CZ       -24.7150   30.1830   -8.0680 C.ar  417  PHE417     -0.0000
@<TRIPOS>BOND
     1    74    73    2
     2    73    72    1
     3   134   133    2
     4   133   132    1
     5   132   131    1
     6   132   135    1
     7    71    72    1
     8    72    75    1
     9    62    61    2
    10    97    96    2
    11    75    76    1
    12   135   136    1
    13   138   136   ar
    14   138   140   ar
    15    96    95    1
    16    61    60    1
    17   136   137   ar
    18   140   141   ar
    19    94    95    1
    20    76    78   ar
    21    76    77   ar
    22   137   139   ar
    23    60    63    1
    24    60    59    1
    25   141   139   ar
    26    95    98    1
    27    81    78   ar
    28    81    83   ar
    29    65    67   ar
    30    65    64   ar
    31    63    64    1
    32    78    80   ar
    33    77    79   ar
    34    67    69   ar
    35    64    66   ar
    36    98    99    1
    37    83    84   ar
    38   100    99   ar
    39   100   102   ar
    40    80    79   ar
    41    80    82   ar
    42    87    88    2
    43    87    86    1
    44    99   101   ar
    45    69    70    1
    46    69    68   ar
    47   102   103   ar
    48    84    82   ar
    49    66    68   ar
    50    86    85    1
    51    86    89    1
    52   101   103   ar
    53   101   104   ar
    54   103   105   ar
    55   112   113    1
    56   112   109    1
    57   113   114    1
    58   115   114   ar
    59    89    90    1
    60   104   106   ar
    61   114   116   ar
    62   108   109    1
    63   105   107   ar
    64    53    54    2
    65    53    52    1
    66   109   110    1
    67    90    91    1
    68   106   107   ar
    69    92    91   ar
    70    52    51    1
    71    52    55    1
    72     4     3    2
    73    91    93   ar
    74   111   110    2
    75   110   117   am
    76     9     7   am
    77    55    56    1
    78    58    56   am
    79     3     2    1
    80     5     2    1
    81     5     6    1
    82    56    57    2
    83     7     8    2
    84     7     6    1
    85   117   118    1
    86     2     1    1
    87   120   119    2
    88    50    48   am
    89   119   118    1
    90   123   125   ar
    91   123   122   ar
    92   118   121    1
    93   125   126   ar
    94   121   122    1
    95   122   124   ar
    96    48    49    2
    97    48    47    1
    98    18    19   ar
    99    18    16   ar
   100   126   124   ar
   101   126   128   ar
   102    19    17   ar
   103    40    39    2
   104   124   127   ar
   105    47    46    1
   106    33    32   ar
   107    33    31   ar
   108    16    15   ar
   109   128   130   ar
   110    41    39   am
   111    39    38    1
   112    32    30   ar
   113    31    29   ar
   114    17    15   ar
   115   127   129   ar
   116    15    14    1
   117   130   129   ar
   118    46    43    1
   119    30    27   ar
   120    29    27   ar
   121    29    28   ar
   122    38    35    1
   123    27    25   ar
   124    43    42    1
   125    43    44    1
   126    14    11    1
   127    42    36   am
   128    28    26   ar
   129    35    36    1
   130    35    34    1
   131    36    37    2
   132    13    12    2
   133    25    26   ar
   134    25    24    1
   135    44    45    2
   136    11    12    1
   137    11    10    1
   138    12    20   am
   139    24    21    1
   140    20    21    1
   141    21    22    1
   142    22    23    2
