@<TRIPOS>MOLECULE
tmp/5go2B00.pdb
 125 117 0 0 0
SMALL
GASTEIGER

@<TRIPOS>ATOM
      1  N          6.6860    6.0080    4.6530 N.3    27  ARG27      -0.1245
      2  CA         7.6830    5.5730    3.6940 C.3    27  ARG27       0.1563
      3  C          8.0110    6.6920    2.7170 C.2    27  ARG27       0.2260
      4  O          9.1630    6.8550    2.3080 O.2    27  ARG27      -0.2867
      5  CB         7.1850    4.3160    2.9670 C.3    27  ARG27       0.0307
      6  CG         8.2070    3.7100    2.0080 C.3    27  ARG27       0.0489
      7  CD         7.5440    2.8040    0.9510 C.3    27  ARG27       0.2205
      8  NE         8.5590    2.2970    0.0360 N.pl3  27  ARG27      -0.0865
      9  CZ         8.9670    2.9670   -1.0380 C.cat  27  ARG27       0.5346
     10  NH1        8.4210    4.1510   -1.3380 N.pl3  27  ARG27       0.1354
     11  NH2        9.9120    2.4600   -1.8130 N.pl3  27  ARG27       0.1354
     12  N         11.8930    7.9150    1.9000 N.3    31  VAL31      -0.1245
     13  CA        12.5690    7.9820    0.6070 C.3    31  VAL31       0.1561
     14  C         12.7320    9.4120    0.1150 C.2    31  VAL31       0.2260
     15  O         13.6050    9.6650   -0.7100 O.2    31  VAL31      -0.2867
     16  CB        11.8770    7.1160   -0.4750 C.3    31  VAL31       0.0252
     17  CG1       11.7040    5.7090    0.0230 C.3    31  VAL31       0.0019
     18  CG2       10.5310    7.7230   -0.9600 C.3    31  VAL31       0.0019
     19  N         16.1080   10.0990    1.5810 N.3    34  ILE34      -0.1245
     20  CA        17.1260    9.4610    0.7500 C.3    34  ILE34       0.1561
     21  C         17.3270   10.2750   -0.5200 C.2    34  ILE34       0.2260
     22  O         18.4600   10.5600   -0.9270 O.2    34  ILE34      -0.2867
     23  CB        16.7430    7.9960    0.4510 C.3    34  ILE34       0.0252
     24  CG1       16.5110    7.2330    1.7730 C.3    34  ILE34       0.0019
     25  CG2       17.8250    7.3360   -0.3960 C.3    34  ILE34       0.0019
     26  CD1       15.9110    5.8260    1.6250 C.3    34  ILE34       0.0001
     27  N         20.8110   11.8440   -2.2690 N.3    38  LYS38      -0.1245
     28  CA        21.2520   11.5810   -3.6400 C.3    38  LYS38       0.1561
     29  C         21.3940   12.8840   -4.4140 C.2    38  LYS38       0.2260
     30  O         22.4060   13.1170   -5.0870 O.2    38  LYS38      -0.2867
     31  CB        20.2840   10.6210   -4.3360 C.3    38  LYS38       0.0271
     32  CG        20.2510    9.2300   -3.6780 C.3    38  LYS38       0.0035
     33  CD        19.2570    8.2670   -4.3370 C.3    38  LYS38       0.0206
     34  CE        17.7990    8.7400   -4.1680 C.3    38  LYS38       0.1093
     35  NZ        16.7920    7.6670   -4.5740 N.3    38  LYS38      -0.1314
     36  N         18.4720    9.5990   -8.9960 N.3    45  ARG45      -0.1231
     37  CA        17.4810    9.1880   -7.9940 C.3    45  ARG45       0.1694
     38  C         16.9740    7.7720   -8.2390 C.2    45  ARG45       0.2592
     39  O         16.6420    7.0610   -7.2840 O.2    45  ARG45      -0.2718
     40  CB        16.2630   10.1220   -7.9700 C.3    45  ARG45       0.0321
     41  CG        16.5580   11.5860   -7.9170 C.3    45  ARG45       0.0489
     42  CD        17.3190   11.9990   -6.6680 C.3    45  ARG45       0.2205
     43  NE        17.3720   13.4560   -6.6270 N.pl3  45  ARG45      -0.0865
     44  CZ        18.2360   14.1910   -7.3140 C.cat  45  ARG45       0.5346
     45  NH1       19.1490   13.6050   -8.0830 N.pl3  45  ARG45       0.1354
     46  NH2       18.1850   15.5160   -7.2310 N.pl3  45  ARG45       0.1354
     47  N         16.8690    7.3590   -9.4950 N.am   46  PHE46      -0.1962
     48  CA        16.3670    6.0270   -9.8050 C.3    46  PHE46       0.1771
     49  C         17.4870    5.0120   -9.6380 C.2    46  PHE46       0.2619
     50  O         18.5320    5.1240  -10.2920 O.2    46  PHE46      -0.2715
     51  CB        15.8110    5.9940  -11.2220 C.3    46  PHE46       0.0574
     52  CG        15.3680    4.6320  -11.6650 C.ar   46  PHE46      -0.0200
     53  CD1       14.5570    3.8580  -10.8610 C.ar   46  PHE46      -0.0042
     54  CD2       15.7590    4.1250  -12.9040 C.ar   46  PHE46      -0.0042
     55  CE1       14.1330    2.6080  -11.2750 C.ar   46  PHE46      -0.0003
     56  CE2       15.3440    2.8730  -13.3210 C.ar   46  PHE46      -0.0003
     57  CZ        14.5270    2.1120  -12.5020 C.ar   46  PHE46      -0.0000
     58  N         17.2660    4.0240   -8.7680 N.am   47  ASP47      -0.1971
     59  CA        18.2530    2.9920   -8.4350 C.3    47  ASP47       0.1709
     60  C         17.5630    1.6520   -8.6530 C.2    47  ASP47       0.2293
     61  O         16.9180    1.1170   -7.7410 O.2    47  ASP47      -0.2864
     62  CB        18.7560    3.1560   -6.9910 C.3    47  ASP47       0.1436
     63  CG        19.8140    2.1260   -6.6010 C.2    47  ASP47       0.3671
     64  OD1       20.0490    1.1900   -7.3920 O.co2  47  ASP47      -0.2456
     65  OD2       20.4010    2.2410   -5.4890 O.co2  47  ASP47      -0.2456
     66  N         18.3800   -1.1810   -6.1880 N.3    50  ARG50      -0.1231
     67  CA        17.6750   -1.0490   -4.9180 C.3    50  ARG50       0.1694
     68  C         16.2040   -1.4560   -5.0410 C.2    50  ARG50       0.2591
     69  O         15.6560   -2.1080   -4.1410 O.2    50  ARG50      -0.2718
     70  CB        17.8100    0.4030   -4.4180 C.3    50  ARG50       0.0321
     71  CG        16.8850    0.8100   -3.2480 C.3    50  ARG50       0.0489
     72  CD        17.2580    0.1050   -1.9280 C.3    50  ARG50       0.2205
     73  NE        16.3040    0.4890   -0.8900 N.pl3  50  ARG50      -0.0865
     74  CZ        16.0940   -0.1970    0.2250 C.cat  50  ARG50       0.5346
     75  NH1       16.7880   -1.3060    0.4630 N.pl3  50  ARG50       0.1354
     76  NH2       15.2030    0.2360    1.1080 N.pl3  50  ARG50       0.1354
     77  N         15.5250   -1.0520   -6.1250 N.am   51  GLU51      -0.1979
     78  CA        14.1280   -1.4520   -6.2610 C.3    51  GLU51       0.1602
     79  C         14.0100   -2.9680   -6.3670 C.2    51  GLU51       0.2287
     80  O         13.1040   -3.5760   -5.7800 O.2    51  GLU51      -0.2864
     81  CB        13.4830   -0.7740   -7.4690 C.3    51  GLU51       0.0415
     82  CG        13.2320    0.7070   -7.2400 C.3    51  GLU51       0.1163
     83  CD        12.3100    1.3130   -8.2890 C.2    51  GLU51       0.3649
     84  OE1       11.9540    0.6150   -9.2610 O.co2  51  GLU51      -0.2457
     85  OE2       11.9360    2.4870   -8.1260 O.co2  51  GLU51      -0.2457
     86  N         14.4170   -4.3790   -2.8700 N.3    54  MET54      -0.1245
     87  CA        13.1950   -4.2010   -2.0870 C.3    54  MET54       0.1570
     88  C         12.1380   -5.2220   -2.4910 C.2    54  MET54       0.2261
     89  O         11.4970   -5.8510   -1.6350 O.2    54  MET54      -0.2867
     90  CB        12.6520   -2.7700   -2.2610 C.3    54  MET54       0.0387
     91  CG        13.4670   -1.6740   -1.5690 C.3    54  MET54       0.0595
     92  SD        12.6790   -0.0400   -1.7400 S.3    54  MET54      -0.1393
     93  CE        12.7820    0.1900   -3.5240 C.3    54  MET54       0.0692
     94  N          6.4770    2.5090   -5.3610 N.3    79  PHE79      -0.1241
     95  CA         7.8530    2.9210   -5.6250 C.3    79  PHE79       0.1605
     96  C          7.8740    4.0940   -6.5770 C.2    79  PHE79       0.2264
     97  O          8.5860    5.0800   -6.3580 O.2    79  PHE79      -0.2867
     98  CB         8.6750    1.7800   -6.2550 C.3    79  PHE79       0.0534
     99  CG         8.8890    0.5910   -5.3750 C.ar   79  PHE79      -0.0203
    100  CD1        8.5560    0.6040   -4.0360 C.ar   79  PHE79      -0.0042
    101  CD2        9.4880   -0.5510   -5.9050 C.ar   79  PHE79      -0.0042
    102  CE1        8.7850   -0.5240   -3.2360 C.ar   79  PHE79      -0.0003
    103  CE2        9.7240   -1.6760   -5.1180 C.ar   79  PHE79      -0.0003
    104  CZ         9.3730   -1.6670   -3.7900 C.ar   79  PHE79      -0.0000
    105  N          6.9600    7.3900   -4.8490 N.3    82  GLY82      -0.1210
    106  CA         8.0450    7.9340   -4.0370 C.3    82  GLY82       0.1956
    107  C          9.1980    8.4680   -4.8750 C.2    82  GLY82       0.2611
    108  O          9.8050    9.5040   -4.5520 O.2    82  GLY82      -0.2717
    109  N          9.5160    7.7660   -5.9610 N.am   83  LEU83      -0.1979
    110  CA        10.5870    8.1900   -6.8610 C.3    83  LEU83       0.1596
    111  C         10.2430    9.5140   -7.5370 C.2    83  LEU83       0.2287
    112  O         11.0840   10.4150   -7.6460 O.2    83  LEU83      -0.2864
    113  CB        10.8400    7.0920   -7.9000 C.3    83  LEU83       0.0297
    114  CG        11.8630    7.3360   -9.0090 C.3    83  LEU83       0.0022
    115  CD1       13.2420    7.6740   -8.4450 C.3    83  LEU83       0.0001
    116  CD2       11.9200    6.1200   -9.9200 C.3    83  LEU83       0.0001
    117  N         10.9770   12.2100   -5.2580 N.3    86  GLN86      -0.1245
    118  CA        12.3840   12.6080   -5.1820 C.3    86  GLN86       0.1566
    119  C         12.8390   13.3790   -6.4140 C.2    86  GLN86       0.2260
    120  O         13.7470   14.2160   -6.3150 O.2    86  GLN86      -0.2867
    121  CB        13.2890   11.3890   -4.9930 C.3    86  GLN86       0.0367
    122  CG        13.0460   10.6490   -3.7050 C.3    86  GLN86       0.0905
    123  CD        13.5460    9.2300   -3.7930 C.2    86  GLN86       0.2608
    124  OE1       14.7550    8.9840   -3.8200 O.2    86  GLN86      -0.2717
    125  NE2       12.6160    8.2840   -3.8790 N.am   86  GLN86      -0.0878
@<TRIPOS>BOND
     1    56    54   ar
     2    56    57   ar
     3    54    52   ar
     4    57    55   ar
     5    52    51    1
     6    52    53   ar
     7    55    53   ar
     8    51    48    1
     9    50    49    2
    10   116   114    1
    11    48    49    1
    12    48    47    1
    13    49    58   am
    14    47    38   am
    15    84    83   ar
    16   114   115    1
    17   114   113    1
    18    36    37    1
    19    58    59    1
    20    60    59    1
    21    60    61    2
    22    59    62    1
    23    83    85   ar
    24    83    82    1
    25    38    37    1
    26    38    39    2
    27    45    44    1
    28    37    40    1
    29    40    41    1
    30    41    42    1
    31   113   110    1
    32   112   111    2
    33   111   110    1
    34    81    82    1
    35    81    78    1
    36    64    63   ar
    37    44    46    1
    38    44    43    2
    39    62    63    1
    40   110   109    1
    41    42    43    1
    42    63    65   ar
    43    96    97    2
    44    96    95    1
    45   119   120    2
    46   119   118    1
    47    79    78    1
    48    79    80    2
    49    78    77    1
    50    98    95    1
    51    98    99    1
    52    66    67    1
    53    77    68   am
    54   109   107   am
    55   101    99   ar
    56   101   103   ar
    57    95    94    1
    58    99   100   ar
    59   117   118    1
    60   118   121    1
    61   103   104   ar
    62    30    29    2
    63    68    67    1
    64    68    69    2
    65   121   122    1
    66    67    70    1
    67   107   108    2
    68   107   106    1
    69   105   106    1
    70    35    34    1
    71    70    71    1
    72    29    28    1
    73    33    34    1
    74    33    32    1
    75    31    32    1
    76    31    28    1
    77   100   102   ar
    78   125   123   am
    79   124   123    2
    80   123   122    1
    81   104   102   ar
    82    28    27    1
    83    93    92    1
    84    71    72    1
    85    86    87    1
    86    88    87    1
    87    88    89    2
    88    90    87    1
    89    90    91    1
    90    72    73    1
    91    11     9    1
    92    92    91    1
    93    10     9    1
    94     9     8    2
    95    18    16    1
    96    22    21    2
    97    73    74    2
    98    15    14    2
    99    21    20    1
   100    16    17    1
   101    16    13    1
   102    25    23    1
   103     8     7    1
   104    14    13    1
   105    74    75    1
   106    74    76    1
   107    23    20    1
   108    23    24    1
   109    13    12    1
   110    20    19    1
   111     7     6    1
   112    26    24    1
   113     6     5    1
   114     4     3    2
   115     3     2    1
   116     5     2    1
   117     2     1    1
