@<TRIPOS>MOLECULE
tmp/5goeA00.pdb
 139 133 0 0 0
SMALL
GASTEIGER

@<TRIPOS>ATOM
      1  N         11.8050  -13.5300   26.3640 N.3    81  THR81      -0.1203
      2  CA        10.5240  -13.4550   27.0470 C.3    81  THR81       0.1994
      3  C         10.7590  -13.2290   28.5360 C.2    81  THR81       0.2619
      4  O         11.6650  -13.8180   29.1260 O.2    81  THR81      -0.2717
      5  CB         9.7260  -14.7470   26.8250 C.3    81  THR81       0.1784
      6  OG1        9.7080  -15.0640   25.4290 O.3    81  THR81      -0.2211
      7  CG2        8.2930  -14.5810   27.3090 C.3    81  THR81       0.0376
      8  N          9.9630  -12.3370   29.1210 N.am   82  SER82      -0.1937
      9  CA         9.9830  -11.9970   30.5440 C.3    82  SER82       0.2055
     10  C         11.2360  -11.2410   30.9690 C.2    82  SER82       0.2644
     11  O         11.4910  -11.1150   32.1730 O.2    82  SER82      -0.2714
     12  CB         9.8220  -13.2330   31.4370 C.3    82  SER82       0.2130
     13  OG         8.5750  -13.8740   31.2190 O.3    82  SER82      -0.2179
     14  N         12.0380  -10.7430   30.0250 N.am   83  SER83      -0.1935
     15  CA        13.1310   -9.8590   30.4050 C.3    83  SER83       0.2055
     16  C         12.6000   -8.5230   30.9000 C.2    83  SER83       0.2644
     17  O         13.2310   -7.8820   31.7480 O.2    83  SER83      -0.2714
     18  CB        14.0850   -9.6480   29.2290 C.3    83  SER83       0.2130
     19  OG        13.4260   -9.0600   28.1210 O.3    83  SER83      -0.2179
     20  N         11.4450   -8.1010   30.3970 N.am   84  GLY84      -0.1939
     21  CA        10.8150   -6.8750   30.8480 C.3    84  GLY84       0.2014
     22  C         10.5690   -5.8440   29.7720 C.2    84  GLY84       0.2639
     23  O         10.4660   -4.6540   30.0890 O.2    84  GLY84      -0.2714
     24  N         10.4550   -6.2630   28.5030 N.am   85  LYS85      -0.1963
     25  CA        10.2540   -5.3030   27.4170 C.3    85  LYS85       0.1728
     26  C          8.9710   -4.4930   27.6040 C.2    85  LYS85       0.2617
     27  O          8.9790   -3.2620   27.4840 O.2    85  LYS85      -0.2715
     28  CB        10.2120   -6.0200   26.0630 C.3    85  LYS85       0.0311
     29  CG        11.4730   -6.7900   25.6830 C.3    85  LYS85       0.0038
     30  CD        11.3190   -7.4920   24.3280 C.3    85  LYS85       0.0206
     31  CE        10.2780   -8.6200   24.3640 C.3    85  LYS85       0.1093
     32  NZ        10.5300   -9.6520   25.4150 N.3    85  LYS85      -0.1314
     33  N          7.8380   -5.1750   27.8180 N.am   86  SER86      -0.1936
     34  CA         6.5790   -4.4550   28.0010 C.3    86  SER86       0.2055
     35  C          6.6490   -3.5230   29.2040 C.2    86  SER86       0.2643
     36  O          6.0820   -2.4260   29.1820 O.2    86  SER86      -0.2714
     37  CB         5.4200   -5.4430   28.1880 C.3    86  SER86       0.2130
     38  OG         5.3790   -6.4040   27.1520 O.3    86  SER86      -0.2179
     39  N          7.3040   -3.9690   30.2820 N.am   87  SER87      -0.1949
     40  CA         7.3720   -3.1520   31.4920 C.3    87  SER87       0.1924
     41  C          8.2190   -1.8960   31.2680 C.2    87  SER87       0.2314
     42  O          7.8960   -0.8230   31.8040 O.2    87  SER87      -0.2863
     43  CB         7.9230   -3.9860   32.6460 C.3    87  SER87       0.2116
     44  OG         7.0370   -5.0590   32.9810 O.3    87  SER87      -0.2180
     45  N          0.2810    1.5860   32.5250 N.3    96  LYS96      -0.1245
     46  CA         0.1860    0.1970   32.0790 C.3    96  LYS96       0.1561
     47  C         -0.5350    0.1480   30.7300 C.2    96  LYS96       0.2260
     48  O         -1.7030   -0.2240   30.6180 O.2    96  LYS96      -0.2867
     49  CB        -0.5340   -0.6470   33.1200 C.3    96  LYS96       0.0271
     50  CG        -0.4080   -2.1380   32.8900 C.3    96  LYS96       0.0035
     51  CD         0.9760   -2.6080   33.2660 C.3    96  LYS96       0.0206
     52  CE         0.9160   -3.8360   34.1550 C.3    96  LYS96       0.1093
     53  NZ         2.2780   -4.2300   34.6130 N.3    96  LYS96      -0.1314
     54  N          1.3340   -9.7520   31.4210 N.3   101  GLY101     -0.1210
     55  CA         1.4810  -11.0320   30.7580 C.3   101  GLY101      0.1956
     56  C          1.3500  -10.9980   29.2540 C.2   101  GLY101      0.2612
     57  O          1.3060  -12.0600   28.6260 O.2   101  GLY101     -0.2717
     58  N          1.2790   -9.8090   28.6520 N.am  102  ILE102     -0.1965
     59  CA         1.1900   -9.7340   27.1990 C.3   102  ILE102      0.1727
     60  C          2.4130  -10.3830   26.5560 C.2   102  ILE102      0.2617
     61  O          2.3050  -11.0110   25.4950 O.2   102  ILE102     -0.2715
     62  CB         0.9930   -8.2650   26.7530 C.3   102  ILE102      0.0290
     63  CG1        0.6180   -8.1860   25.2690 C.3   102  ILE102      0.0022
     64  CG2        2.2260   -7.4110   27.0740 C.3   102  ILE102      0.0023
     65  CD1       -0.7290   -8.7770   24.9540 C.3   102  ILE102      0.0001
     66  N          3.5790  -10.2900   27.2050 N.am  103  GLY103     -0.1940
     67  CA         4.7830  -10.9160   26.6800 C.3   103  GLY103      0.2014
     68  C          4.7060  -12.4250   26.6010 C.2   103  GLY103      0.2638
     69  O          5.4120  -13.0270   25.7850 O.2   103  GLY103     -0.2714
     70  N          3.8600  -13.0480   27.4260 N.am  104  HIS104     -0.1973
     71  CA         3.6860  -14.4940   27.3650 C.3   104  HIS104      0.1656
     72  C          3.0300  -14.9190   26.0580 C.2   104  HIS104      0.2291
     73  O          3.4060  -15.9400   25.4730 O.2   104  HIS104     -0.2864
     74  CB         2.8420  -14.9830   28.5470 C.3   104  HIS104      0.0771
     75  CG         3.5080  -14.8450   29.8810 C.ar  104  HIS104      0.0820
     76  ND1        4.7370  -15.4020   30.1660 N.ar  104  HIS104     -0.2267
     77  CD2        3.0990  -14.2360   31.0200 C.ar  104  HIS104      0.1154
     78  CE1        5.0620  -15.1280   31.4180 C.ar  104  HIS104      0.1986
     79  NE2        4.0850  -14.4220   31.9570 N.ar  104  HIS104     -0.2212
     80  N          7.2760   -3.0420   20.6120 N.3   164  ASP164     -0.1239
     81  CA         7.5450   -4.2300   21.4080 C.3   164  ASP164      0.1674
     82  C          7.6140   -5.4180   20.4540 C.2   164  ASP164      0.2266
     83  O          6.7440   -5.5820   19.6000 O.2   164  ASP164     -0.2867
     84  CB         6.4270   -4.4060   22.4440 C.3   164  ASP164      0.1410
     85  CG         6.7440   -5.4390   23.5000 C.2   164  ASP164      0.3668
     86  OD1        7.8890   -5.9370   23.5350 O.co2 164  ASP164     -0.2456
     87  OD2        5.8290   -5.7440   24.2900 O.co2 164  ASP164     -0.2456
     88  N         17.6520   -5.1290   33.1640 N.3   220  ASN220     -0.1225
     89  CA        16.4180   -4.9410   33.9150 C.3   220  ASN220      0.1785
     90  C         16.3730   -5.8920   35.1100 C.2   220  ASN220      0.2597
     91  O         17.2060   -6.7960   35.2540 O.2   220  ASN220     -0.2718
     92  CB        15.2110   -5.1530   32.9900 C.3   220  ASN220      0.1169
     93  CG        13.8970   -4.7300   33.6200 C.2   220  ASN220      0.2627
     94  OD1       12.8900   -5.4400   33.5350 O.2   220  ASN220     -0.2716
     95  ND2       13.9140   -3.5980   34.3010 N.am  220  ASN220     -0.0877
     96  N         15.3930   -5.6670   35.9890 N.am  221  ARG221     -0.1979
     97  CA        15.1940   -6.4480   37.2130 C.3   221  ARG221      0.1597
     98  C         16.3420   -6.2480   38.2030 C.2   221  ARG221      0.2287
     99  O         16.6380   -7.1290   39.0170 O.2   221  ARG221     -0.2864
    100  CB        14.9970   -7.9460   36.9170 C.3   221  ARG221      0.0334
    101  CG        13.9870   -8.2450   35.7920 C.3   221  ARG221      0.0492
    102  CD        13.8060   -9.7530   35.5500 C.3   221  ARG221      0.2205
    103  NE        13.2010  -10.4230   36.6960 N.pl3 221  ARG221     -0.0865
    104  CZ        11.9100  -10.7390   36.7860 C.cat 221  ARG221      0.5346
    105  NH1       11.4420  -11.3400   37.8750 N.pl3 221  ARG221      0.1354
    106  NH2       11.0870  -10.4610   35.7840 N.pl3 221  ARG221      0.1354
    107  N         16.4010   -4.5240   40.7310 N.3   223  ASP223     -0.1225
    108  CA        15.9120   -4.5240   42.1060 C.3   223  ASP223      0.1805
    109  C         16.1450   -5.8650   42.7920 C.2   223  ASP223      0.2597
    110  O         16.1230   -5.9400   44.0290 O.2   223  ASP223     -0.2718
    111  CB        14.4180   -4.1890   42.1200 C.3   223  ASP223      0.1424
    112  CG        13.6090   -5.1630   41.2810 C.2   223  ASP223      0.3668
    113  OD1       13.7710   -5.1470   40.0510 O.co2 223  ASP223     -0.2456
    114  OD2       12.8290   -5.9590   41.8410 O.co2 223  ASP223     -0.2456
    115  N         16.3640   -6.9260   42.0130 N.am  224  ALA224     -0.1979
    116  CA        16.5550   -8.2550   42.5750 C.3   224  ALA224      0.1597
    117  C         17.8050   -8.3640   43.4450 C.2   224  ALA224      0.2287
    118  O         17.9010   -9.3070   44.2350 O.2   224  ALA224     -0.2864
    119  CB        16.6150   -9.2940   41.4530 C.3   224  ALA224      0.0319
    120  N         15.1890   -1.0550   37.2050 N.3   267  SER267     -0.1202
    121  CA        14.0110   -1.8500   37.5350 C.3   267  SER267      0.2020
    122  C         12.7940   -1.1700   36.9150 C.2   267  SER267      0.2619
    123  O         12.2690   -0.2000   37.4680 O.2   267  SER267     -0.2717
    124  CB        13.8500   -1.9920   39.0430 C.3   267  SER267      0.2103
    125  OG        12.6090   -2.6070   39.3820 O.3   267  SER267     -0.2182
    126  N         12.3390   -1.6840   35.7710 N.am  268  ALA268     -0.1965
    127  CA        11.1560   -1.1050   35.1360 C.3   268  ALA268      0.1728
    128  C          9.9190   -1.2480   36.0140 C.2   268  ALA268      0.2616
    129  O          9.0230   -0.3920   35.9720 O.2   268  ALA268     -0.2715
    130  CB        10.9150   -1.7650   33.7760 C.3   268  ALA268      0.0334
    131  N          9.8390   -2.3290   36.7910 N.am  269  LYS269     -0.1977
    132  CA         8.7080   -2.5150   37.7000 C.3   269  LYS269      0.1596
    133  C          8.6520   -1.4060   38.7490 C.2   269  LYS269      0.2287
    134  O          7.5950   -0.7970   38.9620 O.2   269  LYS269     -0.2864
    135  CB         8.7880   -3.8910   38.3570 C.3   269  LYS269      0.0298
    136  CG         7.5520   -4.2810   39.1830 C.3   269  LYS269      0.0038
    137  CD         7.6380   -5.7580   39.5540 C.3   269  LYS269      0.0206
    138  CE         6.3560   -6.2690   40.1920 C.3   269  LYS269      0.1093
    139  NZ         6.4210   -7.7390   40.4240 N.3   269  LYS269     -0.1314
@<TRIPOS>BOND
     1    83    82    2
     2    82    81    1
     3    80    81    1
     4    81    84    1
     5    84    85    1
     6    85    86   ar
     7    85    87   ar
     8    30    31    1
     9    30    29    1
    10    31    32    1
    11    65    63    1
    12    63    62    1
    13     6     5    1
    14    73    72    2
    15    61    60    2
    16    29    28    1
    17    69    68    2
    18    72    71    1
    19    28    25    1
    20     1     2    1
    21    60    59    1
    22    60    66   am
    23    68    67    1
    24    68    70   am
    25    67    66    1
    26    62    64    1
    27    62    59    1
    28     5     2    1
    29     5     7    1
    30     2     3    1
    31    38    37    1
    32    59    58    1
    33    71    70    1
    34    71    74    1
    35    25    26    1
    36    25    24    1
    37    27    26    2
    38    26    33   am
    39    33    34    1
    40    34    37    1
    41    34    35    1
    42    19    18    1
    43    24    22   am
    44     3     8   am
    45     3     4    2
    46    74    75    1
    47    57    56    2
    48    58    56   am
    49     8     9    1
    50    36    35    2
    51    35    39   am
    52    18    15    1
    53    56    55    1
    54    22    23    2
    55    22    21    1
    56    75    76   ar
    57    75    77   ar
    58    14    15    1
    59    14    10   am
    60    76    78   ar
    61    39    40    1
    62    20    21    1
    63    20    16   am
    64    15    16    1
    65     9    10    1
    66     9    12    1
    67    48    47    2
    68    47    46    1
    69    55    54    1
    70    16    17    2
    71    10    11    2
    72    77    79   ar
    73    13    12    1
    74    41    40    1
    75    41    42    2
    76    78    79   ar
    77    40    43    1
    78    46    45    1
    79    46    49    1
    80    43    44    1
    81    50    49    1
    82    50    51    1
    83    92    93    1
    84    92    89    1
    85    88    89    1
    86    51    52    1
    87    94    93    2
    88    93    95   am
    89   130   127    1
    90    89    90    1
    91    52    53    1
    92    90    91    2
    93    90    96   am
    94   127   126    1
    95   127   128    1
    96   102   101    1
    97   102   103    1
    98   126   122   am
    99   106   104    1
   100   101   100    1
   101   129   128    2
   102    96    97    1
   103   128   131   am
   104   103   104    2
   105   104   105    1
   106   131   132    1
   107   122   123    2
   108   122   121    1
   109   100    97    1
   110   120   121    1
   111    97    98    1
   112   121   124    1
   113   132   135    1
   114   132   133    1
   115    98    99    2
   116   135   136    1
   117   133   134    2
   118   124   125    1
   119   136   137    1
   120   137   138    1
   121   113   112   ar
   122   138   139    1
   123   107   108    1
   124   112   114   ar
   125   112   111    1
   126   119   116    1
   127   115   116    1
   128   115   109   am
   129   108   111    1
   130   108   109    1
   131   116   117    1
   132   109   110    2
   133   117   118    2
