@<TRIPOS>MOLECULE
tmp/5gofA00.pdb
 122 114 0 0 0
SMALL
GASTEIGER

@<TRIPOS>ATOM
      1  N         12.3340  -13.6210   26.3120 N.3    81  THR81      -0.1203
      2  CA        11.0840  -13.7630   27.0480 C.3    81  THR81       0.1994
      3  C         11.2850  -13.4220   28.5180 C.2    81  THR81       0.2619
      4  O         12.2560  -13.8670   29.1450 O.2    81  THR81      -0.2717
      5  CB        10.5550  -15.1970   26.9250 C.3    81  THR81       0.1784
      6  OG1       10.5720  -15.6080   25.5520 O.3    81  THR81      -0.2211
      7  CG2        9.1320  -15.2780   27.4600 C.3    81  THR81       0.0376
      8  N         10.3610  -12.6240   29.0610 N.am   82  SER82      -0.1937
      9  CA        10.2790  -12.2430   30.4730 C.3    82  SER82       0.2055
     10  C         11.4270  -11.3600   30.9360 C.2    82  SER82       0.2644
     11  O         11.6360  -11.2220   32.1430 O.2    82  SER82      -0.2714
     12  CB        10.2080  -13.4590   31.4060 C.3    82  SER82       0.2130
     13  OG         9.0500  -14.2330   31.1610 O.3    82  SER82      -0.2179
     14  N         12.1920  -10.7650   30.0180 N.am   83  SER83      -0.1935
     15  CA        13.2560   -9.8580   30.4360 C.3    83  SER83       0.2055
     16  C         12.7200   -8.5370   30.9800 C.2    83  SER83       0.2644
     17  O         13.4270   -7.8570   31.7270 O.2    83  SER83      -0.2714
     18  CB        14.2110   -9.5950   29.2700 C.3    83  SER83       0.2130
     19  OG        13.5340   -8.9940   28.1760 O.3    83  SER83      -0.2179
     20  N         11.5000   -8.1620   30.6270 N.am   84  GLY84      -0.1939
     21  CA        10.9120   -6.9140   31.0550 C.3    84  GLY84       0.2014
     22  C         10.6760   -5.8970   29.9620 C.2    84  GLY84       0.2639
     23  O         10.4780   -4.7170   30.2800 O.2    84  GLY84      -0.2714
     24  N         10.6740   -6.3130   28.6900 N.am   85  LYS85      -0.1963
     25  CA        10.4920   -5.3670   27.5880 C.3    85  LYS85       0.1728
     26  C          9.2120   -4.5580   27.7490 C.2    85  LYS85       0.2617
     27  O          9.2200   -3.3250   27.6580 O.2    85  LYS85      -0.2715
     28  CB        10.4550   -6.1100   26.2520 C.3    85  LYS85       0.0311
     29  CG        11.7720   -6.6670   25.7830 C.3    85  LYS85       0.0038
     30  CD        11.5720   -7.5000   24.5200 C.3    85  LYS85       0.0206
     31  CE        10.8710   -8.8080   24.8420 C.3    85  LYS85       0.1093
     32  NZ        10.7700   -9.6820   23.6480 N.3    85  LYS85      -0.1314
     33  N          8.0840   -5.2410   27.9260 N.am   86  SER86      -0.1936
     34  CA         6.8260   -4.5250   28.0240 C.3    86  SER86       0.2055
     35  C          6.7950   -3.6060   29.2400 C.2    86  SER86       0.2643
     36  O          6.2120   -2.5200   29.1740 O.2    86  SER86      -0.2714
     37  CB         5.6880   -5.5350   28.0450 C.3    86  SER86       0.2130
     38  OG         5.7090   -6.2830   26.8370 O.3    86  SER86      -0.2179
     39  N          7.4470   -4.0050   30.3390 N.am   87  SER87      -0.1949
     40  CA         7.4700   -3.1560   31.5270 C.3    87  SER87       0.1924
     41  C          8.3460   -1.9230   31.3240 C.2    87  SER87       0.2314
     42  O          8.0180   -0.8470   31.8380 O.2    87  SER87      -0.2863
     43  CB         7.9340   -3.9470   32.7520 C.3    87  SER87       0.2116
     44  OG         6.9590   -4.9310   33.1200 O.3    87  SER87      -0.2180
     45  N          0.7760   -7.9700   30.6350 N.3   100  SER100     -0.1202
     46  CA         1.7480   -9.0330   30.8500 C.3   100  SER100      0.2020
     47  C          1.0680  -10.3830   30.6310 C.2   100  SER100      0.2619
     48  O         -0.1060  -10.4610   30.2590 O.2   100  SER100     -0.2717
     49  CB         2.3730   -8.9320   32.2450 C.3   100  SER100      0.2103
     50  OG         1.3840   -8.9970   33.2560 O.3   100  SER100     -0.2182
     51  N          1.8170  -11.4580   30.8720 N.am  101  GLY101     -0.1956
     52  CA         1.3370  -12.7490   30.4260 C.3   101  GLY101      0.1869
     53  C          1.4230  -12.8190   28.9080 C.2   101  GLY101      0.2309
     54  O          2.1850  -12.0870   28.2680 O.2   101  GLY101     -0.2863
     55  N          2.7900  -14.4790   26.6790 N.3   103  GLY103     -0.1225
     56  CA         4.1010  -14.4340   26.0610 C.3   103  GLY103      0.1811
     57  C          4.3460  -15.5200   25.0320 C.2   103  GLY103      0.2280
     58  O          5.4990  -15.8200   24.7060 O.2   103  GLY103     -0.2866
     59  N          7.3200   -3.1310   20.5370 N.3   169  ASP169     -0.1239
     60  CA         7.5190   -4.2430   21.4580 C.3   169  ASP169      0.1674
     61  C          7.5760   -5.5220   20.6290 C.2   169  ASP169      0.2266
     62  O          6.8210   -5.6740   19.6690 O.2   169  ASP169     -0.2867
     63  CB         6.3610   -4.2740   22.4830 C.3   169  ASP169      0.1410
     64  CG         6.6100   -5.1900   23.6820 C.2   169  ASP169      0.3668
     65  OD1        7.7060   -5.7590   23.8320 O.co2 169  ASP169     -0.2456
     66  OD2        5.6660   -5.3280   24.4930 O.co2 169  ASP169     -0.2456
     67  N          9.9840  -12.6870   22.1020 N.3   172  GLY172     -0.1225
     68  CA        11.2770  -13.0890   22.6240 C.3   172  GLY172      0.1811
     69  C         12.2070  -13.5350   21.5100 C.2   172  GLY172      0.2280
     70  O         11.8060  -14.2380   20.5790 O.2   172  GLY172     -0.2866
     71  N         17.7760   -5.0870   33.3360 N.3   225  ASN225     -0.1225
     72  CA        16.5460   -4.8680   34.0830 C.3   225  ASN225      0.1785
     73  C         16.5050   -5.8090   35.2900 C.2   225  ASN225      0.2597
     74  O         17.3550   -6.6880   35.4530 O.2   225  ASN225     -0.2718
     75  CB        15.3570   -5.0880   33.1330 C.3   225  ASN225      0.1169
     76  CG        14.0190   -4.7150   33.7500 C.2   225  ASN225      0.2627
     77  OD1       13.0350   -5.4590   33.6420 O.2   225  ASN225     -0.2716
     78  ND2       13.9730   -3.5640   34.3820 N.am  225  ASN225     -0.0877
     79  N         15.4930   -5.6150   36.1360 N.am  226  ARG226     -0.1979
     80  CA        15.3090   -6.3850   37.3730 C.3   226  ARG226      0.1597
     81  C         16.4560   -6.1570   38.3520 C.2   226  ARG226      0.2287
     82  O         16.7710   -7.0230   39.1720 O.2   226  ARG226     -0.2864
     83  CB        15.1380   -7.8840   37.0940 C.3   226  ARG226      0.0334
     84  CG        14.1180   -8.2190   36.0130 C.3   226  ARG226      0.0492
     85  CD        13.9940   -9.7230   35.8190 C.3   226  ARG226      0.2205
     86  NE        13.1380  -10.3170   36.8370 N.pl3 226  ARG226     -0.0865
     87  CZ        11.8390  -10.5550   36.6730 C.cat 226  ARG226      0.5346
     88  NH1       11.1300  -11.0940   37.6570 N.pl3 226  ARG226      0.1354
     89  NH2       11.2490  -10.2640   35.5210 N.pl3 226  ARG226      0.1354
     90  N         16.4550   -4.4010   40.8590 N.3   228  ASP228     -0.1225
     91  CA        15.9690   -4.4300   42.2350 C.3   228  ASP228      0.1805
     92  C         16.2220   -5.7730   42.9110 C.2   228  ASP228      0.2597
     93  O         16.1300   -5.8650   44.1410 O.2   228  ASP228     -0.2718
     94  CB        14.4700   -4.1240   42.2620 C.3   228  ASP228      0.1424
     95  CG        13.6750   -5.0700   41.3710 C.2   228  ASP228      0.3668
     96  OD1       13.8300   -4.9900   40.1380 O.co2 228  ASP228     -0.2456
     97  OD2       12.9070   -5.8960   41.9090 O.co2 228  ASP228     -0.2456
     98  N         16.5290   -6.8170   42.1380 N.am  229  ALA229     -0.1979
     99  CA        16.6620   -8.1430   42.7260 C.3   229  ALA229      0.1597
    100  C         17.8680   -8.2640   43.6440 C.2   229  ALA229      0.2287
    101  O         17.9050   -9.1870   44.4600 O.2   229  ALA229     -0.2864
    102  CB        16.7520   -9.2050   41.6230 C.3   229  ALA229      0.0319
    103  N         15.2640   -0.9420   37.2340 N.3   272  SER272     -0.1202
    104  CA        14.1120   -1.7530   37.6270 C.3   272  SER272      0.2020
    105  C         12.8740   -1.1200   36.9970 C.2   272  SER272      0.2619
    106  O         12.3160   -0.1540   37.5230 O.2   272  SER272     -0.2717
    107  CB        13.9760   -1.8330   39.1430 C.3   272  SER272      0.2103
    108  OG        12.7620   -2.4640   39.5020 O.3   272  SER272     -0.2182
    109  N         12.4480   -1.6710   35.8620 N.am  273  ALA273     -0.1965
    110  CA        11.2510   -1.1470   35.2190 C.3   273  ALA273      0.1728
    111  C         10.0370   -1.2640   36.1330 C.2   273  ALA273      0.2616
    112  O          9.1490   -0.4050   36.0990 O.2   273  ALA273     -0.2715
    113  CB        11.0020   -1.8800   33.9080 C.3   273  ALA273      0.0334
    114  N          9.9940   -2.3060   36.9610 N.am  274  LYS274     -0.1977
    115  CA         8.8770   -2.4830   37.8830 C.3   274  LYS274      0.1596
    116  C          8.8070   -1.3400   38.8860 C.2   274  LYS274      0.2287
    117  O          7.7330   -0.7780   39.1370 O.2   274  LYS274     -0.2864
    118  CB         9.0240   -3.8190   38.6100 C.3   274  LYS274      0.0298
    119  CG         7.9180   -4.1230   39.6130 C.3   274  LYS274      0.0038
    120  CD         8.1270   -5.5160   40.1870 C.3   274  LYS274      0.0206
    121  CE         6.9130   -5.9820   40.9910 C.3   274  LYS274      0.1093
    122  NZ         7.2080   -7.2360   41.7450 N.3   274  LYS274     -0.1314
@<TRIPOS>BOND
     1    62    61    2
     2    59    60    1
     3    70    69    2
     4    61    60    1
     5    60    63    1
     6    69    68    1
     7    67    68    1
     8    63    64    1
     9    32    31    1
    10    64    65   ar
    11    64    66   ar
    12    30    31    1
    13    30    29    1
    14    58    57    2
    15    57    56    1
    16     6     5    1
    17    29    28    1
    18    56    55    1
    19    28    25    1
    20     1     2    1
    21    38    37    1
    22     5     2    1
    23     5     7    1
    24     2     3    1
    25    25    26    1
    26    25    24    1
    27    27    26    2
    28    26    33   am
    29    33    34    1
    30    34    37    1
    31    34    35    1
    32    19    18    1
    33    54    53    2
    34     3     8   am
    35     3     4    2
    36    24    22   am
    37    53    52    1
    38     8     9    1
    39    36    35    2
    40    35    39   am
    41    18    15    1
    42    22    23    2
    43    22    21    1
    44    14    15    1
    45    14    10   am
    46    48    47    2
    47    39    40    1
    48    52    51    1
    49    15    16    1
    50     9    10    1
    51     9    12    1
    52    20    16   am
    53    20    21    1
    54    47    46    1
    55    47    51   am
    56    45    46    1
    57    46    49    1
    58    10    11    2
    59    16    17    2
    60    13    12    1
    61    41    40    1
    62    41    42    2
    63    40    43    1
    64    49    50    1
    65    43    44    1
    66    75    76    1
    67    75    72    1
    68    71    72    1
    69    77    76    2
    70    76    78   am
    71   113   110    1
    72    72    73    1
    73   110   109    1
    74   110   111    1
    75    73    74    2
    76    73    79   am
    77    89    87    1
    78    85    84    1
    79    85    86    1
    80   109   105   am
    81    84    83    1
    82   112   111    2
    83   111   114   am
    84    79    80    1
    85    87    86    2
    86    87    88    1
    87   114   115    1
    88   105   106    2
    89   105   104    1
    90    83    80    1
    91   103   104    1
    92    80    81    1
    93   104   107    1
    94   115   118    1
    95   115   116    1
    96    81    82    2
    97   118   119    1
    98   116   117    2
    99   107   108    1
   100   119   120    1
   101    96    95   ar
   102   120   121    1
   103    90    91    1
   104   121   122    1
   105    95    97   ar
   106    95    94    1
   107   102    99    1
   108    98    99    1
   109    98    92   am
   110    91    94    1
   111    91    92    1
   112    99   100    1
   113    92    93    2
   114   100   101    2
