@<TRIPOS>MOLECULE
tmp/5gomA00.pdb
 147 139 0 0 0
SMALL
GASTEIGER

@<TRIPOS>ATOM
      1  N        -14.8210   20.6940   36.1410 N.3    82  THR82      -0.1203
      2  CA       -14.8720   19.2400   36.2160 C.3    82  THR82       0.1994
      3  C        -16.2090   18.7180   35.7010 C.2    82  THR82       0.2619
      4  O        -17.2640   19.2990   35.9650 O.2    82  THR82      -0.2717
      5  CB       -14.6390   18.7800   37.6620 C.3    82  THR82       0.1784
      6  OG1      -13.3200   19.1540   38.0830 O.3    82  THR82      -0.2211
      7  CG2      -14.8020   17.2740   37.8020 C.3    82  THR82       0.0376
      8  N        -16.1510   17.6290   34.9350 N.am   83  SER83      -0.1937
      9  CA       -17.3220   16.9290   34.4000 C.3    83  SER83       0.2055
     10  C        -18.1020   17.7800   33.4090 C.2    83  SER83       0.2644
     11  O        -19.2800   17.5130   33.1510 O.2    83  SER83      -0.2714
     12  CB       -18.2440   16.4330   35.5130 C.3    83  SER83       0.2130
     13  OG       -18.9360   17.5240   36.0640 O.3    83  SER83      -0.2179
     14  N        -17.4490   18.8070   32.8540 N.am   84  SER84      -0.1935
     15  CA       -17.9660   19.4690   31.6670 C.3    84  SER84       0.2055
     16  C        -17.9230   18.5410   30.4650 C.2    84  SER84       0.2644
     17  O        -18.8020   18.6030   29.5950 O.2    84  SER84      -0.2714
     18  CB       -17.1610   20.7350   31.3860 C.3    84  SER84       0.2130
     19  OG       -17.7290   21.8960   32.0090 O.3    84  SER84      -0.2179
     20  N        -16.9100   17.6780   30.3850 N.am   85  GLY85      -0.1939
     21  CA       -16.8730   16.7670   29.2590 C.3    85  GLY85       0.2014
     22  C        -15.5430   16.6590   28.5420 C.2    85  GLY85       0.2639
     23  O        -15.4190   15.8630   27.6080 O.2    85  GLY85      -0.2714
     24  N        -14.5480   17.4420   28.9780 N.am   86  LYS86      -0.1963
     25  CA       -13.2130   17.4430   28.3740 C.3    86  LYS86       0.1728
     26  C        -12.7100   16.0560   28.0030 C.2    86  LYS86       0.2617
     27  O        -12.2700   15.8370   26.8750 O.2    86  LYS86      -0.2715
     28  CB       -12.2170   18.1140   29.3170 C.3    86  LYS86       0.0311
     29  CG       -12.5280   19.5840   29.5710 C.3    86  LYS86       0.0038
     30  CD       -11.5390   20.1590   30.5610 C.3    86  LYS86       0.0206
     31  CE       -11.3100   19.1910   31.7060 C.3    86  LYS86       0.1093
     32  NZ       -12.4610   19.2510   32.6300 N.3    86  LYS86      -0.1314
     33  N        -12.7680   15.0860   28.9100 N.am   87  SER87      -0.1936
     34  CA       -12.3010   13.7720   28.4650 C.3    87  SER87       0.2055
     35  C        -13.2620   13.1230   27.4630 C.2    87  SER87       0.2643
     36  O        -12.8230   12.3330   26.6230 O.2    87  SER87      -0.2714
     37  CB       -12.0540   12.8450   29.6520 C.3    87  SER87       0.2130
     38  OG       -13.1610   12.8800   30.5520 O.3    87  SER87      -0.2179
     39  N        -14.5590   13.4460   27.5090 N.am   88  SER88      -0.1949
     40  CA       -15.4950   12.8580   26.5530 C.3    88  SER88       0.1924
     41  C        -15.2910   13.4180   25.1470 C.2    88  SER88       0.2314
     42  O        -15.4590   12.6870   24.1620 O.2    88  SER88      -0.2863
     43  CB       -16.9420   13.0920   27.0190 C.3    88  SER88       0.2116
     44  OG       -17.2330   12.4710   28.2810 O.3    88  SER88      -0.2180
     45  N        -12.8350    8.7340   31.5090 N.3   101  SER101     -0.1202
     46  CA       -13.7320    9.8890   31.5760 C.3   101  SER101      0.2020
     47  C        -14.9810    9.7500   32.4550 C.2   101  SER101      0.2619
     48  O        -15.9880   10.4290   32.2050 O.2   101  SER101     -0.2717
     49  CB       -14.1750   10.2710   30.1660 C.3   101  SER101      0.2103
     50  OG       -15.0690    9.3370   29.6120 O.3   101  SER101     -0.2182
     51  N        -14.9480    8.9400   33.5040 N.am  102  GLY102     -0.1942
     52  CA       -16.1620    8.8130   34.2900 C.3   102  GLY102      0.2014
     53  C        -16.4930    9.9910   35.1940 C.2   102  GLY102      0.2638
     54  O        -16.0760   11.1230   34.9180 O.2   102  GLY102     -0.2714
     55  N        -17.2690    9.7450   36.2530 N.am  103  ILE103     -0.1977
     56  CA       -17.4390   10.6910   37.3520 C.3   103  ILE103      0.1596
     57  C        -16.5150   10.2350   38.4680 C.2   103  ILE103      0.2287
     58  O        -16.6940    9.1500   39.0420 O.2   103  ILE103     -0.2864
     59  CB       -18.8940   10.7800   37.8450 C.3   103  ILE103      0.0276
     60  CG1      -19.7950   11.3850   36.7700 C.3   103  ILE103      0.0022
     61  CG2      -18.9910   11.6560   39.0790 C.3   103  ILE103      0.0022
     62  CD1      -19.4010   12.7990   36.3960 C.3   103  ILE103      0.0001
     63  N        -13.1410   10.0140   37.8420 N.3   105  HIS105     -0.1241
     64  CA       -11.8600    9.6350   37.2770 C.3   105  HIS105      0.1621
     65  C        -10.8280   10.6560   37.7250 C.2   105  HIS105      0.2264
     66  O        -11.1640   11.8230   37.9730 O.2   105  HIS105     -0.2867
     67  CB       -11.9440    9.5270   35.7410 C.3   105  HIS105      0.0745
     68  CG       -12.0210   10.8340   35.0040 C.ar  105  HIS105      0.0817
     69  ND1      -13.1940   11.5450   34.8610 N.ar  105  HIS105     -0.2268
     70  CD2      -11.0870   11.5160   34.2990 C.ar  105  HIS105      0.1154
     71  CE1      -12.9680   12.6290   34.1360 C.ar  105  HIS105      0.1986
     72  NE2      -11.7000   12.6330   33.7750 N.ar  105  HIS105     -0.2212
     73  N         -8.5720   13.5340   38.0470 N.3   107  THR107     -0.1218
     74  CA        -8.5440   14.8020   37.3320 C.3   107  THR107      0.1862
     75  C         -7.4850   15.7450   37.8840 C.2   107  THR107      0.2287
     76  O         -7.4320   16.8990   37.4590 O.2   107  THR107     -0.2866
     77  CB        -9.9240   15.5080   37.4090 C.3   107  THR107      0.1770
     78  OG1      -10.5130   15.3440   38.7190 O.3   107  THR107     -0.2211
     79  CG2      -10.9020   14.9940   36.3340 C.3   107  THR107      0.0375
     80  N         -5.4300   16.9420   28.2220 N.3   176  ASP176     -0.1239
     81  CA        -6.5180   17.1000   29.1800 C.3   176  ASP176      0.1674
     82  C         -5.9840   17.7090   30.4710 C.2   176  ASP176      0.2266
     83  O         -4.9280   17.3050   30.9560 O.2   176  ASP176     -0.2867
     84  CB        -7.1550   15.7410   29.4660 C.3   176  ASP176      0.1410
     85  CG        -8.4720   15.8560   30.1690 C.2   176  ASP176      0.3668
     86  OD1       -8.9880   16.9950   30.2780 O.co2 176  ASP176     -0.2456
     87  OD2       -8.9920   14.7930   30.5950 O.co2 176  ASP176     -0.2456
     88  N        -20.6700   21.8800   25.5100 N.3   235  ASN235     -0.1225
     89  CA       -20.8780   20.4350   25.3990 C.3   235  ASN235      0.1785
     90  C        -22.2570   20.0550   25.9710 C.2   235  ASN235      0.2597
     91  O        -23.0370   20.9100   26.4110 O.2   235  ASN235     -0.2718
     92  CB       -19.7300   19.7020   26.1060 C.3   235  ASN235      0.1169
     93  CG       -19.7780   18.1760   25.9460 C.2   235  ASN235      0.2627
     94  OD1      -19.9440   17.6580   24.8470 O.2   235  ASN235     -0.2716
     95  ND2      -19.5940   17.4510   27.0620 N.am  235  ASN235     -0.0877
     96  N        -22.5650   18.7490   25.9780 N.am  236  ARG236     -0.1979
     97  CA       -23.7910   18.2280   26.5900 C.3   236  ARG236      0.1597
     98  C        -25.0520   18.8950   26.0410 C.2   236  ARG236      0.2287
     99  O        -26.0440   19.0640   26.7590 O.2   236  ARG236     -0.2864
    100  CB       -23.7590   18.3810   28.1080 C.3   236  ARG236      0.0334
    101  CG       -22.4560   18.0030   28.7310 C.3   236  ARG236      0.0492
    102  CD       -22.5790   18.0810   30.2400 C.3   236  ARG236      0.2205
    103  NE       -23.3010   16.9390   30.7830 N.pl3 236  ARG236     -0.0865
    104  CZ       -23.0160   16.3720   31.9460 C.cat 236  ARG236      0.5346
    105  NH1      -23.7140   15.3350   32.3660 N.pl3 236  ARG236      0.1354
    106  NH2      -22.0170   16.8300   32.6830 N.pl3 236  ARG236      0.1354
    107  N        -27.3510   17.8650   24.1750 N.3   238  ASP238     -0.1225
    108  CA       -28.5630   17.0570   24.1160 C.3   238  ASP238      0.1805
    109  C        -29.4950   17.3680   25.2680 C.2   238  ASP238      0.2597
    110  O        -30.7160   17.4300   25.0800 O.2   238  ASP238     -0.2718
    111  CB       -28.2230   15.5830   24.1360 C.3   238  ASP238      0.1424
    112  CG       -27.0760   15.2830   25.0370 C.2   238  ASP238      0.3668
    113  OD1      -26.1870   16.1580   25.1840 O.co2 238  ASP238     -0.2456
    114  OD2      -27.0500   14.1670   25.5830 O.co2 238  ASP238     -0.2456
    115  N        -28.9320   17.5530   26.4680 N.am  239  ALA239     -0.1979
    116  CA       -29.7260   17.8810   27.6500 C.3   239  ALA239      0.1597
    117  C        -30.8520   18.8460   27.3180 C.2   239  ALA239      0.2287
    118  O        -32.0220   18.5730   27.6110 O.2   239  ALA239     -0.2864
    119  CB       -28.8330   18.4730   28.7440 C.3   239  ALA239      0.0319
    120  N        -22.5110   17.3230   21.3980 N.3   282  SER282     -0.1202
    121  CA       -22.7780   16.3160   22.4300 C.3   282  SER282      0.2020
    122  C        -21.7440   15.1970   22.3200 C.2   282  SER282      0.2619
    123  O        -22.0000   14.1560   21.7130 O.2   282  SER282     -0.2717
    124  CB       -24.1740   15.7350   22.3450 C.3   282  SER282      0.2103
    125  OG       -24.2040   14.4570   22.9790 O.3   282  SER282     -0.2182
    126  N        -20.6140   15.4030   23.0000 N.am  283  ALA283     -0.1965
    127  CA       -19.5030   14.4690   22.9620 C.3   283  ALA283      0.1728
    128  C        -19.9390   13.0400   23.2630 C.2   283  ALA283      0.2616
    129  O        -19.5550   12.1060   22.5510 O.2   283  ALA283     -0.2715
    130  CB       -18.4440   14.9390   23.9450 C.3   283  ALA283      0.0334
    131  N        -20.7520   12.8390   24.3040 N.am  284  LYS284     -0.1977
    132  CA       -21.2180   11.4840   24.6240 C.3   284  LYS284      0.1596
    133  C        -21.8910   10.8240   23.4210 C.2   284  LYS284      0.2287
    134  O        -21.7520    9.6110   23.2060 O.2   284  LYS284     -0.2864
    135  CB       -22.1810   11.5200   25.8120 C.3   284  LYS284      0.0298
    136  CG       -22.7300   10.1330   26.2090 C.3   284  LYS284      0.0038
    137  CD       -23.6660   10.2040   27.4080 C.3   284  LYS284      0.0206
    138  CE       -23.9870    8.8290   27.9710 C.3   284  LYS284      0.1093
    139  NZ       -25.1170    8.8950   29.0140 N.3   284  LYS284     -0.1314
    140  N        -29.4700    9.7270   22.1490 N.3   304  LEU304     -0.1245
    141  CA       -30.2270    9.7570   23.3960 C.3   304  LEU304      0.1561
    142  C        -31.3650   10.7790   23.3540 C.2   304  LEU304      0.2260
    143  O        -32.3620   10.6160   24.0740 O.2   304  LEU304     -0.2867
    144  CB       -29.3020    9.9960   24.5990 C.3   304  LEU304      0.0270
    145  CG       -28.1690   11.0180   24.6850 C.3   304  LEU304      0.0019
    146  CD1      -26.8620   10.3830   24.3290 C.3   304  LEU304      0.0001
    147  CD2      -28.4600   12.2140   23.8380 C.3   304  LEU304      0.0001
@<TRIPOS>BOND
     1   120   121    1
     2   123   122    2
     3   140   141    1
     4   122   121    1
     5   122   126   am
     6   124   121    1
     7   124   125    1
     8   129   128    2
     9   127   126    1
    10   127   128    1
    11   127   130    1
    12   134   133    2
    13   128   131   am
    14   142   141    1
    15   142   143    2
    16   141   144    1
    17   133   132    1
    18   147   145    1
    19   108   111    1
    20   108   107    1
    21   108   109    1
    22   111   112    1
    23    42    41    2
    24   131   132    1
    25   146   145    1
    26   144   145    1
    27   132   135    1
    28    94    93    2
    29   112   113   ar
    30   112   114   ar
    31   110   109    2
    32    41    40    1
    33   109   115   am
    34    89    88    1
    35    89    90    1
    36    89    92    1
    37   135   136    1
    38    93    92    1
    39    93    95   am
    40    90    96   am
    41    90    91    2
    42    96    97    1
    43    98    97    1
    44    98    99    2
    45   136   137    1
    46   115   116    1
    47    40    43    1
    48    40    39    1
    49    97   100    1
    50    36    35    2
    51    27    26    2
    52    43    44    1
    53   117   118    2
    54   117   116    1
    55   137   138    1
    56    35    39   am
    57    35    34    1
    58    23    22    2
    59   116   119    1
    60   138   139    1
    61    26    25    1
    62    26    33   am
    63   100   101    1
    64    80    81    1
    65    25    24    1
    66    25    28    1
    67    34    33    1
    68    34    37    1
    69    22    24   am
    70    22    21    1
    71   101   102    1
    72    81    84    1
    73    81    82    1
    74    21    20    1
    75    28    29    1
    76    84    85    1
    77    29    30    1
    78    17    16    2
    79    50    49    1
    80    37    38    1
    81    49    46    1
    82    85    86   ar
    83    85    87   ar
    84   102   103    1
    85    20    16   am
    86    16    15    1
    87    82    83    2
    88    30    31    1
    89   103   104    2
    90    18    15    1
    91    18    19    1
    92    45    46    1
    93    46    47    1
    94    15    14    1
    95    31    32    1
    96   104   105    1
    97   104   106    1
    98    48    47    2
    99    47    51   am
   100    14    10   am
   101    11    10    2
   102    10     9    1
   103    51    52    1
   104    72    71   ar
   105    72    70   ar
   106    71    69   ar
   107    52    53    1
   108    70    68   ar
   109     9     8    1
   110     9    12    1
   111    69    68   ar
   112    54    53    2
   113     8     3   am
   114    68    67    1
   115    53    55   am
   116    12    13    1
   117     3     4    2
   118     3     2    1
   119    67    64    1
   120     1     2    1
   121     2     5    1
   122    55    56    1
   123    79    77    1
   124    62    60    1
   125    60    59    1
   126    64    65    1
   127    64    63    1
   128    74    77    1
   129    74    75    1
   130    74    73    1
   131    56    59    1
   132    56    57    1
   133    77    78    1
   134    76    75    2
   135     5     7    1
   136     5     6    1
   137    65    66    2
   138    59    61    1
   139    57    58    2
