@<TRIPOS>MOLECULE
tmp/5gooA00.pdb
 123 117 0 0 0
SMALL
GASTEIGER

@<TRIPOS>ATOM
      1  N         58.8820  -31.7330   18.8960 N.3    36  LEU36      -0.1231
      2  CA        58.6910  -31.9820   20.3190 C.3    36  LEU36       0.1693
      3  C         58.0840  -33.3850   20.4320 C.2    36  LEU36       0.2592
      4  O         58.6530  -34.3360   19.9030 O.2    36  LEU36      -0.2718
      5  CB        57.7880  -30.8970   20.9290 C.3    36  LEU36       0.0284
      6  CG        57.8700  -30.6610   22.4360 C.3    36  LEU36       0.0019
      7  CD1       59.2740  -30.2270   22.8330 C.3    36  LEU36       0.0001
      8  CD2       56.8480  -29.6170   22.8700 C.3    36  LEU36       0.0001
      9  N         56.9300  -33.5210   21.0780 N.am   37  ASN37      -0.1960
     10  CA        56.2370  -34.8060   21.1080 C.3    37  ASN37       0.1819
     11  C         54.9630  -34.8230   20.2600 C.2    37  ASN37       0.2621
     12  O         54.1720  -35.7690   20.3370 O.2    37  ASN37      -0.2715
     13  CB        55.9710  -35.2720   22.5550 C.3    37  ASN37       0.1195
     14  CG        55.2060  -34.2560   23.3890 C.2    37  ASN37       0.2630
     15  OD1       55.0860  -33.0850   23.0260 O.2    37  ASN37      -0.2716
     16  ND2       54.6980  -34.7070   24.5380 N.am   37  ASN37      -0.0877
     17  N         54.7860  -33.8020   19.4220 N.am   38  TYR38      -0.1974
     18  CA        53.5900  -33.6990   18.5670 C.3    38  TYR38       0.1639
     19  C         53.6380  -34.6180   17.3320 C.2    38  TYR38       0.2290
     20  O         52.6420  -34.7670   16.6200 O.2    38  TYR38      -0.2864
     21  CB        53.3370  -32.2400   18.1680 C.3    38  TYR38       0.0560
     22  CG        52.6820  -31.4460   19.2790 C.ar   38  TYR38      -0.0198
     23  CD1       53.4380  -30.8980   20.3170 C.ar   38  TYR38      -0.0009
     24  CD2       51.3000  -31.2670   19.3080 C.ar   38  TYR38      -0.0009
     25  CE1       52.8330  -30.1780   21.3470 C.ar   38  TYR38       0.0417
     26  CE2       50.6850  -30.5580   20.3310 C.ar   38  TYR38       0.0417
     27  CZ        51.4520  -30.0120   21.3520 C.ar   38  TYR38       0.1957
     28  OH        50.8320  -29.3080   22.3670 O.3    38  TYR38      -0.2866
     29  N         49.3090  -40.0920   20.6200 N.3    42  PHE42      -0.1241
     30  CA        48.8820  -40.1080   22.0150 C.3    42  PHE42       0.1605
     31  C         47.6580  -40.9930   22.1380 C.2    42  PHE42       0.2264
     32  O         46.7710  -40.9540   21.2830 O.2    42  PHE42      -0.2867
     33  CB        48.5290  -38.7030   22.5090 C.3    42  PHE42       0.0534
     34  CG        49.7170  -37.8200   22.7390 C.ar   42  PHE42      -0.0203
     35  CD1       50.3870  -37.2540   21.6660 C.ar   42  PHE42      -0.0042
     36  CD2       50.1640  -37.5470   24.0280 C.ar   42  PHE42      -0.0042
     37  CE1       51.4870  -36.4400   21.8680 C.ar   42  PHE42      -0.0003
     38  CE2       51.2630  -36.7290   24.2370 C.ar   42  PHE42      -0.0003
     39  CZ        51.9270  -36.1760   23.1520 C.ar   42  PHE42      -0.0000
     40  N         45.1770  -40.7760   24.3550 N.3    44  ARG44      -0.1245
     41  CA        43.9910  -39.9220   24.4810 C.3    44  ARG44       0.1563
     42  C         43.5970  -39.2760   23.1440 C.2    44  ARG44       0.2260
     43  O         42.4180  -39.2210   22.8090 O.2    44  ARG44      -0.2867
     44  CB        44.1580  -38.8560   25.5870 C.3    44  ARG44       0.0307
     45  CG        45.1150  -37.7060   25.2900 C.3    44  ARG44       0.0489
     46  CD        45.1930  -36.7280   26.4600 C.3    44  ARG44       0.2205
     47  NE        45.8380  -37.3180   27.6310 N.pl3  44  ARG44      -0.0865
     48  CZ        47.1460  -37.2660   27.9040 C.cat  44  ARG44       0.5346
     49  NH1       47.9910  -36.6220   27.1080 N.pl3  44  ARG44       0.1354
     50  NH2       47.6150  -37.8630   28.9940 N.pl3  44  ARG44       0.1354
     51  N         56.4680  -43.2780   25.3420 N.3   104  ASP104     -0.1239
     52  CA        56.6250  -42.4140   26.5080 C.3   104  ASP104      0.1674
     53  C         55.6140  -42.8460   27.5680 C.2   104  ASP104      0.2266
     54  O         54.4040  -42.6400   27.4030 O.2   104  ASP104     -0.2867
     55  CB        56.3880  -40.9440   26.1370 C.3   104  ASP104      0.1410
     56  CG        56.5690  -39.9890   27.3270 C.2   104  ASP104      0.3668
     57  OD1       57.0790  -40.4120   28.3940 O.co2 104  ASP104     -0.2456
     58  OD2       56.2050  -38.8030   27.1890 O.co2 104  ASP104     -0.2456
     59  N         58.3530  -37.6920   29.1810 N.3   109  ALA109     -0.1231
     60  CA        57.3990  -36.5910   29.2570 C.3   109  ALA109      0.1694
     61  C         57.9490  -35.3370   29.9380 C.2   109  ALA109      0.2592
     62  O         58.7530  -35.4130   30.8750 O.2   109  ALA109     -0.2718
     63  CB        56.1400  -37.0550   29.9880 C.3   109  ALA109      0.0304
     64  N         57.4900  -34.1880   29.4510 N.am  110  ILE110     -0.1966
     65  CA        57.7740  -32.9040   30.0790 C.3   110  ILE110      0.1727
     66  C         57.1990  -32.9450   31.4990 C.2   110  ILE110      0.2616
     67  O         56.0500  -33.3350   31.6990 O.2   110  ILE110     -0.2715
     68  CB        57.1830  -31.7320   29.2600 C.3   110  ILE110      0.0290
     69  CG1       57.8480  -31.6670   27.8790 C.3   110  ILE110      0.0022
     70  CG2       57.3560  -30.4080   29.9990 C.3   110  ILE110      0.0023
     71  CD1       57.2930  -30.6040   26.9510 C.3   110  ILE110      0.0001
     72  N         58.0240  -32.5690   32.4730 N.am  111  ALA111     -0.1977
     73  CA        57.6770  -32.6120   33.9100 C.3   111  ALA111      0.1597
     74  C         57.4800  -34.0210   34.4890 C.2   111  ALA111      0.2287
     75  O         57.0930  -34.1640   35.6380 O.2   111  ALA111     -0.2864
     76  CB        56.4630  -31.7360   34.2010 C.3   111  ALA111      0.0319
     77  N         55.1590  -36.1250   33.9220 N.3   113  VAL113     -0.1245
     78  CA        53.7530  -36.3180   34.2830 C.3   113  VAL113      0.1561
     79  C         53.3200  -37.7430   33.9410 C.2   113  VAL113      0.2260
     80  O         53.7170  -38.2740   32.9060 O.2   113  VAL113     -0.2867
     81  CB        52.8000  -35.3100   33.5950 C.3   113  VAL113      0.0252
     82  CG1       52.9110  -33.9410   34.2510 C.3   113  VAL113      0.0019
     83  CG2       53.0360  -35.2250   32.0860 C.3   113  VAL113      0.0019
     84  N         47.9510  -31.9720   31.2090 N.3   172  ASP172     -0.1225
     85  CA        49.1790  -32.6930   31.5140 C.3   172  ASP172      0.1805
     86  C         50.3070  -31.7460   31.9130 C.2   172  ASP172      0.2597
     87  O         51.4830  -32.0410   31.6900 O.2   172  ASP172     -0.2718
     88  CB        49.5900  -33.5940   30.3370 C.3   172  ASP172      0.1424
     89  CG        49.9010  -32.8160   29.0650 C.2   172  ASP172      0.3668
     90  OD1       49.6350  -31.6010   29.0120 O.co2 172  ASP172     -0.2456
     91  OD2       50.4260  -33.4280   28.1120 O.co2 172  ASP172     -0.2456
     92  N         49.9280  -30.6160   32.5110 N.am  173  ARG173     -0.1979
     93  CA        50.8720  -29.6760   33.1000 C.3   173  ARG173      0.1597
     94  C         50.3440  -29.2480   34.4680 C.2   173  ARG173      0.2287
     95  O         49.2040  -29.5540   34.8290 O.2   173  ARG173     -0.2864
     96  CB        51.0980  -28.4740   32.1730 C.3   173  ARG173      0.0334
     97  CG        51.8170  -28.8440   30.8750 C.3   173  ARG173      0.0492
     98  CD        51.8580  -27.7060   29.8640 C.3   173  ARG173      0.2205
     99  NE        52.8990  -26.7150   30.1400 N.pl3 173  ARG173     -0.0865
    100  CZ        54.1340  -26.7120   29.6240 C.cat 173  ARG173      0.5346
    101  NH1       54.5450  -27.6610   28.7900 N.pl3 173  ARG173      0.1354
    102  NH2       54.9760  -25.7340   29.9460 N.pl3 173  ARG173      0.1354
    103  N         53.1430  -21.5020   29.1900 N.3   343  LYS343     -0.1245
    104  CA        52.1710  -22.0640   28.2480 C.3   343  LYS343      0.1561
    105  C         50.7370  -21.9700   28.7840 C.2   343  LYS343      0.2260
    106  O         49.7780  -22.0350   28.0140 O.2   343  LYS343     -0.2867
    107  CB        52.5150  -23.5100   27.8670 C.3   343  LYS343      0.0271
    108  CG        51.9170  -23.9160   26.5220 C.3   343  LYS343      0.0035
    109  CD        52.2960  -25.3170   26.0750 C.3   343  LYS343      0.0206
    110  CE        51.7110  -25.6040   24.6930 C.3   343  LYS343      0.1093
    111  NZ        51.9540  -27.0040   24.2360 N.3   343  LYS343     -0.1314
    112  N         45.3670  -22.2390   26.6580 N.3   349  TYR349     -0.1241
    113  CA        45.7190  -23.6520   26.7200 C.3   349  TYR349      0.1605
    114  C         44.8690  -24.3610   27.7880 C.2   349  TYR349      0.2264
    115  O         43.6430  -24.3200   27.7000 O.2   349  TYR349     -0.2867
    116  CB        47.2320  -23.7710   26.9460 C.3   349  TYR349      0.0534
    117  CG        47.8550  -25.0980   26.5830 C.ar  349  TYR349     -0.0201
    118  CD1       47.6390  -25.6740   25.3350 C.ar  349  TYR349     -0.0009
    119  CD2       48.7130  -25.7530   27.4670 C.ar  349  TYR349     -0.0009
    120  CE1       48.2350  -26.8710   24.9830 C.ar  349  TYR349      0.0417
    121  CE2       49.3040  -26.9580   27.1280 C.ar  349  TYR349      0.0417
    122  CZ        49.0670  -27.5100   25.8830 C.ar  349  TYR349      0.1957
    123  OH        49.6610  -28.6990   25.5310 O.3   349  TYR349     -0.2866
@<TRIPOS>BOND
     1    20    19    2
     2    19    18    1
     3    21    18    1
     4    21    22    1
     5    18    17    1
     6     1     2    1
     7    22    24   ar
     8    22    23   ar
     9    24    26   ar
    10    17    11   am
    11     4     3    2
    12    11    12    2
    13    11    10    1
    14    23    25   ar
    15     2     3    1
    16     2     5    1
    17    26    27   ar
    18     3     9   am
    19    29    30    1
    20     5     6    1
    21     9    10    1
    22    10    13    1
    23    32    31    2
    24    25    27   ar
    25    27    28    1
    26    35    37   ar
    27    35    34   ar
    28    37    39   ar
    29    30    31    1
    30    30    33    1
    31     6     7    1
    32     6     8    1
    33    33    34    1
    34    13    14    1
    35    34    36   ar
    36    43    42    2
    37    15    14    2
    38    42    41    1
    39    39    38   ar
    40    14    16   am
    41    36    38   ar
    42   111   110    1
    43    40    41    1
    44    41    44    1
    45   110   109    1
    46   120   118   ar
    47   120   122   ar
    48    45    44    1
    49    45    46    1
    50   118   117   ar
    51    51    52    1
    52   123   122    1
    53   122   121   ar
    54   109   108    1
    55    55    52    1
    56    55    56    1
    57    46    47    1
    58    52    53    1
    59   108   107    1
    60   117   116    1
    61   117   119   ar
    62   112   113    1
    63   113   116    1
    64   113   114    1
    65    71    69    1
    66    49    48    1
    67   121   119   ar
    68    58    56   ar
    69    56    57   ar
    70    54    53    2
    71    47    48    2
    72   115   114    2
    73   107   104    1
    74    69    68    1
    75    48    50    1
    76   106   105    2
    77    91    89   ar
    78   104   105    1
    79   104   103    1
    80   101   100    1
    81    90    89   ar
    82    89    88    1
    83    59    60    1
    84    60    61    1
    85    60    63    1
    86    68    70    1
    87    68    65    1
    88    64    61   am
    89    64    65    1
    90   100   102    1
    91   100    99    2
    92    98    99    1
    93    98    97    1
    94    61    62    2
    95    65    66    1
    96    88    85    1
    97    97    96    1
    98    84    85    1
    99    66    67    2
   100    66    72   am
   101    85    86    1
   102    87    86    2
   103    86    92   am
   104    83    81    1
   105    96    93    1
   106    72    73    1
   107    92    93    1
   108    80    79    2
   109    93    94    1
   110    81    82    1
   111    81    78    1
   112    73    76    1
   113    73    74    1
   114    77    78    1
   115    79    78    1
   116    94    95    2
   117    74    75    2
