@<TRIPOS>MOLECULE
tmp/5gopA00.pdb
 206 200 0 0 0
SMALL
GASTEIGER

@<TRIPOS>ATOM
      1  N         52.5610  -37.1660   16.2310 N.3    25  ALA25      -0.1245
      2  CA        51.8440  -36.1460   16.9840 C.3    25  ALA25       0.1562
      3  C         51.5770  -34.9260   16.1100 C.2    25  ALA25       0.2260
      4  O         50.5460  -34.2680   16.2430 O.2    25  ALA25      -0.2867
      5  CB        52.6230  -35.7520   18.2270 C.3    25  ALA25       0.0290
      6  N         61.5710  -32.1870   19.2140 N.3    34  LEU34      -0.1231
      7  CA        61.3000  -32.4890   20.6170 C.3    34  LEU34       0.1693
      8  C         60.7000  -33.9000   20.6750 C.2    34  LEU34       0.2592
      9  O         61.3480  -34.8610   20.2590 O.2    34  LEU34      -0.2718
     10  CB        60.3670  -31.4260   21.2130 C.3    34  LEU34       0.0284
     11  CG        60.0930  -31.3120   22.7140 C.3    34  LEU34       0.0019
     12  CD1       61.3800  -31.1040   23.4890 C.3    34  LEU34       0.0001
     13  CD2       59.1320  -30.1600   22.9680 C.3    34  LEU34       0.0001
     14  N         59.4780  -34.0380   21.1810 N.am   35  ASN35      -0.1960
     15  CA        58.8390  -35.3520   21.2290 C.3    35  ASN35       0.1819
     16  C         57.5970  -35.4590   20.3260 C.2    35  ASN35       0.2621
     17  O         56.8080  -36.3930   20.4600 O.2    35  ASN35      -0.2715
     18  CB        58.5020  -35.7440   22.6780 C.3    35  ASN35       0.1195
     19  CG        57.6210  -34.7300   23.3830 C.2    35  ASN35       0.2630
     20  OD1       57.3530  -33.6460   22.8670 O.2    35  ASN35      -0.2716
     21  ND2       57.1800  -35.0780   24.5900 N.am   35  ASN35      -0.0877
     22  N         57.4450  -34.5230   19.3910 N.am   36  TYR36      -0.1974
     23  CA        56.2810  -34.5040   18.4930 C.3    36  TYR36       0.1639
     24  C         56.4340  -35.3860   17.2510 C.2    36  TYR36       0.2290
     25  O         55.4890  -35.5400   16.4750 O.2    36  TYR36      -0.2864
     26  CB        55.9520  -33.0700   18.0550 C.3    36  TYR36       0.0560
     27  CG        55.2540  -32.2640   19.1230 C.ar   36  TYR36      -0.0198
     28  CD1       55.9660  -31.7090   20.1780 C.ar   36  TYR36      -0.0009
     29  CD2       53.8710  -32.1070   19.1050 C.ar   36  TYR36      -0.0009
     30  CE1       55.3260  -30.9880   21.1660 C.ar   36  TYR36       0.0417
     31  CE2       53.2220  -31.3900   20.0940 C.ar   36  TYR36       0.0417
     32  CZ        53.9540  -30.8370   21.1250 C.ar   36  TYR36       0.1957
     33  OH        53.3110  -30.1150   22.1060 O.3    36  TYR36      -0.2866
     34  N         52.1230  -40.5620   20.4160 N.3    40  PHE40      -0.1241
     35  CA        51.5950  -40.5440   21.7730 C.3    40  PHE40       0.1605
     36  C         50.3750  -41.4460   21.8460 C.2    40  PHE40       0.2264
     37  O         49.5160  -41.4210   20.9590 O.2    40  PHE40      -0.2867
     38  CB        51.2270  -39.1230   22.2110 C.3    40  PHE40       0.0534
     39  CG        52.4130  -38.2690   22.5630 C.ar   40  PHE40      -0.0203
     40  CD1       53.2430  -37.7740   21.5760 C.ar   40  PHE40      -0.0042
     41  CD2       52.7080  -37.9800   23.8840 C.ar   40  PHE40      -0.0042
     42  CE1       54.3300  -36.9890   21.8990 C.ar   40  PHE40      -0.0003
     43  CE2       53.7980  -37.2020   24.2090 C.ar   40  PHE40      -0.0003
     44  CZ        54.6100  -36.7060   23.2170 C.ar   40  PHE40      -0.0000
     45  N         47.8290  -41.3290   24.0220 N.3    42  ARG42      -0.1231
     46  CA        46.5990  -40.5430   24.1320 C.3    42  ARG42       0.1694
     47  C         46.2300  -39.8850   22.8000 C.2    42  ARG42       0.2592
     48  O         45.0570  -39.8320   22.4400 O.2    42  ARG42      -0.2718
     49  CB        46.6730  -39.4880   25.2550 C.3    42  ARG42       0.0321
     50  CG        47.5680  -38.2840   25.0290 C.3    42  ARG42       0.0489
     51  CD        47.5310  -37.3580   26.2490 C.3    42  ARG42       0.2205
     52  NE        48.1910  -37.9060   27.4320 N.pl3  42  ARG42      -0.0865
     53  CZ        49.4910  -37.7920   27.6710 C.cat  42  ARG42       0.5346
     54  NH1       50.2560  -37.1350   26.8180 N.pl3  42  ARG42       0.1354
     55  NH2       50.0170  -38.3160   28.7690 N.pl3  42  ARG42       0.1354
     56  N         47.2240  -39.3890   22.0700 N.am   43  ASP43      -0.1974
     57  CA        46.9590  -38.7400   20.7870 C.3    43  ASP43       0.1709
     58  C         46.3630  -39.7060   19.7740 C.2    43  ASP43       0.2293
     59  O         45.4710  -39.3410   19.0150 O.2    43  ASP43      -0.2864
     60  CB        48.2320  -38.1210   20.2050 C.3    43  ASP43       0.1436
     61  CG        48.7190  -36.9270   20.9990 C.2    43  ASP43       0.3671
     62  OD1       48.6190  -36.9510   22.2420 O.co2  43  ASP43      -0.2456
     63  OD2       49.1850  -35.9530   20.3740 O.co2  43  ASP43      -0.2456
     64  N         58.9790  -43.9260   25.5130 N.3   102  ASP102     -0.1239
     65  CA        59.2000  -43.0360   26.6520 C.3   102  ASP102      0.1674
     66  C         58.1630  -43.3560   27.7170 C.2   102  ASP102      0.2266
     67  O         56.9870  -43.0230   27.5710 O.2   102  ASP102     -0.2867
     68  CB        59.0980  -41.5630   26.2410 C.3   102  ASP102      0.1410
     69  CG        59.1020  -40.6110   27.4390 C.2   102  ASP102      0.3668
     70  OD1       59.5040  -41.0200   28.5500 O.co2 102  ASP102     -0.2456
     71  OD2       58.6790  -39.4460   27.2690 O.co2 102  ASP102     -0.2456
     72  N         60.6540  -38.3440   29.5050 N.3   107  ALA107     -0.1231
     73  CA        59.6650  -37.2670   29.5260 C.3   107  ALA107      0.1694
     74  C         60.1620  -36.0430   30.2940 C.2   107  ALA107      0.2591
     75  O         60.8860  -36.1650   31.2850 O.2   107  ALA107     -0.2718
     76  CB        58.3590  -37.7650   30.1310 C.3   107  ALA107      0.0304
     77  N         59.7780  -34.8640   29.8100 N.am  108  ILE108     -0.1980
     78  CA        60.1120  -33.6080   30.4670 C.3   108  ILE108      0.1595
     79  C         59.4680  -33.6020   31.8490 C.2   108  ILE108      0.2287
     80  O         58.3040  -33.9770   31.9900 O.2   108  ILE108     -0.2864
     81  CB        59.6280  -32.3910   29.6430 C.3   108  ILE108      0.0276
     82  CG1       60.1930  -32.4380   28.2210 C.3   108  ILE108      0.0022
     83  CG2       59.9920  -31.0910   30.3380 C.3   108  ILE108      0.0022
     84  CD1       59.5560  -31.4340   27.2740 C.3   108  ILE108      0.0001
     85  N         57.2360  -36.7050   34.1200 N.3   111  VAL111     -0.1245
     86  CA        55.8330  -36.9750   34.4070 C.3   111  VAL111      0.1561
     87  C         55.4670  -38.4110   34.0180 C.2   111  VAL111      0.2260
     88  O         55.9380  -38.9280   33.0060 O.2   111  VAL111     -0.2867
     89  CB        54.9090  -35.9830   33.6650 C.3   111  VAL111      0.0252
     90  CG1       54.9900  -34.6000   34.2930 C.3   111  VAL111      0.0019
     91  CG2       55.2590  -35.9250   32.1840 C.3   111  VAL111      0.0019
     92  N         48.1520  -36.7440   33.3360 N.3   168  PHE168     -0.1241
     93  CA        47.2070  -37.0440   32.2540 C.3   168  PHE168      0.1605
     94  C         47.4510  -36.1580   31.0390 C.2   168  PHE168      0.2264
     95  O         48.6020  -35.8630   30.7200 O.2   168  PHE168     -0.2867
     96  CB        45.7450  -36.9370   32.7240 C.3   168  PHE168      0.0534
     97  CG        45.4150  -35.6900   33.5070 C.ar  168  PHE168     -0.0203
     98  CD1       45.7910  -35.5620   34.8330 C.ar  168  PHE168     -0.0042
     99  CD2       44.6750  -34.6700   32.9300 C.ar  168  PHE168     -0.0042
    100  CE1       45.4630  -34.4360   35.5540 C.ar  168  PHE168     -0.0003
    101  CE2       44.3390  -33.5420   33.6480 C.ar  168  PHE168     -0.0003
    102  CZ        44.7350  -33.4220   34.9630 C.ar  168  PHE168     -0.0000
    103  N         47.0780  -33.1720   30.7020 N.3   169  ILE169     -0.1231
    104  CA        47.8430  -32.0450   31.1710 C.3   169  ILE169      0.1692
    105  C         49.0590  -32.7500   31.7590 C.2   169  ILE169      0.2592
    106  O         48.9930  -33.3250   32.8410 O.2   169  ILE169     -0.2718
    107  CB        47.0750  -31.2180   32.2100 C.3   169  ILE169      0.0266
    108  CG1       45.8600  -30.5520   31.5540 C.3   169  ILE169      0.0019
    109  CG2       47.9790  -30.2010   32.8590 C.3   169  ILE169      0.0020
    110  CD1       44.8750  -29.9390   32.5280 C.3   169  ILE169      0.0001
    111  N         50.1690  -32.7010   31.0350 N.am  170  ASP170     -0.1960
    112  CA        51.3840  -33.4020   31.4380 C.3   170  ASP170      0.1840
    113  C         52.4880  -32.5120   32.0010 C.2   170  ASP170      0.2621
    114  O         53.6690  -32.8520   31.9320 O.2   170  ASP170     -0.2715
    115  CB        51.8780  -34.2760   30.2720 C.3   170  ASP170      0.1450
    116  CG        52.2560  -33.4830   29.0460 C.2   170  ASP170      0.3671
    117  OD1       51.9250  -32.2840   28.9670 O.co2 170  ASP170     -0.2456
    118  OD2       52.8250  -34.0980   28.1240 O.co2 170  ASP170     -0.2456
    119  N         52.0960  -31.3540   32.5170 N.am  171  ARG171     -0.1977
    120  CA        53.0400  -30.4220   33.1240 C.3   171  ARG171      0.1597
    121  C         52.4500  -29.9780   34.4600 C.2   171  ARG171      0.2287
    122  O         51.2780  -30.2310   34.7320 O.2   171  ARG171     -0.2864
    123  CB        53.3150  -29.2270   32.2060 C.3   171  ARG171      0.0334
    124  CG        54.0330  -29.6150   30.9240 C.3   171  ARG171      0.0492
    125  CD        53.9850  -28.5190   29.8770 C.3   171  ARG171      0.2205
    126  NE        54.9520  -27.4600   30.1550 N.pl3 171  ARG171     -0.0865
    127  CZ        56.1960  -27.4520   29.6890 C.cat 171  ARG171      0.5346
    128  NH1       56.6270  -28.4470   28.9260 N.pl3 171  ARG171      0.1354
    129  NH2       57.0080  -26.4460   29.9850 N.pl3 171  ARG171      0.1354
    130  N         55.4460  -22.1780   29.4000 N.3   341  LYS341     -0.1245
    131  CA        54.5590  -22.7430   28.3920 C.3   341  LYS341      0.1561
    132  C         53.0970  -22.6820   28.8330 C.2   341  LYS341      0.2260
    133  O         52.1900  -22.7380   28.0030 O.2   341  LYS341     -0.2867
    134  CB        54.9540  -24.1840   28.0500 C.3   341  LYS341      0.0271
    135  CG        54.2850  -24.6850   26.7720 C.3   341  LYS341      0.0035
    136  CD        54.8670  -25.9870   26.2480 C.3   341  LYS341      0.0206
    137  CE        54.3320  -26.2700   24.8440 C.3   341  LYS341      0.1093
    138  NZ        54.5340  -27.6820   24.4160 N.3   341  LYS341     -0.1314
    139  N         47.7840  -22.9650   26.3590 N.3   347  TYR347     -0.1227
    140  CA        48.1060  -24.3860   26.4650 C.3   347  TYR347      0.1736
    141  C         47.2130  -25.0660   27.5080 C.2   347  TYR347      0.2595
    142  O         45.9870  -25.0430   27.3860 O.2   347  TYR347     -0.2718
    143  CB        49.5940  -24.5430   26.8030 C.3   347  TYR347      0.0548
    144  CG        50.2390  -25.8280   26.3380 C.ar  347  TYR347     -0.0200
    145  CD1       50.0870  -26.2590   25.0320 C.ar  347  TYR347     -0.0009
    146  CD2       51.0530  -26.5700   27.1820 C.ar  347  TYR347     -0.0009
    147  CE1       50.6880  -27.4120   24.5840 C.ar  347  TYR347      0.0417
    148  CE2       51.6620  -27.7290   26.7420 C.ar  347  TYR347      0.0417
    149  CZ        51.4690  -28.1440   25.4430 C.ar  347  TYR347      0.1957
    150  OH        52.0700  -29.2880   24.9860 O.3   347  TYR347     -0.2866
    151  N         47.8230  -25.6790   28.5200 N.am  348  HIS348     -0.1975
    152  CA        47.0600  -26.3530   29.5740 C.3   348  HIS348      0.1656
    153  C         46.3300  -25.3660   30.4850 C.2   348  HIS348      0.2291
    154  O         45.2900  -25.6840   31.0590 O.2   348  HIS348     -0.2864
    155  CB        47.9670  -27.2300   30.4410 C.3   348  HIS348      0.0771
    156  CG        48.7060  -28.2850   29.6810 C.ar  348  HIS348      0.0820
    157  ND1       50.0130  -28.6230   29.9670 N.ar  348  HIS348     -0.2267
    158  CD2       48.3310  -29.0670   28.6400 C.ar  348  HIS348      0.1154
    159  CE1       50.4070  -29.5800   29.1460 C.ar  348  HIS348      0.1986
    160  NE2       49.4070  -29.8660   28.3290 N.ar  348  HIS348     -0.2212
    161  N         41.5610  -26.3760   22.9940 N.3   353  TRP353     -0.1241
    162  CA        42.1430  -27.5520   22.3460 C.3   353  TRP353      0.1605
    163  C         41.1680  -28.2180   21.3800 C.2   353  TRP353      0.2264
    164  O         40.1880  -28.8380   21.8050 O.2   353  TRP353     -0.2867
    165  CB        42.5970  -28.5600   23.4060 C.3   353  TRP353      0.0550
    166  CG        43.7830  -28.0980   24.1940 C.ar  353  TRP353      0.0003
    167  CD1       43.8060  -27.1240   25.1450 C.ar  353  TRP353      0.0946
    168  CD2       45.1190  -28.5980   24.0980 C.ar  353  TRP353      0.0152
    169  NE1       45.0770  -26.9790   25.6460 N.ar  353  TRP353     -0.2442
    170  CE2       45.9020  -27.8750   25.0210 C.ar  353  TRP353      0.0810
    171  CE3       45.7310  -29.5830   23.3180 C.ar  353  TRP353      0.0012
    172  CZ2       47.2610  -28.1090   25.1870 C.ar  353  TRP353      0.0191
    173  CZ3       47.0790  -29.8160   23.4860 C.ar  353  TRP353      0.0001
    174  CH2       47.8300  -29.0820   24.4120 C.ar  353  TRP353      0.0015
    175  N         47.8590  -27.1180   17.1600 N.3   391  GLU391     -0.1245
    176  CA        47.7790  -27.9510   18.3530 C.3   391  GLU391      0.1567
    177  C         46.8160  -27.3960   19.3940 C.2   391  GLU391      0.2260
    178  O         46.0720  -28.1410   20.0350 O.2   391  GLU391     -0.2867
    179  CB        49.1760  -28.0950   18.9610 C.3   391  GLU391      0.0388
    180  CG        49.2540  -28.9130   20.2290 C.3   391  GLU391      0.1160
    181  CD        50.6420  -28.8730   20.8370 C.2   391  GLU391      0.3649
    182  OE1       51.5200  -28.1920   20.2590 O.co2 391  GLU391     -0.2457
    183  OE2       50.8570  -29.5130   21.8890 O.co2 391  GLU391     -0.2457
    184  N         48.7550  -30.5760   13.8250 N.3   409  GLN409     -0.1245
    185  CA        48.6310  -31.4510   14.9840 C.3   409  GLN409      0.1566
    186  C         47.6110  -32.5250   14.6460 C.2   409  GLN409      0.2260
    187  O         46.4440  -32.2230   14.3870 O.2   409  GLN409     -0.2867
    188  CB        48.2060  -30.6690   16.2230 C.3   409  GLN409      0.0367
    189  CG        48.2200  -31.4730   17.5160 C.3   409  GLN409      0.0905
    190  CD        49.6180  -31.6920   18.0620 C.2   409  GLN409      0.2608
    191  OE1       50.5560  -30.9740   17.7130 O.2   409  GLN409     -0.2717
    192  NE2       49.7630  -32.6860   18.9300 N.am  409  GLN409     -0.0878
    193  N         45.8550  -34.9030   16.2080 N.3   411  TRP411     -0.1241
    194  CA        44.5870  -35.1010   16.9070 C.3   411  TRP411      0.1605
    195  C         43.6880  -33.8620   16.8300 C.2   411  TRP411      0.2264
    196  O         42.4970  -33.9400   17.1330 O.2   411  TRP411     -0.2867
    197  CB        44.8100  -35.5760   18.3520 C.3   411  TRP411      0.0550
    198  CG        45.3510  -34.6170   19.3730 C.ar  411  TRP411      0.0003
    199  CD1       45.8770  -33.3790   19.1610 C.ar  411  TRP411      0.0946
    200  CD2       45.4390  -34.8560   20.7850 C.ar  411  TRP411      0.0152
    201  NE1       46.2730  -32.8230   20.3590 N.ar  411  TRP411     -0.2442
    202  CE2       46.0150  -33.7130   21.3680 C.ar  411  TRP411      0.0810
    203  CE3       45.0770  -35.9270   21.6100 C.ar  411  TRP411      0.0012
    204  CZ2       46.2400  -33.6080   22.7390 C.ar  411  TRP411      0.0191
    205  CZ3       45.3020  -35.8230   22.9730 C.ar  411  TRP411      0.0001
    206  CH2       45.8780  -34.6720   23.5230 C.ar  411  TRP411      0.0015
@<TRIPOS>BOND
     1   184   185    1
     2   187   186    2
     3   186   185    1
     4   185   188    1
     5     3     4    2
     6     3     2    1
     7   193   194    1
     8   188   189    1
     9     1     2    1
    10    25    24    2
    11   195   194    1
    12   195   196    2
    13   194   197    1
    14     2     5    1
    15   175   176    1
    16    24    23    1
    17   189   190    1
    18   191   190    2
    19    26    23    1
    20    26    27    1
    21   190   192   am
    22   197   198    1
    23   176   179    1
    24   176   177    1
    25    23    22    1
    26   179   180    1
    27    59    58    2
    28    29    27   ar
    29    29    31   ar
    30    27    28   ar
    31   199   198   ar
    32   199   201   ar
    33     6     7    1
    34   198   200   ar
    35    22    16   am
    36   177   178    2
    37    58    57    1
    38    31    32   ar
    39    28    30   ar
    40    60    57    1
    41    60    61    1
    42   180   181    1
    43     9     8    2
    44   182   181   ar
    45    16    17    2
    46    16    15    1
    47   201   202   ar
    48    63    61   ar
    49    34    35    1
    50     7     8    1
    51     7    10    1
    52     8    14   am
    53   200   202   ar
    54   200   203   ar
    55    57    56    1
    56   181   183   ar
    57    37    36    2
    58    61    62   ar
    59    32    30   ar
    60    32    33    1
    61    14    15    1
    62    10    11    1
    63    15    18    1
    64   202   204   ar
    65   163   164    2
    66   163   162    1
    67    40    42   ar
    68    40    39   ar
    69   203   205   ar
    70    35    36    1
    71    35    38    1
    72    42    44   ar
    73    56    47   am
    74    38    39    1
    75   162   161    1
    76   162   165    1
    77    48    47    2
    78    39    41   ar
    79    18    19    1
    80    11    13    1
    81    11    12    1
    82   204   206   ar
    83    47    46    1
    84    20    19    2
    85   205   206   ar
    86    44    43   ar
    87   171   173   ar
    88   171   168   ar
    89    19    21   am
    90   165   166    1
    91   173   174   ar
    92    41    43   ar
    93    45    46    1
    94   168   166   ar
    95   168   170   ar
    96    46    49    1
    97   166   167   ar
    98   174   172   ar
    99   138   137    1
   100   147   145   ar
   101   147   149   ar
   102   137   136    1
   103   150   149    1
   104   170   172   ar
   105   170   169   ar
   106    50    49    1
   107    50    51    1
   108   145   144   ar
   109   167   169   ar
   110   149   148   ar
   111    64    65    1
   112    68    65    1
   113    68    69    1
   114   136   135    1
   115    51    52    1
   116   144   143    1
   117   144   146   ar
   118   139   140    1
   119   140   143    1
   120   140   141    1
   121    65    66    1
   122   148   146   ar
   123   135   134    1
   124    54    53    1
   125    71    69   ar
   126    84    82    1
   127   142   141    2
   128    52    53    2
   129    69    70   ar
   130   141   151   am
   131    67    66    2
   132    53    55    1
   133   133   132    2
   134   134   131    1
   135   118   116   ar
   136    82    81    1
   137   160   158   ar
   138   160   159   ar
   139   131   132    1
   140   131   130    1
   141   151   152    1
   142   158   156   ar
   143   128   127    1
   144   117   116   ar
   145   116   115    1
   146   159   157   ar
   147    72    73    1
   148    73    76    1
   149    73    74    1
   150   152   155    1
   151   152   153    1
   152    81    83    1
   153    81    78    1
   154   156   157   ar
   155   156   155    1
   156   127   129    1
   157   127   126    2
   158    77    74   am
   159    77    78    1
   160   125   126    1
   161   125   124    1
   162   115   112    1
   163    74    75    2
   164    78    79    1
   165   153   154    2
   166   103   104    1
   167    95    94    2
   168   124   123    1
   169   111   112    1
   170   111   105   am
   171    94    93    1
   172   104   105    1
   173   104   107    1
   174   112   113    1
   175   108   107    1
   176   108   110    1
   177   105   106    2
   178    79    80    2
   179   114   113    2
   180   113   119   am
   181    91    89    1
   182   123   120    1
   183   107   109    1
   184    93    96    1
   185    93    92    1
   186   119   120    1
   187    96    97    1
   188    99    97   ar
   189    99   101   ar
   190    88    87    2
   191   120   121    1
   192    97    98   ar
   193   101   102   ar
   194    89    90    1
   195    89    86    1
   196    87    86    1
   197    85    86    1
   198   121   122    2
   199    98   100   ar
   200   102   100   ar
