@<TRIPOS>MOLECULE
tmp/5goqC00.pdb
 130 127 0 0 0
SMALL
GASTEIGER

@<TRIPOS>ATOM
      1  N         14.4810  -12.8520   70.1110 N.3    26  ALA26      -0.1245
      2  CA        15.1350  -12.5260   68.8500 C.3    26  ALA26       0.1562
      3  C         14.9060  -13.6250   67.8290 C.2    26  ALA26       0.2260
      4  O         14.5690  -13.3640   66.6770 O.2    26  ALA26      -0.2867
      5  CB        16.6180  -12.2920   69.0580 C.3    26  ALA26       0.0290
      6  N         15.6960   -8.0350   72.4230 N.3    34  PHE34      -0.1241
      7  CA        16.4170   -6.8410   72.0090 C.3    34  PHE34       0.1605
      8  C         15.4160   -5.7150   71.7790 C.2    34  PHE34       0.2264
      9  O         14.3540   -5.9310   71.1880 O.2    34  PHE34      -0.2867
     10  CB        17.2310   -7.1000   70.7340 C.3    34  PHE34       0.0534
     11  CG        18.4920   -7.9010   70.9560 C.ar   34  PHE34      -0.0203
     12  CD1       18.4370   -9.2770   71.1400 C.ar   34  PHE34      -0.0042
     13  CD2       19.7320   -7.2790   70.9850 C.ar   34  PHE34      -0.0042
     14  CE1       19.5930  -10.0140   71.3350 C.ar   34  PHE34      -0.0003
     15  CE2       20.8910   -8.0110   71.1870 C.ar   34  PHE34      -0.0003
     16  CZ        20.8210   -9.3780   71.3640 C.ar   34  PHE34      -0.0000
     17  N         15.7030   -2.8850   69.8630 N.3    36  ARG36      -0.1231
     18  CA        15.5520   -2.5530   68.4530 C.3    36  ARG36       0.1694
     19  C         14.7570   -3.6480   67.7290 C.2    36  ARG36       0.2592
     20  O         13.9550   -3.3490   66.8490 O.2    36  ARG36      -0.2718
     21  CB        16.9220   -2.3330   67.7810 C.3    36  ARG36       0.0321
     22  CG        17.6890   -3.5980   67.4120 C.3    36  ARG36       0.0489
     23  CD        18.9500   -3.2860   66.6350 C.3    36  ARG36       0.2205
     24  NE        19.8680   -2.4960   67.4420 N.pl3  36  ARG36      -0.0865
     25  CZ        20.7620   -3.0080   68.2800 C.cat  36  ARG36       0.5346
     26  NH1       20.8790   -4.3200   68.4140 N.pl3  36  ARG36       0.1354
     27  NH2       21.5430   -2.2040   68.9790 N.pl3  36  ARG36       0.1354
     28  N         14.9630   -4.9120   68.1020 N.am   37  ASP37      -0.1974
     29  CA        14.2510   -6.0170   67.4480 C.3    37  ASP37       0.1709
     30  C         12.7430   -6.0000   67.6990 C.2    37  ASP37       0.2293
     31  O         11.9660   -6.4490   66.8570 O.2    37  ASP37      -0.2864
     32  CB        14.7990   -7.3820   67.8890 C.3    37  ASP37       0.1436
     33  CG        16.1540   -7.7030   67.2850 C.2    37  ASP37       0.3671
     34  OD1       17.1110   -6.9280   67.5020 O.co2  37  ASP37      -0.2456
     35  OD2       16.2560   -8.7270   66.5740 O.co2  37  ASP37      -0.2456
     36  N         24.0120   -2.1460   63.1730 N.3   163  ILE163     -0.1231
     37  CA        25.3310   -2.6770   62.9540 C.3   163  ILE163      0.1692
     38  C         26.0340   -2.5170   64.3130 C.2   163  ILE163      0.2592
     39  O         26.4800   -1.4280   64.6690 O.2   163  ILE163     -0.2718
     40  CB        26.0350   -1.9290   61.8350 C.3   163  ILE163      0.0266
     41  CG1       25.2330   -2.0980   60.5420 C.3   163  ILE163      0.0019
     42  CG2       27.4790   -2.3820   61.7180 C.3   163  ILE163      0.0020
     43  CD1       25.7130   -1.2530   59.3850 C.3   163  ILE163      0.0001
     44  N         26.0840   -3.6060   65.0810 N.am  164  ASP164     -0.1974
     45  CA        26.6460   -3.6100   66.4350 C.3   164  ASP164      0.1709
     46  C         28.0920   -4.0960   66.5010 C.2   164  ASP164      0.2293
     47  O         28.6130   -4.3860   67.5780 O.2   164  ASP164     -0.2864
     48  CB        25.7570   -4.4050   67.4030 C.3   164  ASP164      0.1436
     49  CG        25.3590   -5.7570   66.8800 C.2   164  ASP164      0.3671
     50  OD1       25.8880   -6.1880   65.8340 O.co2 164  ASP164     -0.2456
     51  OD2       24.4910   -6.3890   67.5150 O.co2 164  ASP164     -0.2456
     52  N         26.5210  -10.4970   56.4450 N.3   341  TYR341     -0.1227
     53  CA        26.1120   -9.8120   57.6680 C.3   341  TYR341      0.1736
     54  C         26.0030   -8.3050   57.4930 C.2   341  TYR341      0.2595
     55  O         25.2970   -7.8260   56.6090 O.2   341  TYR341     -0.2718
     56  CB        27.0940  -10.1700   58.7860 C.3   341  TYR341      0.0548
     57  CG        26.5090  -10.1660   60.1720 C.ar  341  TYR341     -0.0200
     58  CD1       25.2370  -10.6440   60.4110 C.ar  341  TYR341     -0.0009
     59  CD2       27.2610   -9.7220   61.2560 C.ar  341  TYR341     -0.0009
     60  CE1       24.7140  -10.6490   61.6810 C.ar  341  TYR341      0.0417
     61  CE2       26.7470   -9.7270   62.5260 C.ar  341  TYR341      0.0417
     62  CZ        25.4750  -10.1920   62.7340 C.ar  341  TYR341      0.1957
     63  OH        24.9690  -10.1990   64.0060 O.3   341  TYR341     -0.2866
     64  N         26.6760   -7.5680   58.3660 N.am  342  HIS342     -0.1975
     65  CA        26.6680   -6.1120   58.3280 C.3   342  HIS342      0.1656
     66  C         27.3060   -5.5870   57.0520 C.2   342  HIS342      0.2291
     67  O         26.8730   -4.5810   56.4940 O.2   342  HIS342     -0.2864
     68  CB        27.3490   -5.5250   59.5630 C.3   342  HIS342      0.0771
     69  CG        26.6680   -5.8780   60.8480 C.ar  342  HIS342      0.0820
     70  ND1       27.3600   -6.2330   61.9850 N.ar  342  HIS342     -0.2267
     71  CD2       25.3550   -5.9450   61.1710 C.ar  342  HIS342      0.1154
     72  CE1       26.5040   -6.4910   62.9560 C.ar  342  HIS342      0.1986
     73  NE2       25.2810   -6.3240   62.4880 N.ar  342  HIS342     -0.2212
     74  N         18.8640   -8.0290   54.6000 N.3   347  TRP347     -0.1241
     75  CA        18.1840   -8.2230   55.8810 C.3   347  TRP347      0.1605
     76  C         16.6860   -8.1080   55.7380 C.2   347  TRP347      0.2264
     77  O         16.1590   -7.0310   55.4830 O.2   347  TRP347     -0.2867
     78  CB        18.6690   -7.2030   56.9110 C.3   347  TRP347      0.0550
     79  CG        20.0810   -7.4100   57.3280 C.ar  347  TRP347      0.0003
     80  CD1       21.2000   -7.2950   56.5450 C.ar  347  TRP347      0.0946
     81  CD2       20.5400   -7.7790   58.6320 C.ar  347  TRP347      0.0152
     82  NE1       22.3300   -7.5680   57.2860 N.ar  347  TRP347     -0.2442
     83  CE2       21.9520   -7.8660   58.5700 C.ar  347  TRP347      0.0810
     84  CE3       19.8950   -8.0570   59.8450 C.ar  347  TRP347      0.0012
     85  CZ2       22.7210   -8.2090   59.6700 C.ar  347  TRP347      0.0191
     86  CZ3       20.6600   -8.3860   60.9340 C.ar  347  TRP347      0.0001
     87  CH2       22.0610   -8.4640   60.8420 C.ar  347  TRP347      0.0015
     88  N         17.7510  -14.8060   59.6860 N.3   385  GLU385     -0.1245
     89  CA        18.1250  -13.4900   60.1780 C.3   385  GLU385      0.1567
     90  C         18.6510  -12.5610   59.0780 C.2   385  GLU385      0.2260
     91  O         18.3970  -11.3570   59.1020 O.2   385  GLU385     -0.2867
     92  CB        19.1750  -13.6570   61.2770 C.3   385  GLU385      0.0388
     93  CG        19.6610  -12.3890   61.9170 C.3   385  GLU385      0.1160
     94  CD        20.8560  -12.6360   62.8020 C.2   385  GLU385      0.3649
     95  OE1       21.2030  -13.8150   63.0160 O.co2 385  GLU385     -0.2457
     96  OE2       21.4510  -11.6550   63.2930 O.co2 385  GLU385     -0.2457
     97  N         20.6280  -16.8670   62.0620 N.3   400  ARG400     -0.1245
     98  CA        19.7670  -17.6580   62.9360 C.3   400  ARG400      0.1563
     99  C         18.4820  -17.9130   62.1530 C.2   400  ARG400      0.2260
    100  O         18.0720  -17.0660   61.3550 O.2   400  ARG400     -0.2867
    101  CB        19.3820  -16.9110   64.2250 C.3   400  ARG400      0.0307
    102  CG        20.4120  -16.6880   65.3400 C.3   400  ARG400      0.0489
    103  CD        19.8990  -15.4640   66.1420 C.3   400  ARG400      0.2205
    104  NE        20.8070  -14.8470   67.1110 N.pl3 400  ARG400     -0.0865
    105  CZ        21.4730  -13.7160   66.8930 C.cat 400  ARG400      0.5346
    106  NH1       22.2710  -13.2160   67.8310 N.pl3 400  ARG400      0.1354
    107  NH2       21.3340  -13.0800   65.7330 N.pl3 400  ARG400      0.1354
    108  N         14.0370  -16.0420   62.7790 N.3   403  GLN403     -0.1245
    109  CA        14.3880  -14.7440   63.3540 C.3   403  GLN403      0.1566
    110  C         13.1300  -13.8910   63.4400 C.2   403  GLN403      0.2260
    111  O         12.4970  -13.5920   62.4290 O.2   403  GLN403     -0.2867
    112  CB        15.4460  -14.0380   62.5060 C.3   403  GLN403      0.0367
    113  CG        15.9490  -12.7370   63.1050 C.3   403  GLN403      0.0905
    114  CD        16.9750  -12.9530   64.1960 C.2   403  GLN403      0.2608
    115  OE1       17.6320  -13.9930   64.2420 O.2   403  GLN403     -0.2717
    116  NE2       17.1070  -11.9800   65.0920 N.am  403  GLN403     -0.0878
    117  N         12.2580  -10.6700   63.9390 N.3   405  TRP405     -0.1241
    118  CA        12.0140   -9.4360   63.1910 C.3   405  TRP405      0.1605
    119  C         12.0590   -9.6600   61.6720 C.2   405  TRP405      0.2264
    120  O         11.5860   -8.8160   60.9110 O.2   405  TRP405     -0.2867
    121  CB        12.9420   -8.2950   63.6540 C.3   405  TRP405      0.0550
    122  CG        14.4150   -8.3800   63.3820 C.ar  405  TRP405      0.0003
    123  CD1       15.1160   -9.4520   62.9130 C.ar  405  TRP405      0.0946
    124  CD2       15.3800   -7.3500   63.6380 C.ar  405  TRP405      0.0152
    125  NE1       16.4540   -9.1410   62.8270 N.ar  405  TRP405     -0.2442
    126  CE2       16.6420   -7.8590   63.2700 C.ar  405  TRP405      0.0810
    127  CE3       15.2950   -6.0360   64.1220 C.ar  405  TRP405      0.0012
    128  CZ2       17.8110   -7.1030   63.3680 C.ar  405  TRP405      0.0191
    129  CZ3       16.4600   -5.2840   64.2230 C.ar  405  TRP405      0.0001
    130  CH2       17.7010   -5.8220   63.8480 C.ar  405  TRP405      0.0015
@<TRIPOS>BOND
     1    74    75    1
     2    77    76    2
     3    76    75    1
     4    75    78    1
     5    52    53    1
     6    67    66    2
     7    80    82   ar
     8    80    79   ar
     9    55    54    2
    10    78    79    1
    11    66    65    1
    12    82    83   ar
    13    79    81   ar
    14    54    53    1
    15    54    64   am
    16    53    56    1
    17    65    64    1
    18    65    68    1
    19    83    81   ar
    20    83    85   ar
    21    81    84   ar
    22    56    57    1
    23    90    91    2
    24    90    89    1
    25    43    41    1
    26    68    69    1
    27    85    87   ar
    28    88    89    1
    29    84    86   ar
    30    57    58   ar
    31    57    59   ar
    32    89    92    1
    33    58    60   ar
    34    41    40    1
    35    87    86   ar
    36    69    71   ar
    37    69    70   ar
    38   120   119    2
    39    71    73   ar
    40    59    61   ar
    41    92    93    1
    42   100    99    2
    43   119   118    1
    44    60    62   ar
    45    42    40    1
    46    40    37    1
    47    93    94    1
    48    70    72   ar
    49    97    98    1
    50    99    98    1
    51   111   110    2
    52    73    72   ar
    53   112   113    1
    54   112   109    1
    55    61    62   ar
    56    62    63    1
    57   108   109    1
    58    94    95   ar
    59    94    96   ar
    60   125   123   ar
    61   125   126   ar
    62   123   122   ar
    63    98   101    1
    64    37    36    1
    65    37    38    1
    66   113   114    1
    67   118   121    1
    68   118   117    1
    69   126   128   ar
    70   126   124   ar
    71   109   110    1
    72   128   130   ar
    73   122   124   ar
    74   122   121    1
    75   124   127   ar
    76   130   129   ar
    77   127   129   ar
    78   114   115    2
    79   114   116   am
    80   101   102    1
    81    38    39    2
    82    38    44   am
    83    44    45    1
    84   102   103    1
    85   107   105    1
    86    50    49   ar
    87   103   104    1
    88    45    46    1
    89    45    48    1
    90    46    47    2
    91    35    33   ar
    92    23    22    1
    93    23    24    1
    94     4     3    2
    95    20    19    2
    96    31    30    2
    97    49    48    1
    98    49    51   ar
    99   105   104    2
   100   105   106    1
   101    33    34   ar
   102    33    32    1
   103    22    21    1
   104    24    25    2
   105    29    30    1
   106    29    32    1
   107    29    28    1
   108    19    28   am
   109    19    18    1
   110    21    18    1
   111     3     2    1
   112    25    26    1
   113    25    27    1
   114    18    17    1
   115     2     5    1
   116     2     1    1
   117    10    11    1
   118    10     7    1
   119    11    13   ar
   120    11    12   ar
   121    13    15   ar
   122    12    14   ar
   123    15    16   ar
   124     9     8    2
   125    14    16   ar
   126     8     7    1
   127     7     6    1
