@<TRIPOS>MOLECULE
tmp/5goyA00.pdb
 104 103 0 0 0
SMALL
GASTEIGER

@<TRIPOS>ATOM
      1  N        -16.4100  -21.6410   20.1380 N.3    46  ALA46      -0.1231
      2  CA       -16.5330  -23.0890   20.0260 C.3    46  ALA46       0.1694
      3  C        -15.2030  -23.7640   20.3500 C.2    46  ALA46       0.2592
      4  O        -14.1610  -23.3710   19.8320 O.2    46  ALA46      -0.2718
      5  CB       -17.0050  -23.4730   18.6370 C.3    46  ALA46       0.0304
      6  N        -15.2500  -24.7670   21.2210 N.am   47  LEU47      -0.1966
      7  CA       -14.0460  -25.4450   21.6950 C.3    47  LEU47       0.1713
      8  C        -13.4370  -26.3240   20.6080 C.2    47  LEU47       0.2458
      9  O        -13.9960  -27.3610   20.2650 O.2    47  LEU47      -0.2730
     10  CB       -14.3640  -26.2930   22.9310 C.3    47  LEU47       0.0310
     11  CG       -15.1890  -25.6250   24.0350 C.3    47  LEU47       0.0022
     12  CD1      -15.5930  -26.6380   25.0940 C.3    47  LEU47       0.0001
     13  CD2      -14.4280  -24.4670   24.6620 C.3    47  LEU47       0.0001
     14  N        -12.2790  -25.9170   20.0680 N.am   48  PRO48      -0.2716
     15  CA       -11.6610  -26.6790   18.9780 C.3    48  PRO48       0.1536
     16  C        -11.2420  -28.0710   19.4250 C.2    48  PRO48       0.2598
     17  O        -10.7450  -28.2290   20.5410 O.2    48  PRO48      -0.2715
     18  CB       -10.4380  -25.8350   18.6080 C.3    48  PRO48       0.0310
     19  CG       -10.1160  -25.0870   19.8500 C.3    48  PRO48       0.0237
     20  CD       -11.4360  -24.7890   20.4990 C.3    48  PRO48       0.0939
     21  N        -11.4600  -29.0670   18.5720 N.am   49  TYR49      -0.1974
     22  CA       -11.0100  -30.4200   18.8640 C.3    49  TYR49       0.1639
     23  C         -9.4920  -30.4110   19.0280 C.2    49  TYR49       0.2290
     24  O         -8.7680  -29.9510   18.1460 O.2    49  TYR49      -0.2864
     25  CB       -11.4410  -31.3900   17.7660 C.3    49  TYR49       0.0560
     26  CG       -10.8410  -32.7680   17.9200 C.ar   49  TYR49      -0.0198
     27  CD1      -11.2380  -33.6070   18.9550 C.ar   49  TYR49      -0.0009
     28  CD2       -9.8760  -33.2280   17.0350 C.ar   49  TYR49      -0.0009
     29  CE1      -10.6890  -34.8660   19.1030 C.ar   49  TYR49       0.0417
     30  CE2       -9.3230  -34.4850   17.1720 C.ar   49  TYR49       0.0417
     31  CZ        -9.7310  -35.2990   18.2090 C.ar   49  TYR49       0.1957
     32  OH        -9.1810  -36.5520   18.3500 O.3    49  TYR49      -0.2866
     33  N        -11.5620  -29.1430   23.1910 N.3    87  ASP87      -0.1239
     34  CA       -12.4550  -30.2960   23.2140 C.3    87  ASP87       0.1674
     35  C        -11.6080  -31.5550   23.0550 C.2    87  ASP87       0.2266
     36  O        -10.9830  -31.7560   22.0130 O.2    87  ASP87      -0.2867
     37  CB       -13.4900  -30.1780   22.0910 C.3    87  ASP87       0.1410
     38  CG       -14.5980  -31.2070   22.1910 C.2    87  ASP87       0.3668
     39  OD1      -14.4300  -32.2210   22.9040 O.co2  87  ASP87      -0.2456
     40  OD2      -15.6420  -30.9990   21.5360 O.co2  87  ASP87      -0.2456
     41  N        -20.5720  -34.9370   22.3530 N.3   293  TRP293     -0.1241
     42  CA       -21.3730  -33.7830   21.9780 C.3   293  TRP293      0.1605
     43  C        -22.5520  -33.5480   22.9210 C.2   293  TRP293      0.2264
     44  O        -23.2840  -32.5670   22.7750 O.2   293  TRP293     -0.2867
     45  CB       -21.8700  -33.9310   20.5410 C.3   293  TRP293      0.0550
     46  CG       -21.1190  -33.0760   19.5560 C.ar  293  TRP293      0.0003
     47  CD1      -20.4950  -33.4920   18.4130 C.ar  293  TRP293      0.0946
     48  CD2      -20.9150  -31.6570   19.6300 C.ar  293  TRP293      0.0152
     49  NE1      -19.9200  -32.4200   17.7700 N.ar  293  TRP293     -0.2442
     50  CE2      -20.1640  -31.2830   18.4970 C.ar  293  TRP293      0.0810
     51  CE3      -21.2970  -30.6670   20.5420 C.ar  293  TRP293      0.0012
     52  CZ2      -19.7890  -29.9640   18.2520 C.ar  293  TRP293      0.0191
     53  CZ3      -20.9240  -29.3600   20.2990 C.ar  293  TRP293      0.0001
     54  CH2      -20.1810  -29.0200   19.1620 C.ar  293  TRP293      0.0015
     55  N        -19.8580  -31.7590   25.6510 N.3   296  ALA296     -0.1231
     56  CA       -18.8670  -30.8190   25.1290 C.3   296  ALA296      0.1694
     57  C        -19.3070  -29.3900   25.4130 C.2   296  ALA296      0.2592
     58  O        -18.5010  -28.5370   25.7850 O.2   296  ALA296     -0.2718
     59  CB       -18.6560  -31.0190   23.6360 C.3   296  ALA296      0.0304
     60  N        -20.6010  -29.1460   25.2380 N.am  297  THR297     -0.1953
     61  CA       -21.1850  -27.8330   25.4710 C.3   297  THR297      0.1897
     62  C        -21.2330  -27.5080   26.9630 C.2   297  THR297      0.2313
     63  O        -21.3230  -26.3440   27.3540 O.2   297  THR297     -0.2863
     64  CB       -22.5990  -27.7510   24.8790 C.3   297  THR297      0.1794
     65  OG1      -23.2550  -26.5750   25.3670 O.3   297  THR297     -0.2208
     66  CG2      -23.4040  -28.9810   25.2710 C.3   297  THR297      0.0378
     67  N        -18.1260  -25.4370   28.4470 N.3   300  TYR300     -0.1241
     68  CA       -18.1890  -23.9930   28.6690 C.3   300  TYR300      0.1605
     69  C        -18.3230  -23.6730   30.1510 C.2   300  TYR300      0.2264
     70  O        -17.6760  -22.7630   30.6640 O.2   300  TYR300     -0.2867
     71  CB       -19.3650  -23.3700   27.9110 C.3   300  TYR300      0.0534
     72  CG       -19.2690  -23.4290   26.4020 C.ar  300  TYR300     -0.0201
     73  CD1      -18.1260  -23.0050   25.7360 C.ar  300  TYR300     -0.0009
     74  CD2      -20.3300  -23.9040   25.6430 C.ar  300  TYR300     -0.0009
     75  CE1      -18.0450  -23.0570   24.3550 C.ar  300  TYR300      0.0417
     76  CE2      -20.2570  -23.9610   24.2670 C.ar  300  TYR300      0.0417
     77  CZ       -19.1150  -23.5360   23.6270 C.ar  300  TYR300      0.1957
     78  OH       -19.0450  -23.5960   22.2550 O.3   300  TYR300     -0.2866
     79  N        -21.7210  -26.0050   11.5040 N.3   330  ASP330     -0.1225
     80  CA       -21.9400  -27.3820   11.9380 C.3   330  ASP330      0.1805
     81  C        -22.1700  -27.5210   13.4450 C.2   330  ASP330      0.2597
     82  O        -22.6820  -28.5420   13.9040 O.2   330  ASP330     -0.2718
     83  CB       -20.7530  -28.2530   11.5160 C.3   330  ASP330      0.1424
     84  CG       -19.4170  -27.6710   11.9490 C.2   330  ASP330      0.3668
     85  OD1      -19.3950  -26.5270   12.4540 O.co2 330  ASP330     -0.2456
     86  OD2      -18.3860  -28.3560   11.7800 O.co2 330  ASP330     -0.2456
     87  N        -21.7950  -26.4970   14.2070 N.am  331  ASN331     -0.1974
     88  CA       -21.9320  -26.5310   15.6610 C.3   331  ASN331      0.1688
     89  C        -23.2860  -26.0310   16.1570 C.2   331  ASN331      0.2292
     90  O        -23.6690  -26.3060   17.2950 O.2   331  ASN331     -0.2864
     91  CB       -20.8200  -25.7070   16.3160 C.3   331  ASN331      0.1181
     92  CG       -19.4820  -26.4230   16.3150 C.2   331  ASN331      0.2629
     93  OD1      -19.2990  -27.4300   15.6290 O.2   331  ASN331     -0.2716
     94  ND2      -18.5380  -25.9030   17.0860 N.am  331  ASN331     -0.0877
     95  N        -25.7810  -26.0830   19.9960 N.3   335  HIS335     -0.1241
     96  CA       -25.8420  -24.8740   20.8080 C.3   335  HIS335      0.1621
     97  C        -27.2360  -24.2420   20.8120 C.2   335  HIS335      0.2264
     98  O        -27.5710  -23.4760   21.7170 O.2   335  HIS335     -0.2867
     99  CB       -24.8090  -23.8550   20.3190 C.3   335  HIS335      0.0745
    100  CG       -23.3890  -24.2960   20.5020 C.ar  335  HIS335      0.0817
    101  ND1      -22.8090  -25.2800   19.7290 N.ar  335  HIS335     -0.2268
    102  CD2      -22.4300  -23.8830   21.3640 C.ar  335  HIS335      0.1154
    103  CE1      -21.5560  -25.4540   20.1090 C.ar  335  HIS335      0.1986
    104  NE2      -21.3000  -24.6180   21.1010 N.ar  335  HIS335     -0.2212
@<TRIPOS>BOND
     1    79    80    1
     2    83    80    1
     3    83    84    1
     4    86    84   ar
     5    80    81    1
     6    84    85   ar
     7    81    82    2
     8    81    87   am
     9    87    88    1
    10    93    92    2
    11    88    89    1
    12    88    91    1
    13    89    90    2
    14    92    91    1
    15    92    94   am
    16    28    30   ar
    17    28    26   ar
    18    30    31   ar
    19    25    26    1
    20    25    22    1
    21    49    47   ar
    22    49    50   ar
    23    26    27   ar
    24    24    23    2
    25    31    32    1
    26    31    29   ar
    27    52    50   ar
    28    52    54   ar
    29    47    46   ar
    30    50    48   ar
    31    21    22    1
    32    21    16   am
    33    18    15    1
    34    18    19    1
    35     5     2    1
    36    22    23    1
    37    27    29   ar
    38    15    16    1
    39    15    14    1
    40    54    53   ar
    41    16    17    2
    42    46    48   ar
    43    46    45    1
    44    48    51   ar
    45   101   103   ar
    46   101   100   ar
    47     4     3    2
    48    19    20    1
    49    95    96    1
    50     2     1    1
    51     2     3    1
    52    14    20    1
    53    14     8   am
    54   103   104   ar
    55     9     8    2
    56    53    51   ar
    57    99   100    1
    58    99    96    1
    59     3     6   am
    60   100   102   ar
    61    45    42    1
    62     8     7    1
    63    96    97    1
    64    97    98    2
    65   104   102   ar
    66     6     7    1
    67    40    38   ar
    68     7    10    1
    69    42    41    1
    70    42    43    1
    71    36    35    2
    72    37    38    1
    73    37    34    1
    74    38    39   ar
    75    78    77    1
    76    44    43    2
    77    10    11    1
    78    35    34    1
    79    33    34    1
    80    77    76   ar
    81    77    75   ar
    82    59    56    1
    83    11    13    1
    84    11    12    1
    85    76    74   ar
    86    75    73   ar
    87    64    66    1
    88    64    65    1
    89    64    61    1
    90    56    57    1
    91    56    55    1
    92    60    57   am
    93    60    61    1
    94    57    58    2
    95    61    62    1
    96    74    72   ar
    97    73    72   ar
    98    72    71    1
    99    62    63    2
   100    71    68    1
   101    67    68    1
   102    68    69    1
   103    69    70    2
