@<TRIPOS>MOLECULE
tmp/5gozA00.pdb
 115 107 0 0 0
SMALL
GASTEIGER

@<TRIPOS>ATOM
      1  N         18.1660   68.7620   -3.5690 N.3    10  LYS10      -0.1245
      2  CA        18.8540   67.6170   -4.1540 C.3    10  LYS10       0.1561
      3  C         19.0150   67.7810   -5.6570 C.2    10  LYS10       0.2260
      4  O         20.0760   67.4740   -6.2120 O.2    10  LYS10      -0.2867
      5  CB        18.0880   66.3350   -3.8370 C.3    10  LYS10       0.0271
      6  CG        18.7900   65.0720   -4.2780 C.3    10  LYS10       0.0035
      7  CD        19.9680   64.7710   -3.3790 C.3    10  LYS10       0.0206
      8  CE        20.6210   63.4630   -3.7590 C.3    10  LYS10       0.1093
      9  NZ        21.8380   63.2050   -2.9500 N.3    10  LYS10      -0.1314
     10  N         21.5760   70.2690   -6.2630 N.3    13  LEU13      -0.1231
     11  CA        22.8500   69.6750   -5.8760 C.3    13  LEU13       0.1693
     12  C         23.4230   68.8340   -7.0090 C.2    13  LEU13       0.2592
     13  O         24.6090   68.9370   -7.3400 O.2    13  LEU13      -0.2718
     14  CB        22.6620   68.8310   -4.6160 C.3    13  LEU13       0.0284
     15  CG        23.8990   68.2030   -3.9820 C.3    13  LEU13       0.0019
     16  CD1       24.7510   69.2650   -3.3210 C.3    13  LEU13       0.0001
     17  CD2       23.4960   67.1340   -2.9830 C.3    13  LEU13       0.0001
     18  N         22.5850   68.0020   -7.6270 N.am   14  ASN14      -0.1974
     19  CA        23.0350   67.1370   -8.7100 C.3    14  ASN14       0.1688
     20  C         23.3580   67.8980   -9.9880 C.2    14  ASN14       0.2292
     21  O         23.9350   67.3080  -10.9070 O.2    14  ASN14      -0.2864
     22  CB        21.9760   66.0730   -9.0030 C.3    14  ASN14       0.1181
     23  CG        21.8320   65.0670   -7.8800 C.2    14  ASN14       0.2629
     24  OD1       20.7240   64.6570   -7.5380 O.2    14  ASN14      -0.2716
     25  ND2       22.9520   64.6640   -7.3020 N.am   14  ASN14      -0.0877
     26  N         25.1060   70.9160   -9.9640 N.3    16  MET16      -0.1230
     27  CA        26.2540   71.7870   -9.7710 C.3    16  MET16       0.1702
     28  C         27.4650   71.2570  -10.5250 C.2    16  MET16       0.2593
     29  O         27.6670   70.0470  -10.6520 O.2    16  MET16      -0.2718
     30  CB        26.5940   71.9120   -8.2890 C.3    16  MET16       0.0401
     31  CG        25.4370   72.3440   -7.4230 C.3    16  MET16       0.0596
     32  SD        25.8290   72.1780   -5.6780 S.3    16  MET16      -0.1393
     33  CE        26.0350   73.8890   -5.2040 C.3    16  MET16       0.0692
     34  N         28.2790   72.1800  -11.0250 N.am   17  SER17      -0.1938
     35  CA        29.5210   71.7900  -11.6670 C.3    17  SER17       0.2055
     36  C         30.4870   71.2190  -10.6330 C.2    17  SER17       0.2642
     37  O         30.2620   71.2890   -9.4210 O.2    17  SER17      -0.2714
     38  CB        30.1460   72.9790  -12.3930 C.3    17  SER17       0.2130
     39  OG        30.3710   74.0530  -11.5010 O.3    17  SER17      -0.2179
     40  N         31.5850   70.6480  -11.1330 N.am   18  ALA18      -0.1977
     41  CA        32.5190   69.9340  -10.2670 C.3    18  ALA18       0.1597
     42  C         33.0160   70.8200   -9.1330 C.2    18  ALA18       0.2287
     43  O         32.9570   70.4340   -7.9580 O.2    18  ALA18      -0.2864
     44  CB        33.6890   69.4010  -11.0920 C.3    18  ALA18       0.0319
     45  N         30.0830   72.1400   -6.7610 N.3    21  PHE21      -0.1241
     46  CA        29.8250   71.1890   -5.6880 C.3    21  PHE21       0.1605
     47  C         30.9950   71.1310   -4.7170 C.2    21  PHE21       0.2264
     48  O         30.7960   71.0070   -3.5040 O.2    21  PHE21      -0.2867
     49  CB        29.5440   69.8050   -6.2690 C.3    21  PHE21       0.0534
     50  CG        29.3540   68.7350   -5.2280 C.ar   21  PHE21      -0.0203
     51  CD1       28.1170   68.5300   -4.6430 C.ar   21  PHE21      -0.0042
     52  CD2       30.4140   67.9330   -4.8370 C.ar   21  PHE21      -0.0042
     53  CE1       27.9410   67.5470   -3.6870 C.ar   21  PHE21      -0.0003
     54  CE2       30.2460   66.9500   -3.8810 C.ar   21  PHE21      -0.0003
     55  CZ        29.0060   66.7570   -3.3060 C.ar   21  PHE21      -0.0000
     56  N         30.2310   71.9180   -0.5980 N.3    25  LYS25      -0.1245
     57  CA        29.9890   70.8310    0.3450 C.3    25  LYS25       0.1561
     58  C         30.3880   71.2040    1.7650 C.2    25  LYS25       0.2260
     59  O         29.8380   70.6570    2.7260 O.2    25  LYS25      -0.2867
     60  CB        30.7350   69.5760   -0.1030 C.3    25  LYS25       0.0271
     61  CG        32.2270   69.7750   -0.2630 C.3    25  LYS25       0.0035
     62  CD        32.8760   68.5670   -0.9110 C.3    25  LYS25       0.0206
     63  CE        34.3330   68.8430   -1.2470 C.3    25  LYS25       0.1093
     64  NZ        34.9450   67.7290   -2.0190 N.3    25  LYS25      -0.1314
     65  N         24.5700   57.3780    1.0150 N.3   147  SER147     -0.1202
     66  CA        24.0250   58.4470    0.1930 C.3   147  SER147      0.2020
     67  C         23.7950   57.9780   -1.2370 C.2   147  SER147      0.2619
     68  O         24.5430   57.1610   -1.7810 O.2   147  SER147     -0.2717
     69  CB        24.9560   59.6620    0.1950 C.3   147  SER147      0.2103
     70  OG        25.0390   60.2500    1.4820 O.3   147  SER147     -0.2182
     71  N         22.7410   58.5090   -1.8430 N.am  148  SER148     -0.1937
     72  CA        22.4260   58.2600   -3.2380 C.3   148  SER148      0.2055
     73  C         22.0710   59.5790   -3.9020 C.2   148  SER148      0.2643
     74  O         21.5260   60.4840   -3.2670 O.2   148  SER148     -0.2714
     75  CB        21.2660   57.2730   -3.3900 C.3   148  SER148      0.2130
     76  OG        20.8450   57.1940   -4.7400 O.3   148  SER148     -0.2179
     77  N         22.3970   59.6840   -5.1880 N.am  149  SER149     -0.1949
     78  CA        22.0050   60.8610   -5.9490 C.3   149  SER149      0.1924
     79  C         20.5010   60.9360   -6.1710 C.2   149  SER149      0.2314
     80  O         20.0040   61.9910   -6.5790 O.2   149  SER149     -0.2863
     81  CB        22.7360   60.8820   -7.2910 C.3   149  SER149      0.2116
     82  OG        22.4840   59.6970   -8.0230 O.3   149  SER149     -0.2180
     83  N         17.4230   57.2100   -1.4800 N.3   154  GLU154     -0.1245
     84  CA        17.6690   57.5780   -0.0900 C.3   154  GLU154      0.1567
     85  C         16.4200   57.3750    0.7570 C.2   154  GLU154      0.2260
     86  O         16.5070   56.9760    1.9230 O.2   154  GLU154     -0.2867
     87  CB        18.1390   59.0300   -0.0050 C.3   154  GLU154      0.0388
     88  CG        19.5160   59.2910   -0.5860 C.3   154  GLU154      0.1160
     89  CD        19.9980   60.7070   -0.3150 C.2   154  GLU154      0.3649
     90  OE1       19.1520   61.5830   -0.0390 O.co2 154  GLU154     -0.2457
     91  OE2       21.2220   60.9440   -0.3670 O.co2 154  GLU154     -0.2457
     92  N         28.1130   68.0530    6.3940 N.3   210  ARG210     -0.1245
     93  CA        28.3830   68.7200    5.1300 C.3   210  ARG210      0.1563
     94  C         27.0790   69.1640    4.4800 C.2   210  ARG210      0.2260
     95  O         26.0180   68.5700    4.6910 O.2   210  ARG210     -0.2867
     96  CB        29.1370   67.7900    4.1800 C.3   210  ARG210      0.0307
     97  CG        30.2180   66.9420    4.8300 C.3   210  ARG210      0.0489
     98  CD        31.6000   67.5300    4.6170 C.3   210  ARG210      0.2205
     99  NE        32.6550   66.5710    4.9350 N.pl3 210  ARG210     -0.0865
    100  CZ        33.2780   65.8180    4.0340 C.cat 210  ARG210      0.5346
    101  NH1       34.2260   64.9740    4.4160 N.pl3 210  ARG210      0.1354
    102  NH2       32.9570   65.9100    2.7500 N.pl3 210  ARG210      0.1354
    103  N         26.3990   68.8150    1.4750 N.3   212  SER212     -0.1202
    104  CA        26.0710   67.8760    0.4120 C.3   212  SER212      0.2020
    105  C         25.1210   66.7740    0.8630 C.2   212  SER212      0.2619
    106  O         24.7710   65.9120    0.0500 O.2   212  SER212     -0.2717
    107  CB        27.3530   67.2580   -0.1580 C.3   212  SER212      0.2103
    108  OG        28.0950   66.5700    0.8360 O.3   212  SER212     -0.2182
    109  N         24.6940   66.7760    2.1230 N.am  213  THR213     -0.1952
    110  CA        23.7550   65.7800    2.6160 C.3   213  THR213      0.1897
    111  C         22.7010   66.4560    3.4790 C.2   213  THR213      0.2313
    112  O         22.9920   67.4160    4.1970 O.2   213  THR213     -0.2863
    113  CB        24.4590   64.6740    3.4160 C.3   213  THR213      0.1794
    114  OG1       23.4790   63.7750    3.9520 O.3   213  THR213     -0.2208
    115  CG2       25.2790   65.2630    4.5540 C.3   213  THR213      0.0378
@<TRIPOS>BOND
     1    38    35    1
     2    38    39    1
     3    35    34    1
     4    35    36    1
     5    40    36   am
     6    40    41    1
     7    44    41    1
     8    34    28   am
     9    21    20    2
    10    29    28    2
    11    36    37    2
    12    28    27    1
    13    41    42    1
    14    20    19    1
    15    26    27    1
    16    27    30    1
    17    42    43    2
    18    22    19    1
    19    22    23    1
    20    19    18    1
    21    30    31    1
    22    82    81    1
    23    23    24    2
    24    23    25   am
    25    18    12   am
    26    31    32    1
    27    13    12    2
    28    81    78    1
    29    12    11    1
    30    45    46    1
    31    80    79    2
    32    49    46    1
    33    49    50    1
    34    10    11    1
    35     4     3    2
    36    79    78    1
    37    78    77    1
    38    11    14    1
    39    46    47    1
    40    32    33    1
    41     3     2    1
    42    50    52   ar
    43    50    51   ar
    44    77    73   am
    45    52    54   ar
    46    76    75    1
    47    47    48    2
    48    51    53   ar
    49    14    15    1
    50     6     5    1
    51     6     7    1
    52     2     5    1
    53     2     1    1
    54    15    16    1
    55    15    17    1
    56    73    74    2
    57    73    72    1
    58    54    55   ar
    59     8     7    1
    60     8     9    1
    61    53    55   ar
    62    75    72    1
    63    72    71    1
    64    64    63    1
    65    71    67   am
    66    68    67    2
    67    83    84    1
    68    63    62    1
    69    67    66    1
    70    62    61    1
    71    56    57    1
    72    88    89    1
    73    88    87    1
    74    91    89   ar
    75    89    90   ar
    76    61    60    1
    77   107   104    1
    78   107   108    1
    79    60    57    1
    80    84    87    1
    81    84    85    1
    82   106   105    2
    83    66    69    1
    84    66    65    1
    85    69    70    1
    86    57    58    1
    87   104   105    1
    88   104   103    1
    89    85    86    2
    90   105   109   am
    91    58    59    2
    92   109   110    1
    93   110   113    1
    94   110   111    1
    95   102   100    1
    96   113   114    1
    97   113   115    1
    98   111   112    2
    99   100   101    1
   100   100    99    2
   101    96    97    1
   102    96    93    1
   103    94    95    2
   104    94    93    1
   105    98    97    1
   106    98    99    1
   107    93    92    1
