@<TRIPOS>MOLECULE
tmp/5gp0D00.pdb
 177 168 0 0 0
SMALL
GASTEIGER

@<TRIPOS>ATOM
      1  N        -37.0650  -13.0860    4.0900 N.3     4  ARG4       -0.1245
      2  CA       -35.6440  -13.1080    4.4070 C.3     4  ARG4        0.1563
      3  C        -35.2150  -14.5400    4.7060 C.2     4  ARG4        0.2260
      4  O        -36.0130  -15.3460    5.1820 O.2     4  ARG4       -0.2867
      5  CB       -35.3210  -12.1970    5.6030 C.3     4  ARG4        0.0307
      6  CG       -35.7340  -10.7410    5.3780 C.3     4  ARG4        0.0489
      7  CD       -35.2580   -9.8160    6.4880 C.3     4  ARG4        0.2205
      8  NE       -35.9190  -10.0710    7.7670 N.pl3   4  ARG4       -0.0865
      9  CZ       -36.9730   -9.3950    8.2220 C.cat   4  ARG4        0.5346
     10  NH1      -37.5030   -8.4110    7.5040 N.pl3   4  ARG4        0.1354
     11  NH2      -37.4970   -9.7010    9.4020 N.pl3   4  ARG4        0.1354
     12  N        -33.1950  -17.4440    6.6360 N.3     6  ALA6       -0.1245
     13  CA       -32.4930  -17.8940    7.8210 C.3     6  ALA6        0.1562
     14  C        -31.9570  -19.2920    7.5750 C.2     6  ALA6        0.2260
     15  O        -32.4090  -20.0100    6.6780 O.2     6  ALA6       -0.2867
     16  CB       -33.4070  -17.9060    9.0540 C.3     6  ALA6        0.0290
     17  N        -31.2040  -22.7290   10.0240 N.3     8  VAL8       -0.1245
     18  CA       -31.3390  -23.3160   11.3540 C.3     8  VAL8        0.1561
     19  C        -30.6120  -24.6510   11.3610 C.2     8  VAL8        0.2260
     20  O        -30.5920  -25.3630   10.3530 O.2     8  VAL8       -0.2867
     21  CB       -32.8150  -23.4870   11.7770 C.3     8  VAL8        0.0252
     22  CG1      -33.4790  -22.1220   11.8460 C.3     8  VAL8        0.0019
     23  CG2      -33.5550  -24.3950   10.8190 C.3     8  VAL8        0.0019
     24  N        -36.0600  -19.4840   23.5760 N.3    22  ARG22      -0.1245
     25  CA       -35.8640  -18.1630   22.9930 C.3    22  ARG22       0.1563
     26  C        -36.2060  -17.0610   23.9900 C.2    22  ARG22       0.2260
     27  O        -37.1690  -17.1650   24.7530 O.2    22  ARG22      -0.2867
     28  CB       -36.7490  -18.0110   21.7470 C.3    22  ARG22       0.0307
     29  CG       -36.4550  -19.0400   20.6690 C.3    22  ARG22       0.0489
     30  CD       -37.5020  -18.9710   19.5490 C.3    22  ARG22       0.2205
     31  NE       -37.6550  -17.6160   19.0260 N.pl3  22  ARG22      -0.0865
     32  CZ       -36.8830  -17.0860   18.0790 C.cat  22  ARG22       0.5346
     33  NH1      -35.8810  -17.7850   17.5630 N.pl3  22  ARG22       0.1354
     34  NH2      -37.1070  -15.8480   17.6580 N.pl3  22  ARG22       0.1354
     35  N        -37.1880  -13.4850   23.0120 N.3    24  SER24      -0.1202
     36  CA       -37.4920  -12.8850   21.7190 C.3    24  SER24       0.2020
     37  C        -38.9410  -12.4240   21.7030 C.2    24  SER24       0.2619
     38  O        -39.7730  -12.9170   22.4650 O.2    24  SER24      -0.2717
     39  CB       -37.2500  -13.8840   20.5820 C.3    24  SER24       0.2103
     40  OG       -37.7090  -13.3720   19.3400 O.3    24  SER24      -0.2182
     41  N        -39.2390  -11.4760   20.8090 N.am   25  SER25      -0.1937
     42  CA       -40.6260  -11.0810   20.5880 C.3    25  SER25       0.2055
     43  C        -41.3950  -12.0840   19.7340 C.2    25  SER25       0.2642
     44  O        -42.6280  -12.0010   19.6690 O.2    25  SER25      -0.2714
     45  CB       -40.6850   -9.6970   19.9350 C.3    25  SER25       0.2130
     46  OG       -39.9410   -9.6860   18.7300 O.3    25  SER25      -0.2179
     47  N        -40.7070  -13.0200   19.0840 N.am   26  ILE26      -0.1977
     48  CA       -41.3390  -14.0930   18.3200 C.3    26  ILE26       0.1596
     49  C        -41.0080  -15.4090   19.0100 C.2    26  ILE26       0.2287
     50  O        -39.8310  -15.7190   19.2220 O.2    26  ILE26      -0.2864
     51  CB       -40.8660  -14.1090   16.8570 C.3    26  ILE26       0.0276
     52  CG1      -41.4040  -12.8890   16.1060 C.3    26  ILE26       0.0022
     53  CG2      -41.3010  -15.3890   16.1750 C.3    26  ILE26       0.0022
     54  CD1      -40.8120  -12.7120   14.7100 C.3    26  ILE26       0.0001
     55  N        -36.0270  -23.8450   20.7420 N.3    32  ALA32      -0.1231
     56  CA       -35.7120  -23.6420   19.3290 C.3    32  ALA32       0.1694
     57  C        -34.2710  -24.0300   19.0460 C.2    32  ALA32       0.2592
     58  O        -33.4550  -24.1910   19.9530 O.2    32  ALA32      -0.2718
     59  CB       -35.9520  -22.1860   18.9000 C.3    32  ALA32       0.0304
     60  N        -33.9620  -24.1670   17.7420 N.am   33  LEU33      -0.1966
     61  CA       -32.6420  -24.4950   17.2340 C.3    33  LEU33       0.1713
     62  C        -31.7200  -23.2820   17.1820 C.2    33  LEU33       0.2458
     63  O        -32.1590  -22.1560   16.9430 O.2    33  LEU33      -0.2730
     64  CB       -32.7540  -25.0600   15.8160 C.3    33  LEU33       0.0310
     65  CG       -33.6130  -26.2980   15.6260 C.3    33  LEU33       0.0022
     66  CD1      -33.8200  -26.4830   14.1180 C.3    33  LEU33       0.0001
     67  CD2      -32.9400  -27.5100   16.1990 C.3    33  LEU33       0.0001
     68  N        -30.4150  -23.4990   17.3020 N.am   34  PRO34      -0.2716
     69  CA       -29.4750  -22.4350   16.9430 C.3    34  PRO34       0.1536
     70  C        -29.6100  -22.1150   15.4610 C.2    34  PRO34       0.2599
     71  O        -29.9190  -22.9810   14.6440 O.2    34  PRO34      -0.2715
     72  CB       -28.1030  -23.0340   17.2790 C.3    34  PRO34       0.0310
     73  CG       -28.2960  -24.5310   17.2230 C.3    34  PRO34       0.0237
     74  CD       -29.7570  -24.7890   17.5790 C.3    34  PRO34       0.0939
     75  N        -29.3980  -20.8530   15.1180 N.am   35  GLY35      -0.1941
     76  CA       -29.4590  -20.4650   13.7230 C.3    35  GLY35       0.2014
     77  C        -29.1030  -19.0040   13.5510 C.2    35  GLY35       0.2639
     78  O        -28.7340  -18.3110   14.5070 O.2    35  GLY35      -0.2714
     79  N        -29.2310  -18.5390   12.3150 N.am   36  GLY36      -0.1939
     80  CA       -28.9310  -17.1460   12.0360 C.3    36  GLY36       0.2014
     81  C        -29.4670  -16.7500   10.6810 C.2    36  GLY36       0.2638
     82  O        -30.1500  -17.5270   10.0110 O.2    36  GLY36      -0.2714
     83  N        -29.1620  -15.5050   10.3020 N.am   37  HIS37      -0.1973
     84  CA       -29.6070  -14.9230    9.0440 C.3    37  HIS37       0.1656
     85  C        -28.5130  -15.1190    8.0020 C.2    37  HIS37       0.2291
     86  O        -27.3340  -14.8710    8.2820 O.2    37  HIS37      -0.2864
     87  CB       -29.8970  -13.4230    9.1990 C.3    37  HIS37       0.0771
     88  CG       -30.9840  -13.0890   10.1800 C.ar   37  HIS37       0.0820
     89  ND1      -30.8860  -13.3520   11.5290 N.ar   37  HIS37      -0.2267
     90  CD2      -32.1720  -12.4610   10.0090 C.ar   37  HIS37       0.1154
     91  CE1      -31.9780  -12.9290   12.1420 C.ar   37  HIS37       0.1986
     92  NE2      -32.7740  -12.3830   11.2420 N.ar   37  HIS37      -0.2212
     93  N        -38.2760  -24.4770    4.8880 N.3    69  THR69      -0.1218
     94  CA       -39.6310  -24.1960    5.3440 C.3    69  THR69       0.1862
     95  C        -39.9830  -22.7250    5.1350 C.2    69  THR69       0.2287
     96  O        -39.1160  -21.8490    5.0440 O.2    69  THR69      -0.2866
     97  CB       -39.8120  -24.5860    6.8280 C.3    69  THR69       0.1770
     98  OG1      -38.8140  -23.9350    7.6180 O.3    69  THR69      -0.2211
     99  CG2      -39.6500  -26.0970    6.9860 C.3    69  THR69       0.0375
    100  N        -41.9490  -19.6990    6.7860 N.3    71  ASN71      -0.1240
    101  CA       -42.3330  -19.3220    8.1460 C.3    71  ASN71       0.1653
    102  C        -42.7660  -17.8570    8.1630 C.2    71  ASN71       0.2266
    103  O        -41.9350  -16.9500    8.2580 O.2    71  ASN71      -0.2867
    104  CB       -41.1720  -19.5970    9.0980 C.3    71  ASN71       0.1155
    105  CG       -40.6650  -21.0360    8.9820 C.2    71  ASN71       0.2627
    106  OD1      -39.5590  -21.2960    8.5060 O.2    71  ASN71      -0.2716
    107  ND2      -41.4920  -21.9700    9.3860 N.am   71  ASN71      -0.0877
    108  N        -44.7970  -14.7670    9.9600 N.3    73  PHE73      -0.1241
    109  CA       -45.2350  -14.2840   11.2680 C.3    73  PHE73       0.1605
    110  C        -46.0330  -13.0020   11.0420 C.2    73  PHE73       0.2264
    111  O        -45.5160  -11.8990   11.2320 O.2    73  PHE73      -0.2867
    112  CB       -44.0320  -14.0530   12.1880 C.3    73  PHE73       0.0534
    113  CG       -43.1200  -15.2440   12.3100 C.ar   73  PHE73      -0.0203
    114  CD1      -43.4080  -16.2700   13.2000 C.ar   73  PHE73      -0.0042
    115  CD2      -41.9640  -15.3280   11.5500 C.ar   73  PHE73      -0.0042
    116  CE1      -42.5630  -17.3650   13.3240 C.ar   73  PHE73      -0.0003
    117  CE2      -41.1140  -16.4210   11.6660 C.ar   73  PHE73      -0.0003
    118  CZ       -41.4150  -17.4410   12.5560 C.ar   73  PHE73      -0.0000
    119  N        -43.0270  -10.4590   10.0050 N.3    80  SER80      -0.1217
    120  CA       -41.8140  -10.9970    9.4130 C.3    80  SER80       0.1889
    121  C        -42.1660  -12.2080    8.5640 C.2    80  SER80       0.2288
    122  O        -43.1640  -12.8910    8.8070 O.2    80  SER80      -0.2866
    123  CB       -40.7940  -11.4010   10.4880 C.3    80  SER80       0.2089
    124  OG       -40.2560  -10.2630   11.1380 O.3    80  SER80      -0.2183
    125  N        -39.8730  -15.4390    7.0230 N.3    82  TYR82      -0.1241
    126  CA       -38.5880  -16.1060    6.9270 C.3    82  TYR82       0.1605
    127  C        -38.7290  -17.3550    6.0750 C.2    82  TYR82       0.2264
    128  O        -39.7160  -18.0900    6.1870 O.2    82  TYR82      -0.2867
    129  CB       -38.0460  -16.4820    8.3150 C.3    82  TYR82       0.0534
    130  CG       -37.4440  -15.3140    9.0530 C.ar   82  TYR82      -0.0201
    131  CD1      -36.1750  -14.8470    8.7320 C.ar   82  TYR82      -0.0009
    132  CD2      -38.1480  -14.6680   10.0600 C.ar   82  TYR82      -0.0009
    133  CE1      -35.6190  -13.7740    9.4050 C.ar   82  TYR82       0.0417
    134  CE2      -37.6040  -13.5970   10.7360 C.ar   82  TYR82       0.0417
    135  CZ       -36.3420  -13.1550   10.4060 C.ar   82  TYR82       0.1957
    136  OH       -35.8030  -12.0860   11.0800 O.3    82  TYR82      -0.2866
    137  N        -36.5750  -20.6490    5.8170 N.3    84  SER84      -0.1217
    138  CA       -35.6100  -21.2120    6.7540 C.3    84  SER84       0.1889
    139  C        -35.0230  -22.4850    6.1850 C.2    84  SER84       0.2288
    140  O        -35.7490  -23.4600    5.9500 O.2    84  SER84      -0.2866
    141  CB       -36.2630  -21.5020    8.0980 C.3    84  SER84       0.2089
    142  OG       -37.0000  -20.3740    8.5290 O.3    84  SER84      -0.2183
    143  N        -30.6590  -13.3670   24.0790 N.3   105  LYS105     -0.1245
    144  CA       -31.5240  -13.9810   23.0780 C.3   105  LYS105      0.1561
    145  C        -31.9050  -15.4180   23.4000 C.2   105  LYS105      0.2260
    146  O        -32.7670  -15.9770   22.7130 O.2   105  LYS105     -0.2867
    147  CB       -30.8570  -13.9540   21.6930 C.3   105  LYS105      0.0271
    148  CG       -30.5010  -12.5540   21.1870 C.3   105  LYS105      0.0035
    149  CD       -30.2530  -12.5210   19.6700 C.3   105  LYS105      0.0206
    150  CE       -29.9130  -13.8950   19.0920 C.3   105  LYS105      0.1093
    151  NZ       -29.4520  -13.8310   17.6640 N.3   105  LYS105     -0.1314
    152  N        -40.7920  -24.1890   19.7070 N.3   122  PHE122     -0.1241
    153  CA       -41.0260  -23.0870   18.7770 C.3   122  PHE122      0.1605
    154  C        -41.9130  -23.5720   17.6300 C.2   122  PHE122      0.2264
    155  O        -41.6350  -24.6090   17.0290 O.2   122  PHE122     -0.2867
    156  CB       -39.6580  -22.6050   18.2740 C.3   122  PHE122      0.0534
    157  CG       -39.6840  -21.3380   17.4540 C.ar  122  PHE122     -0.0203
    158  CD1      -40.5870  -20.3320   17.7040 C.ar  122  PHE122     -0.0042
    159  CD2      -38.7810  -21.1740   16.4310 C.ar  122  PHE122     -0.0042
    160  CE1      -40.5850  -19.1700   16.9420 C.ar  122  PHE122     -0.0003
    161  CE2      -38.7730  -20.0210   15.6730 C.ar  122  PHE122     -0.0003
    162  CZ       -39.6790  -19.0200   15.9270 C.ar  122  PHE122     -0.0000
    163  N        -42.5750  -23.0310   14.4370 N.3   124  PRO124     -0.2102
    164  CA       -42.0120  -23.5220   13.1650 C.3   124  PRO124      0.1504
    165  C        -41.3820  -24.8940   13.3000 C.2   124  PRO124      0.2575
    166  O        -41.4960  -25.7350   12.3990 O.2   124  PRO124     -0.2718
    167  CB       -40.9750  -22.4470   12.8140 C.3   124  PRO124      0.0282
    168  CG       -41.5190  -21.2050   13.4130 C.3   124  PRO124      0.0208
    169  CD       -42.1440  -21.6450   14.7240 C.3   124  PRO124      0.0893
    170  N        -40.7380  -25.1490   14.4410 N.am  125  LEU125     -0.1980
    171  CA       -40.1200  -26.4490   14.6630 C.3   125  LEU125      0.1596
    172  C        -41.1700  -27.5060   14.9650 C.2   125  LEU125      0.2287
    173  O        -41.1010  -28.6230   14.4370 O.2   125  LEU125     -0.2864
    174  CB       -39.0960  -26.3420   15.7970 C.3   125  LEU125      0.0297
    175  CG       -38.2910  -27.5930   16.1140 C.3   125  LEU125      0.0022
    176  CD1      -37.4820  -28.0230   14.9160 C.3   125  LEU125      0.0001
    177  CD2      -37.3720  -27.3340   17.2990 C.3   125  LEU125      0.0001
@<TRIPOS>BOND
     1     1     2    1
     2     2     3    1
     3     2     5    1
     4     3     4    2
     5    93    94    1
     6    96    95    2
     7    95    94    1
     8    94    97    1
     9     6     5    1
    10     6     7    1
    11   137   138    1
    12   140   139    2
    13   127   128    2
    14   127   126    1
    15   139   138    1
    16     7     8    1
    17    12    13    1
    18    15    14    2
    19   138   141    1
    20   100   101    1
    21    97    99    1
    22    97    98    1
    23   126   125    1
    24   126   129    1
    25    10     9    1
    26    14    13    1
    27     8     9    2
    28    13    16    1
    29    85    86    2
    30    85    84    1
    31   141   142    1
    32   101   102    1
    33   101   104    1
    34   102   103    2
    35     9    11    1
    36   129   130    1
    37   106   105    2
    38   121   122    2
    39   121   120    1
    40   131   130   ar
    41   131   133   ar
    42   105   104    1
    43   105   107   am
    44    84    87    1
    45    84    83    1
    46   130   132   ar
    47    87    88    1
    48   133   135   ar
    49   120   119    1
    50   120   123    1
    51   108   109    1
    52    90    88   ar
    53    90    92   ar
    54    82    81    2
    55    17    18    1
    56   132   134   ar
    57    88    89   ar
    58    83    81   am
    59    20    19    2
    60   135   134   ar
    61   135   136    1
    62   123   124    1
    63    81    80    1
    64    23    21    1
    65   110   111    2
    66   110   109    1
    67    92    91   ar
    68   109   112    1
    69    18    19    1
    70    18    21    1
    71    89    91   ar
    72   115   117   ar
    73   115   113   ar
    74   117   118   ar
    75    21    22    1
    76    80    79    1
    77   112   113    1
    78   113   114   ar
    79    79    77   am
    80   166   165    2
    81   118   116   ar
    82   167   164    1
    83   167   168    1
    84   164   165    1
    85   164   163    1
    86   114   116   ar
    87   165   170   am
    88   168   169    1
    89    77    76    1
    90    77    78    2
    91    76    75    1
    92    66    65    1
    93   163   169    1
    94   173   172    2
    95   170   171    1
    96    71    70    2
    97   171   172    1
    98   171   174    1
    99    54    52    1
   100   176   175    1
   101    75    70   am
   102    70    69    1
   103    65    64    1
   104    65    67    1
   105   161   162   ar
   106   161   159   ar
   107   174   175    1
   108    64    61    1
   109   162   160   ar
   110    52    51    1
   111   175   177    1
   112    53    51    1
   113   159   157   ar
   114    51    48    1
   115   160   158   ar
   116    69    72    1
   117    69    68    1
   118    63    62    2
   119   155   154    2
   120    62    61    1
   121    62    68   am
   122    73    72    1
   123    73    74    1
   124    61    60    1
   125    68    74    1
   126   157   158   ar
   127   157   156    1
   128    33    32    1
   129   154   153    1
   130    34    32    1
   131   151   150    1
   132    60    57   am
   133    32    31    2
   134   156   153    1
   135    48    49    1
   136    48    47    1
   137    46    45    1
   138   153   152    1
   139    59    56    1
   140    49    50    2
   141    31    30    1
   142    57    56    1
   143    57    58    2
   144    47    43   am
   145   150   149    1
   146    56    55    1
   147    40    39    1
   148    30    29    1
   149    44    43    2
   150   149   148    1
   151    43    42    1
   152    45    42    1
   153    39    36    1
   154    42    41    1
   155    29    28    1
   156    41    37   am
   157   148   147    1
   158   147   144    1
   159    37    36    1
   160    37    38    2
   161    36    35    1
   162    28    25    1
   163   146   145    2
   164    25    24    1
   165    25    26    1
   166   144   145    1
   167   144   143    1
   168    26    27    2
