@<TRIPOS>MOLECULE
tmp/5gp1B00.pdb
 124 116 0 0 0
SMALL
GASTEIGER

@<TRIPOS>ATOM
      1  N         50.2700  164.4420   -7.1250 N.3     8  LYS8       -0.1245
      2  CA        48.8960  164.4370   -7.6160 C.3     8  LYS8        0.1561
      3  C         48.8520  164.2930   -9.1320 C.2     8  LYS8        0.2260
      4  O         48.0760  163.4930   -9.6670 O.2     8  LYS8       -0.2867
      5  CB        48.1830  165.7130   -7.1730 C.3     8  LYS8        0.0271
      6  CG        46.7840  165.8540   -7.7250 C.3     8  LYS8        0.0035
      7  CD        45.8910  164.7330   -7.2370 C.3     8  LYS8        0.0206
      8  CE        44.4520  165.1900   -7.1570 C.3     8  LYS8        0.1093
      9  NZ        43.5890  164.2070   -6.4500 N.3     8  LYS8       -0.1314
     10  N         50.0310  160.8690  -10.0050 N.3    11  LEU11      -0.1231
     11  CA        49.0320  159.8640   -9.6540 C.3    11  LEU11       0.1693
     12  C         47.9460  159.7590  -10.7170 C.2    11  LEU11       0.2592
     13  O         47.4000  158.6730  -10.9390 O.2    11  LEU11      -0.2718
     14  CB        48.4190  160.1920   -8.2930 C.3    11  LEU11       0.0284
     15  CG        47.3320  159.2710   -7.7390 C.3    11  LEU11       0.0019
     16  CD1       47.7450  158.7130   -6.3860 C.3    11  LEU11       0.0001
     17  CD2       46.0240  160.0240   -7.6230 C.3    11  LEU11       0.0001
     18  N         47.6230  160.8680  -11.3830 N.am   12  ASN12      -0.1974
     19  CA        46.6170  160.8610  -12.4350 C.3    12  ASN12       0.1688
     20  C         47.1260  160.2660  -13.7420 C.2    12  ASN12       0.2292
     21  O         46.3240  160.0540  -14.6570 O.2    12  ASN12      -0.2864
     22  CB        46.1030  162.2810  -12.6800 C.3    12  ASN12       0.1181
     23  CG        45.1030  162.7250  -11.6320 C.2    12  ASN12       0.2629
     24  OD1       44.2130  161.9650  -11.2460 O.2    12  ASN12      -0.2716
     25  ND2       45.2430  163.9600  -11.1650 N.am   12  ASN12      -0.0877
     26  N         48.6150  157.2700  -13.7530 N.3    14  MET14      -0.1230
     27  CA        48.7410  155.8410  -13.5150 C.3    14  MET14       0.1702
     28  C         47.6330  155.0610  -14.2110 C.2    14  MET14       0.2593
     29  O         46.4870  155.5120  -14.2900 O.2    14  MET14      -0.2718
     30  CB        48.7150  155.5500  -12.0150 C.3    14  MET14       0.0401
     31  CG        49.6260  156.4470  -11.1980 C.3    14  MET14       0.0596
     32  SD        49.6410  155.9990   -9.4540 S.3    14  MET14      -0.1393
     33  CE        50.5660  154.4670   -9.5160 C.3    14  MET14       0.0692
     34  N         47.9880  153.8790  -14.7120 N.am   15  SER15      -0.1938
     35  CA        47.0080  152.9740  -15.2860 C.3    15  SER15       0.2055
     36  C         46.0340  152.4940  -14.2110 C.2    15  SER15       0.2642
     37  O         46.2310  152.7050  -13.0120 O.2    15  SER15      -0.2714
     38  CB        47.7040  151.7800  -15.9390 C.3    15  SER15       0.2130
     39  OG        46.8890  150.6220  -15.8780 O.3    15  SER15      -0.2179
     40  N         44.9650  151.8340  -14.6630 N.am   16  ALA16      -0.1977
     41  CA        43.9690  151.3140  -13.7320 C.3    16  ALA16       0.1597
     42  C         44.5970  150.3300  -12.7530 C.2    16  ALA16       0.2287
     43  O         44.3450  150.3930  -11.5450 O.2    16  ALA16      -0.2864
     44  CB        42.8220  150.6590  -14.5010 C.3    16  ALA16       0.0319
     45  N         47.1570  152.2330  -10.4400 N.3    19  PHE19      -0.1241
     46  CA        46.4600  152.9350   -9.3690 C.3    19  PHE19       0.1605
     47  C         45.8670  151.9530   -8.3650 C.2    19  PHE19       0.2264
     48  O         45.9810  152.1480   -7.1490 O.2    19  PHE19      -0.2867
     49  CB        45.3730  153.8320   -9.9610 C.3    19  PHE19       0.0534
     50  CG        44.4660  154.4430   -8.9340 C.ar   19  PHE19      -0.0203
     51  CD1       44.8710  155.5460   -8.2030 C.ar   19  PHE19      -0.0042
     52  CD2       43.2080  153.9150   -8.7000 C.ar   19  PHE19      -0.0042
     53  CE1       44.0400  156.1100   -7.2580 C.ar   19  PHE19      -0.0003
     54  CE2       42.3740  154.4740   -7.7560 C.ar   19  PHE19      -0.0003
     55  CZ        42.7910  155.5730   -7.0340 C.ar   19  PHE19      -0.0000
     56  N         46.8080  152.0840   -4.4860 N.3    23  LYS23      -0.1245
     57  CA        45.8320  152.6680   -3.5700 C.3    23  LYS23       0.1561
     58  C         46.1550  152.3540   -2.1130 C.2    23  LYS23       0.2260
     59  O         46.1000  153.2400   -1.2520 O.2    23  LYS23      -0.2867
     60  CB        44.4310  152.1650   -3.9270 C.3    23  LYS23       0.0271
     61  CG        43.3190  152.7110   -3.0500 C.3    23  LYS23       0.0035
     62  CD        42.8610  154.0720   -3.5360 C.3    23  LYS23       0.0206
     63  CE        41.5130  154.4530   -2.9510 C.3    23  LYS23       0.1093
     64  NZ        41.0090  155.7220   -3.5420 N.3    23  LYS23      -0.1314
     65  N         35.9210  166.5700    0.0320 N.3   144  GLU144     -0.1231
     66  CA        35.6100  165.6940   -1.0910 C.3   144  GLU144      0.1699
     67  C         36.7920  165.6800   -2.0470 C.2   144  GLU144      0.2593
     68  O         37.2040  166.7330   -2.5440 O.2   144  GLU144     -0.2718
     69  CB        34.3390  166.1530   -1.8090 C.3   144  GLU144      0.0402
     70  CG        34.0330  165.3880   -3.0880 C.3   144  GLU144      0.1161
     71  CD        32.8570  165.9710   -3.8470 C.2   144  GLU144      0.3649
     72  OE1       32.2310  165.2320   -4.6360 O.co2 144  GLU144     -0.2457
     73  OE2       32.5600  167.1690   -3.6530 O.co2 144  GLU144     -0.2457
     74  N         37.3280  164.4910   -2.3060 N.am  145  SER145     -0.1938
     75  CA        38.4630  164.3560   -3.2040 C.3   145  SER145      0.2055
     76  C         38.1000  164.8320   -4.6070 C.2   145  SER145      0.2644
     77  O         36.9280  164.9570   -4.9710 O.2   145  SER145     -0.2714
     78  CB        38.9380  162.9030   -3.2570 C.3   145  SER145      0.2130
     79  OG        39.2830  162.4210   -1.9690 O.3   145  SER145     -0.2179
     80  N         39.1340  165.0860   -5.4040 N.am  146  SER146     -0.1935
     81  CA        38.9640  165.4520   -6.8010 C.3   146  SER146      0.2055
     82  C         40.3000  165.2880   -7.5040 C.2   146  SER146      0.2643
     83  O         41.3570  165.5030   -6.9080 O.2   146  SER146     -0.2714
     84  CB        38.4560  166.8880   -6.9560 C.3   146  SER146      0.2130
     85  OG        39.2150  167.7780   -6.1600 O.3   146  SER146     -0.2179
     86  N         40.2390  164.8980   -8.7790 N.am  147  SER147     -0.1949
     87  CA        41.4520  164.8170   -9.5830 C.3   147  SER147      0.1924
     88  C         42.1110  166.1770   -9.7590 C.2   147  SER147      0.2314
     89  O         43.3170  166.2420  -10.0230 O.2   147  SER147     -0.2863
     90  CB        41.1360  164.2110  -10.9500 C.3   147  SER147      0.2116
     91  OG        40.1370  164.9620  -11.6180 O.3   147  SER147     -0.2180
     92  N         40.6010  170.6460   -4.9130 N.3   152  GLU152     -0.1245
     93  CA        40.8090  170.2040   -3.5370 C.3   152  GLU152      0.1567
     94  C         41.2670  171.3580   -2.6550 C.2   152  GLU152      0.2260
     95  O         40.8800  171.4480   -1.4840 O.2   152  GLU152     -0.2867
     96  CB        41.8310  169.0680   -3.4990 C.3   152  GLU152      0.0388
     97  CG        41.2600  167.6950   -3.7900 C.3   152  GLU152      0.1160
     98  CD        42.2680  166.5870   -3.5610 C.2   152  GLU152      0.3649
     99  OE1       43.4810  166.8840   -3.5380 O.co2 152  GLU152     -0.2457
    100  OE2       41.8520  165.4190   -3.4050 O.co2 152  GLU152     -0.2457
    101  N         44.5650  155.8090    2.6850 N.3   208  ARG208     -0.1245
    102  CA        45.0060  155.2430    1.4220 C.3   208  ARG208      0.1563
    103  C         45.9900  156.1850    0.7350 C.2   208  ARG208      0.2260
    104  O         46.0130  157.3940    0.9810 O.2   208  ARG208     -0.2867
    105  CB        43.8090  154.9670    0.5090 C.3   208  ARG208      0.0307
    106  CG        42.9710  153.7570    0.9120 C.3   208  ARG208      0.0489
    107  CD        41.9440  154.1190    1.9780 C.3   208  ARG208      0.2205
    108  NE        40.7390  153.2990    1.8950 N.pl3 208  ARG208     -0.0865
    109  CZ        40.5770  152.1410    2.5260 C.cat 208  ARG208      0.5346
    110  NH1       41.5460  151.6560    3.2910 N.pl3 208  ARG208      0.1354
    111  NH2       39.4440  151.4640    2.3920 N.pl3 208  ARG208      0.1354
    112  N         46.0340  157.1550   -2.2570 N.3   210  SER210     -0.1202
    113  CA        45.4400  158.0120   -3.2730 C.3   210  SER210      0.2020
    114  C         45.0840  159.3920   -2.7420 C.2   210  SER210      0.2619
    115  O         44.8910  160.3150   -3.5410 O.2   210  SER210     -0.2717
    116  CB        44.1880  157.3540   -3.8550 C.3   210  SER210      0.2103
    117  OG        43.1840  157.2150   -2.8660 O.3   210  SER210     -0.2182
    118  N         44.9850  159.5560   -1.4270 N.am  211  THR211     -0.1952
    119  CA        44.6260  160.8310   -0.8250 C.3   211  THR211      0.1897
    120  C         45.8030  161.3920   -0.0390 C.2   211  THR211      0.2313
    121  O         46.5390  160.6510    0.6210 O.2   211  THR211     -0.2863
    122  CB        43.4010  160.6940    0.0890 C.3   211  THR211      0.1794
    123  OG1       43.1270  161.9540    0.7140 O.3   211  THR211     -0.2208
    124  CG2       43.6310  159.6390    1.1600 C.3   211  THR211      0.0378
@<TRIPOS>BOND
     1    38    39    1
     2    38    35    1
     3    35    34    1
     4    35    36    1
     5    34    28   am
     6    40    36   am
     7    40    41    1
     8    21    20    2
     9    44    41    1
    10    29    28    2
    11    36    37    2
    12    28    27    1
    13    26    27    1
    14    20    19    1
    15    41    42    1
    16    27    30    1
    17    42    43    2
    18    22    19    1
    19    22    23    1
    20    19    18    1
    21    30    31    1
    22    23    24    2
    23    23    25   am
    24    91    90    1
    25    18    12   am
    26    31    32    1
    27    90    87    1
    28    13    12    2
    29    12    11    1
    30    45    46    1
    31    89    88    2
    32    10    11    1
    33    49    46    1
    34    49    50    1
    35    88    87    1
    36     4     3    2
    37    11    14    1
    38    87    86    1
    39    33    32    1
    40    46    47    1
    41     3     2    1
    42    50    52   ar
    43    50    51   ar
    44    86    82   am
    45    52    54   ar
    46    47    48    2
    47    14    15    1
    48    51    53   ar
    49    54    55   ar
    50    15    17    1
    51    15    16    1
    52     6     7    1
    53     6     5    1
    54     2     5    1
    55     2     1    1
    56    82    83    2
    57    82    81    1
    58    53    55   ar
    59     7     8    1
    60     8     9    1
    61    84    81    1
    62    84    85    1
    63    81    80    1
    64    80    76   am
    65    77    76    2
    66    92    93    1
    67    72    71   ar
    68    76    75    1
    69    56    57    1
    70    60    57    1
    71    60    61    1
    72   116   113    1
    73   116   117    1
    74    71    73   ar
    75    71    70    1
    76    97    98    1
    77    97    96    1
    78    57    58    1
    79    98    99   ar
    80    98   100   ar
    81    64    63    1
    82   115   114    2
    83    93    96    1
    84    93    94    1
    85    62    61    1
    86    62    63    1
    87   113   114    1
    88   113   112    1
    89    78    75    1
    90    78    79    1
    91    75    74    1
    92    70    69    1
    93   114   118   am
    94    94    95    2
    95    68    67    2
    96    74    67   am
    97    58    59    2
    98    67    66    1
    99    69    66    1
   100   118   119    1
   101    66    65    1
   102   119   120    1
   103   119   122    1
   104   120   121    2
   105   122   123    1
   106   122   124    1
   107   105   106    1
   108   105   102    1
   109   103   104    2
   110   103   102    1
   111   106   107    1
   112   102   101    1
   113   108   107    1
   114   108   109    2
   115   111   109    1
   116   109   110    1
