@<TRIPOS>MOLECULE
tmp/5gp4B00.pdb
 121 110 0 0 0
SMALL
GASTEIGER

@<TRIPOS>ATOM
      1  N         73.9430   41.2400  -14.6770 N.3    52  PHE52      -0.1227
      2  CA        74.6750   40.4600  -15.6140 C.3    52  PHE52       0.1736
      3  C         73.8020   40.0430  -16.8000 C.2    52  PHE52       0.2595
      4  O         74.3440   39.7230  -17.8540 O.2    52  PHE52      -0.2718
      5  CB        75.2550   39.2110  -14.9280 C.3    52  PHE52       0.0547
      6  CG        76.5020   39.4810  -14.1210 C.ar   52  PHE52      -0.0202
      7  CD1       77.6770   39.8370  -14.7420 C.ar   52  PHE52      -0.0042
      8  CD2       76.4910   39.3700  -12.7490 C.ar   52  PHE52      -0.0042
      9  CE1       78.8320   40.0860  -13.9960 C.ar   52  PHE52      -0.0003
     10  CE2       77.6150   39.6270  -12.0220 C.ar   52  PHE52      -0.0003
     11  CZ        78.7700   40.0050  -12.6360 C.ar   52  PHE52      -0.0000
     12  N         72.4830   40.0120  -16.6300 N.am   53  CYS53      -0.1970
     13  CA        71.6080   39.4620  -17.6660 C.3    53  CYS53       0.1712
     14  C         71.5550   40.2960  -18.9380 C.2    53  CYS53       0.2296
     15  O         71.5570   41.5080  -18.9300 O.2    53  CYS53      -0.2864
     16  CB        70.2210   39.1350  -17.1300 C.3    53  CYS53       0.0983
     17  SG        70.3280   37.9100  -15.8300 S.3    53  CYS53      -0.0798
     18  N         68.7690   28.4080  -15.6950 N.3   112  GLY112     -0.1210
     19  CA        69.8770   29.2890  -15.3450 C.3   112  GLY112      0.1956
     20  C         70.8500   28.5840  -14.4230 C.2   112  GLY112      0.2613
     21  O         70.7670   27.3360  -14.2150 O.2   112  GLY112     -0.2717
     22  N         71.8030   29.3520  -13.9090 N.am  113  SER113     -0.1938
     23  CA        72.7920   28.8030  -13.0070 C.3   113  SER113      0.2055
     24  C         72.1960   28.3640  -11.7060 C.2   113  SER113      0.2643
     25  O         72.7900   27.4940  -11.1000 O.2   113  SER113     -0.2714
     26  CB        73.9510   29.7180  -12.7370 C.3   113  SER113      0.2130
     27  OG        74.8250   29.7790  -13.8490 O.3   113  SER113     -0.2179
     28  N         71.0210   28.8700  -11.2970 N.am  114  SER114     -0.1949
     29  CA        70.4260   28.4180  -10.0350 C.3   114  SER114      0.1924
     30  C         70.0650   26.9720  -10.0700 C.2   114  SER114      0.2314
     31  O         70.4830   26.2420   -9.1390 O.2   114  SER114     -0.2863
     32  CB        69.1650   29.1550   -9.6380 C.3   114  SER114      0.2116
     33  OG        69.5260   30.4950   -9.5970 O.3   114  SER114     -0.2180
     34  N         73.3730   24.9520  -10.2290 N.3   117  CYS117     -0.1235
     35  CA        74.0480   24.8620   -8.9470 C.3   117  CYS117      0.1677
     36  C         73.3390   23.8730   -8.0250 C.2   117  CYS117      0.2270
     37  O         74.0000   23.0800   -7.3330 O.2   117  CYS117     -0.2867
     38  CB        74.1060   26.2190   -8.2570 C.3   117  CYS117      0.0956
     39  SG        75.2660   27.3250   -9.0220 S.3   117  CYS117     -0.0801
     40  N         80.9380   35.6160   -0.6060 N.3   151  GLY151     -0.1225
     41  CA        80.3640   36.1200   -1.8630 C.3   151  GLY151      0.1811
     42  C         79.3230   35.2790   -2.6170 C.2   151  GLY151      0.2280
     43  O         78.9160   35.6780   -3.7050 O.2   151  GLY151     -0.2866
     44  N         76.0870   33.6390   -4.2930 N.3   153  GLN153     -0.1245
     45  CA        74.8370   34.1760   -4.7910 C.3   153  GLN153      0.1566
     46  C         73.7680   33.4250   -4.0310 C.2   153  GLN153      0.2260
     47  O         74.0240   32.3410   -3.5660 O.2   153  GLN153     -0.2867
     48  CB        74.7370   33.9400   -6.3030 C.3   153  GLN153      0.0367
     49  CG        73.7630   34.9050   -7.0700 C.3   153  GLN153      0.0905
     50  CD        72.3780   34.3240   -7.2620 C.2   153  GLN153      0.2608
     51  OE1       72.1470   33.1340   -6.9960 O.2   153  GLN153     -0.2717
     52  NE2       71.4500   35.1350   -7.7270 N.am  153  GLN153     -0.0878
     53  N         71.3360   31.5600   -4.6870 N.3   155  CYS155     -0.1235
     54  CA        70.9550   30.1920   -5.0280 C.3   155  CYS155      0.1677
     55  C         71.6230   29.1420   -4.1270 C.2   155  CYS155      0.2270
     56  O         71.0650   28.0770   -3.8870 O.2   155  CYS155     -0.2867
     57  CB        71.2310   29.8790   -6.4940 C.3   155  CYS155      0.0956
     58  SG        72.9690   29.9110   -6.9590 S.3   155  CYS155     -0.0801
     59  N         83.9880   30.1130   -6.8550 N.3   198  ILE198     -0.1245
     60  CA        83.1820   31.0270   -7.6170 C.3   198  ILE198      0.1561
     61  C         84.1020   31.7270   -8.5530 C.2   198  ILE198      0.2260
     62  O         84.9180   32.5100   -8.1040 O.2   198  ILE198     -0.2867
     63  CB        82.4170   32.0380   -6.7400 C.3   198  ILE198      0.0252
     64  CG1       81.6180   31.2920   -5.7020 C.3   198  ILE198      0.0019
     65  CG2       81.4780   32.9090   -7.5840 C.3   198  ILE198      0.0019
     66  CD1       81.1410   32.1780   -4.5880 C.3   198  ILE198      0.0001
     67  N         83.9620   34.3900  -10.6200 N.3   200  GLY200     -0.1225
     68  CA        83.2740   35.6040  -10.9250 C.3   200  GLY200      0.1811
     69  C         82.2310   35.8330   -9.8730 C.2   200  GLY200      0.2280
     70  O         81.0940   35.3350   -9.9890 O.2   200  GLY200     -0.2866
     71  N         79.5700   37.6370   -7.7280 N.3   202  THR202     -0.1218
     72  CA        78.5030   38.5760   -8.1340 C.3   202  THR202      0.1862
     73  C         78.6720   39.9870   -7.4770 C.2   202  THR202      0.2287
     74  O         78.4280   40.9990   -8.1100 O.2   202  THR202     -0.2866
     75  CB        77.0650   38.0530   -7.8380 C.3   202  THR202      0.1770
     76  OG1       76.6590   38.3940   -6.5090 O.3   202  THR202     -0.2211
     77  CG2       76.9810   36.5590   -7.9240 C.3   202  THR202      0.0375
     78  N         81.1490   27.4750   -9.6380 N.3   233  ASP233     -0.1239
     79  CA        80.1000   28.4260  -10.0030 C.3   233  ASP233      0.1674
     80  C         80.6520   29.4840  -10.9180 C.2   233  ASP233      0.2266
     81  O         81.1360   30.4930  -10.4940 O.2   233  ASP233     -0.2867
     82  CB        79.4940   29.0590   -8.7720 C.3   233  ASP233      0.1410
     83  CG        78.2870   29.9380   -9.1030 C.2   233  ASP233      0.3668
     84  OD1       78.1150   30.1530  -10.2980 O.co2 233  ASP233     -0.2456
     85  OD2       77.5680   30.3740   -8.1500 O.co2 233  ASP233     -0.2456
     86  N         78.8360   31.0460  -13.1380 N.3   235  ALA235     -0.1231
     87  CA        77.6600   31.7690  -13.6630 C.3   235  ALA235      0.1694
     88  C         78.0780   32.8330  -14.6480 C.2   235  ALA235      0.2592
     89  O         77.6770   32.7960  -15.8160 O.2   235  ALA235     -0.2718
     90  CB        76.8370   32.3820  -12.5310 C.3   235  ALA235      0.0304
     91  N         78.9570   33.7270  -14.2260 N.am  236  SER236     -0.1952
     92  CA        79.4210   34.7870  -15.1060 C.3   236  SER236      0.1924
     93  C         80.7650   34.4770  -15.7490 C.2   236  SER236      0.2314
     94  O         80.9230   34.7060  -16.9210 O.2   236  SER236     -0.2863
     95  CB        79.4870   36.1210  -14.3630 C.3   236  SER236      0.2116
     96  OG        80.3030   35.9680  -13.1870 O.3   236  SER236     -0.2180
     97  N         75.8260   30.6550  -16.7190 N.3   263  SER263     -0.1217
     98  CA        74.5810   31.1930  -17.2380 C.3   263  SER263      0.1889
     99  C         74.8530   31.6680  -18.7010 C.2   263  SER263      0.2288
    100  O         75.7070   32.5100  -18.9550 O.2   263  SER263     -0.2866
    101  CB        74.1000   32.3410  -16.3340 C.3   263  SER263      0.2089
    102  OG        73.9230   31.8960  -14.9850 O.3   263  SER263     -0.2183
    103  N         72.7160   33.3760  -20.1980 N.3   265  HIS265     -0.1226
    104  CA        72.1700   34.6810  -20.2230 C.3   265  HIS265      0.1752
    105  C         72.9610   35.6690  -19.4110 C.2   265  HIS265      0.2595
    106  O         72.4840   36.7900  -19.2260 O.2   265  HIS265     -0.2718
    107  CB        70.6980   34.7060  -19.7700 C.3   265  HIS265      0.0759
    108  CG        70.4610   34.0900  -18.4240 C.ar  265  HIS265      0.0818
    109  ND1       69.6390   33.0260  -18.2720 N.ar  265  HIS265     -0.2268
    110  CD2       71.0290   34.2880  -17.2120 C.ar  265  HIS265      0.1154
    111  CE1       69.6120   32.6370  -17.0080 C.ar  265  HIS265      0.1986
    112  NE2       70.4550   33.3910  -16.3410 N.ar  265  HIS265     -0.2212
    113  N         74.1420   35.2940  -18.9250 N.am  266  LYS266     -0.1980
    114  CA        75.1430   36.2760  -18.4290 C.3   266  LYS266      0.1596
    115  C         76.1200   36.4750  -19.5970 C.2   266  LYS266      0.2287
    116  O         75.6640   36.8820  -20.6680 O.2   266  LYS266     -0.2864
    117  CB        75.7520   35.8830  -17.0660 C.3   266  LYS266      0.0298
    118  CG        74.6890   35.8460  -15.9480 C.3   266  LYS266      0.0038
    119  CD        75.2290   35.4030  -14.5450 C.3   266  LYS266      0.0206
    120  CE        74.3550   36.0430  -13.5210 C.3   266  LYS266      0.1093
    121  NZ        74.2380   35.6820  -12.1910 N.3   266  LYS266     -0.1314
@<TRIPOS>BOND
     1   116   115    2
     2   104   103    1
     3   104   107    1
     4   104   105    1
     5   107   108    1
     6   115   114    1
     7   105   106    2
     8   105   113   am
     9   100    99    2
    10    14    15    2
    11    14    13    1
    12   113   114    1
    13    99    98    1
    14   114   117    1
    15   108   109   ar
    16   108   110   ar
    17   109   111   ar
    18     4     3    2
    19    13    16    1
    20    13    12    1
    21    98    97    1
    22    98   101    1
    23   110   112   ar
    24    16    17    1
    25   117   118    1
    26   111   112   ar
    27    94    93    2
    28     3    12   am
    29     3     2    1
    30   101   102    1
    31   118   119    1
    32    89    88    2
    33    93    92    1
    34    18    19    1
    35     2     5    1
    36     2     1    1
    37    19    20    1
    38    92    95    1
    39    92    91    1
    40     5     6    1
    41     7     6   ar
    42     7     9   ar
    43    88    91   am
    44    88    87    1
    45   119   120    1
    46    20    21    2
    47    20    22   am
    48    95    96    1
    49     6     8   ar
    50     9    11   ar
    51    22    23    1
    52    27    26    1
    53    87    86    1
    54    87    90    1
    55   120   121    1
    56    23    26    1
    57    23    24    1
    58     8    10   ar
    59    11    10   ar
    60    24    28   am
    61    24    25    2
    62    28    29    1
    63    68    67    1
    64    68    69    1
    65    80    81    2
    66    80    79    1
    67    84    83   ar
    68    34    35    1
    69    30    29    1
    70    30    31    2
    71    29    32    1
    72    79    78    1
    73    79    82    1
    74    70    69    2
    75    32    33    1
    76    83    82    1
    77    83    85   ar
    78    39    38    1
    79    35    38    1
    80    35    36    1
    81    61    62    2
    82    61    60    1
    83    72    75    1
    84    72    71    1
    85    72    73    1
    86    74    73    2
    87    36    37    2
    88    77    75    1
    89    75    76    1
    90    52    50   am
    91    60    59    1
    92    60    63    1
    93    65    63    1
    94    50    49    1
    95    50    51    2
    96    49    48    1
    97    58    57    1
    98    63    64    1
    99    57    54    1
   100    48    45    1
   101    64    66    1
   102    54    53    1
   103    54    55    1
   104    45    44    1
   105    45    46    1
   106    55    56    2
   107    46    47    2
   108    43    42    2
   109    42    41    1
   110    41    40    1
