@<TRIPOS>MOLECULE
tmp/5gp9A00.pdb
 175 166 0 0 0
SMALL
GASTEIGER

@<TRIPOS>ATOM
      1  N         26.5120   20.3310   -3.7900 N.3    57  PHE57      -0.1241
      2  CA        26.8010   19.6930   -5.0630 C.3    57  PHE57       0.1605
      3  C         27.4060   20.6650   -6.0120 C.2    57  PHE57       0.2264
      4  O         28.3970   20.4130   -6.6670 O.2    57  PHE57      -0.2867
      5  CB        25.5530   18.8990   -5.5810 C.3    57  PHE57       0.0534
      6  CG        25.8190   18.1000   -6.8490 C.ar   57  PHE57      -0.0203
      7  CD1       26.8040   17.1470   -6.8920 C.ar   57  PHE57      -0.0042
      8  CD2       25.1070   18.3360   -7.9910 C.ar   57  PHE57      -0.0042
      9  CE1       27.0820   16.4470   -8.0600 C.ar   57  PHE57      -0.0003
     10  CE2       25.3530   17.6190   -9.1370 C.ar   57  PHE57      -0.0003
     11  CZ        26.3450   16.7030   -9.1720 C.ar   57  PHE57      -0.0000
     12  N         31.1900   21.8790   -4.8320 N.3    60  LYS60      -0.1231
     13  CA        32.1080   20.7580   -5.1050 C.3    60  LYS60       0.1693
     14  C         32.3550   20.4070   -6.5450 C.2    60  LYS60       0.2591
     15  O         33.4730   20.1070   -6.9170 O.2    60  LYS60      -0.2718
     16  CB        31.6280   19.5390   -4.3960 C.3    60  LYS60       0.0285
     17  CG        31.7670   19.6730   -2.9090 C.3    60  LYS60       0.0035
     18  CD        31.3640   18.3960   -2.2440 C.3    60  LYS60       0.0206
     19  CE        31.5100   18.3750   -0.7430 C.3    60  LYS60       0.1093
     20  NZ        32.7790   18.5870   -0.0950 N.3    60  LYS60      -0.1314
     21  N         31.2970   20.3800   -7.3490 N.am   61  MET61      -0.1979
     22  CA        31.4780   20.1970   -8.7860 C.3    61  MET61       0.1605
     23  C         32.3060   21.2870   -9.4240 C.2    61  MET61       0.2287
     24  O         33.1320   21.0220  -10.2750 O.2    61  MET61      -0.2864
     25  CB        30.0910   20.0790   -9.4610 C.3    61  MET61       0.0413
     26  CG        29.4750   18.7440   -9.1780 C.3    61  MET61       0.0598
     27  SD        30.3700   17.3100   -9.9210 S.3    61  MET61      -0.1393
     28  CE        30.8960   18.0160  -11.4220 C.3    61  MET61       0.0692
     29  N         35.9430   20.5370   -8.5460 N.3    64  PHE64      -0.1241
     30  CA        36.3000   19.2980   -9.2840 C.3    64  PHE64       0.1605
     31  C         36.6170   19.5940  -10.7190 C.2    64  PHE64       0.2264
     32  O         37.6610   19.2020  -11.1730 O.2    64  PHE64      -0.2867
     33  CB        35.1710   18.3180   -9.1250 C.3    64  PHE64       0.0534
     34  CG        35.2910   17.0680   -9.9720 C.ar   64  PHE64      -0.0203
     35  CD1       36.3750   16.2120   -9.8430 C.ar   64  PHE64      -0.0042
     36  CD2       34.3320   16.7930  -10.9200 C.ar   64  PHE64      -0.0042
     37  CE1       36.4490   15.0830  -10.6370 C.ar   64  PHE64      -0.0003
     38  CE2       34.3440   15.6340  -11.6360 C.ar   64  PHE64      -0.0003
     39  CZ        35.4080   14.7610  -11.5060 C.ar   64  PHE64      -0.0000
     40  N         38.2900   11.8280  -11.5690 N.3    89  HIS89      -0.1241
     41  CA        36.9680   11.4000  -11.1840 C.3    89  HIS89       0.1621
     42  C         36.9980   10.3410  -10.0940 C.2    89  HIS89       0.2264
     43  O         36.2970   10.4340   -9.0830 O.2    89  HIS89      -0.2867
     44  CB        36.2000   10.9460  -12.4750 C.3    89  HIS89       0.0745
     45  CG        34.7330   10.6400  -12.2980 C.ar   89  HIS89       0.0817
     46  ND1       33.7750   11.0600  -13.1940 N.ar   89  HIS89      -0.2268
     47  CD2       34.0540    9.9840  -11.3290 C.ar   89  HIS89       0.1154
     48  CE1       32.5960   10.6030  -12.8220 C.ar   89  HIS89       0.1986
     49  NE2       32.7260    9.9710  -11.6830 N.ar   89  HIS89      -0.2212
     50  N         38.7730   11.5980   -6.6300 N.3    92  GLN92      -0.1231
     51  CA        37.9470   12.4490   -5.7720 C.3    92  GLN92       0.1698
     52  C         36.9360   11.6380   -4.9640 C.2    92  GLN92       0.2592
     53  O         36.6820   11.9470   -3.8230 O.2    92  GLN92      -0.2718
     54  CB        37.2850   13.5810   -6.5550 C.3    92  GLN92       0.0381
     55  CG        38.2520   14.3910   -7.4100 C.3    92  GLN92       0.0905
     56  CD        38.8010   15.6380   -6.8030 C.2    92  GLN92       0.2608
     57  OE1       38.1810   16.6940   -6.8590 O.2    92  GLN92      -0.2717
     58  NE2       40.0270   15.5450   -6.2940 N.am   92  GLN92      -0.0878
     59  N         36.3250   10.6200   -5.5390 N.am   93  LEU93      -0.1980
     60  CA        35.4020    9.8630   -4.8130 C.3    93  LEU93       0.1596
     61  C         36.0810    8.7810   -3.8840 C.2    93  LEU93       0.2287
     62  O         35.5610    8.4090   -2.7820 O.2    93  LEU93      -0.2864
     63  CB        34.4180    9.2500   -5.7880 C.3    93  LEU93       0.0297
     64  CG        33.4780   10.3460   -6.3290 C.3    93  LEU93       0.0022
     65  CD1       32.6960    9.8280   -7.5210 C.3    93  LEU93       0.0001
     66  CD2       32.5470   10.9050   -5.2150 C.3    93  LEU93       0.0001
     67  N         30.9370   11.1160    0.5310 N.3    99  LEU99      -0.1245
     68  CA        30.5110   11.9540   -0.6360 C.3    99  LEU99       0.1561
     69  C         30.0840   11.0790   -1.7970 C.2    99  LEU99       0.2260
     70  O         29.0640   11.3440   -2.3980 O.2    99  LEU99      -0.2867
     71  CB        31.6210   12.8360   -1.1060 C.3    99  LEU99       0.0270
     72  CG        31.3730   13.6970   -2.3380 C.3    99  LEU99       0.0019
     73  CD1       30.1950   14.6040   -2.0610 C.3    99  LEU99       0.0001
     74  CD2       32.6580   14.4560   -2.5980 C.3    99  LEU99       0.0001
     75  N         26.5980   11.1840   -3.8800 N.3   103  THR103     -0.1203
     76  CA        26.5680   11.3860   -5.3520 C.3   103  THR103      0.1994
     77  C         25.9930   10.2000   -6.1070 C.2   103  THR103      0.2617
     78  O         25.2750   10.3660   -7.0950 O.2   103  THR103     -0.2717
     79  CB        27.9380   11.7430   -5.9430 C.3   103  THR103      0.1784
     80  OG1       28.8720   10.6530   -5.7960 O.3   103  THR103     -0.2211
     81  CG2       28.4770   12.9980   -5.3300 C.3   103  THR103      0.0376
     82  N         26.3140    8.9830   -5.6570 N.am  104  GLN104     -0.1979
     83  CA        25.8420    7.7770   -6.3900 C.3   104  GLN104      0.1601
     84  C         24.4840    7.2860   -5.9800 C.2   104  GLN104      0.2287
     85  O         23.7550    6.6940   -6.8240 O.2   104  GLN104     -0.2864
     86  CB        26.8710    6.6640   -6.3370 C.3   104  GLN104      0.0394
     87  CG        28.2720    7.0750   -6.6880 C.3   104  GLN104      0.0908
     88  CD        28.4000    7.8970   -7.9720 C.2   104  GLN104      0.2608
     89  OE1       28.7840    9.0590   -7.9470 O.2   104  GLN104     -0.2717
     90  NE2       28.0810    7.3000   -9.1010 N.am  104  GLN104     -0.0878
     91  N         21.7030   11.3790   -4.2150 N.3   107  LEU107     -0.1231
     92  CA        21.3770   12.4740   -5.0940 C.3   107  LEU107      0.1693
     93  C         20.6060   11.9280   -6.2890 C.2   107  LEU107      0.2591
     94  O         20.4260   12.5800   -7.3010 O.2   107  LEU107     -0.2718
     95  CB        22.7280   13.0750   -5.4740 C.3   107  LEU107      0.0284
     96  CG        22.9460   14.3950   -6.0690 C.3   107  LEU107      0.0019
     97  CD1       22.4610   15.4950   -5.1380 C.3   107  LEU107      0.0001
     98  CD2       24.4090   14.6390   -6.3950 C.3   107  LEU107      0.0001
     99  N         20.2180   10.6680   -6.2360 N.am  108  ARG108     -0.1980
    100  CA        19.4390   10.0660   -7.2950 C.3   108  ARG108      0.1597
    101  C         17.9660   10.0760   -6.7770 C.2   108  ARG108      0.2287
    102  O         17.5130    9.1600   -6.1170 O.2   108  ARG108     -0.2864
    103  CB        19.9370    8.6200   -7.6250 C.3   108  ARG108      0.0334
    104  CG        21.4470    8.5090   -8.0250 C.3   108  ARG108      0.0492
    105  CD        21.9500    9.4100   -9.1550 C.3   108  ARG108      0.2205
    106  NE        23.4110    9.5480   -9.1500 N.pl3 108  ARG108     -0.0865
    107  CZ        24.2610    9.2040  -10.1270 C.cat 108  ARG108      0.5346
    108  NH1       25.5230    9.3690   -9.9030 N.pl3 108  ARG108      0.1354
    109  NH2       23.8920    8.7640  -11.3420 N.pl3 108  ARG108      0.1354
    110  N         15.8690   17.0430   -9.4820 N.3   115  ARG115     -0.1245
    111  CA        16.5350   16.3600  -10.5560 C.3   115  ARG115      0.1563
    112  C         16.9870   17.3360  -11.6220 C.2   115  ARG115      0.2260
    113  O         18.0520   17.2190  -12.1250 O.2   115  ARG115     -0.2867
    114  CB        15.6330   15.2720  -11.1220 C.3   115  ARG115      0.0307
    115  CG        16.2560   14.4720  -12.2420 C.3   115  ARG115      0.0489
    116  CD        15.6300   13.0950  -12.4400 C.3   115  ARG115      0.2205
    117  NE        14.3040   12.9180  -11.8450 N.pl3 115  ARG115     -0.0865
    118  CZ        13.1560   13.3600  -12.3540 C.cat 115  ARG115      0.5346
    119  NH1       13.1440   14.0660  -13.4720 N.pl3 115  ARG115      0.1354
    120  NH2       12.0010   13.1010  -11.7300 N.pl3 115  ARG115      0.1354
    121  N         20.0270   19.2810  -10.1970 N.3   118  ILE118     -0.1231
    122  CA        21.2550   18.4060  -10.2230 C.3   118  ILE118      0.1692
    123  C         21.8850   18.2900  -11.6210 C.2   118  ILE118      0.2592
    124  O         23.0990   18.4250  -11.8550 O.2   118  ILE118     -0.2718
    125  CB        20.8470   17.0220   -9.6540 C.3   118  ILE118      0.0266
    126  CG1       20.5390   17.1610   -8.1680 C.3   118  ILE118      0.0019
    127  CG2       21.9320   15.9760   -9.9390 C.3   118  ILE118      0.0020
    128  CD1       19.7670   15.9400   -7.6470 C.3   118  ILE118      0.0001
    129  N         21.0560   18.0870  -12.6510 N.am  119  ASN119     -0.1974
    130  CA        21.5300   18.0700  -13.9950 C.3   119  ASN119      0.1688
    131  C         22.1360   19.3690  -14.4800 C.2   119  ASN119      0.2292
    132  O         23.1160   19.3790  -15.2300 O.2   119  ASN119     -0.2864
    133  CB        20.4140   17.6040  -14.9760 C.3   119  ASN119      0.1181
    134  CG        19.9580   16.1460  -14.7220 C.2   119  ASN119      0.2629
    135  OD1       20.7450   15.2630  -14.3910 O.2   119  ASN119     -0.2716
    136  ND2       18.6870   15.9010  -14.9090 N.am  119  ASN119     -0.0877
    137  N         25.6760   19.2830  -13.1330 N.3   122  LEU122     -0.1245
    138  CA        26.4300   18.3060  -13.8880 C.3   122  LEU122      0.1561
    139  C         26.8900   18.8070  -15.2290 C.2   122  LEU122      0.2260
    140  O         27.9720   18.4320  -15.6970 O.2   122  LEU122     -0.2867
    141  CB        25.5790   17.0340  -14.0170 C.3   122  LEU122      0.0270
    142  CG        26.1920   15.7950  -14.6530 C.3   122  LEU122      0.0019
    143  CD1       27.4170   15.3690  -13.8270 C.3   122  LEU122      0.0001
    144  CD2       25.1150   14.6970  -14.8360 C.3   122  LEU122      0.0001
    145  N         30.5850   19.7090  -15.8660 N.3   125  TYR125     -0.1241
    146  CA        31.5580   18.6150  -16.0480 C.3   125  TYR125      0.1605
    147  C         31.3950   18.0460  -17.4810 C.2   125  TYR125      0.2264
    148  O         32.3400   17.8040  -18.2190 O.2   125  TYR125     -0.2867
    149  CB        31.2790   17.5530  -15.0120 C.3   125  TYR125      0.0534
    150  CG        32.1630   16.3310  -15.0420 C.ar  125  TYR125     -0.0201
    151  CD1       33.5040   16.3920  -15.4100 C.ar  125  TYR125     -0.0009
    152  CD2       31.6810   15.1350  -14.6930 C.ar  125  TYR125     -0.0009
    153  CE1       34.2990   15.2600  -15.4090 C.ar  125  TYR125      0.0417
    154  CE2       32.4520   14.0130  -14.6680 C.ar  125  TYR125      0.0417
    155  CZ        33.7630   14.0700  -15.0430 C.ar  125  TYR125      0.1957
    156  OH        34.5580   12.9110  -15.0210 O.3   125  TYR125     -0.2866
    157  N         30.8050    9.5220  -19.5310 N.3   156  PHE156     -0.1241
    158  CA        30.1810    9.8030  -18.2850 C.3   156  PHE156      0.1605
    159  C         29.4200    8.6290  -17.8280 C.2   156  PHE156      0.2264
    160  O         29.4900    8.2640  -16.6150 O.2   156  PHE156     -0.2867
    161  CB        29.2690   11.0220  -18.3330 C.3   156  PHE156      0.0534
    162  CG        28.6340   11.2640  -17.0180 C.ar  156  PHE156     -0.0203
    163  CD1       29.3910   11.8010  -15.9490 C.ar  156  PHE156     -0.0042
    164  CD2       27.3390   10.8030  -16.7620 C.ar  156  PHE156     -0.0042
    165  CE1       28.8160   11.8690  -14.6760 C.ar  156  PHE156     -0.0003
    166  CE2       26.7700   10.9030  -15.5270 C.ar  156  PHE156     -0.0003
    167  CZ        27.5060   11.4210  -14.4830 C.ar  156  PHE156     -0.0000
    168  N         30.4020    6.7420  -14.3140 N.3   160  ASP160     -0.1239
    169  CA        29.3990    6.7720  -13.2840 C.3   160  ASP160      0.1674
    170  C         28.9540    5.4160  -12.8730 C.2   160  ASP160      0.2266
    171  O         28.7090    5.1440  -11.6670 O.2   160  ASP160     -0.2867
    172  CB        28.1810    7.6250  -13.7690 C.3   160  ASP160      0.1410
    173  CG        27.3300    8.1460  -12.6280 C.2   160  ASP160      0.3668
    174  OD1       27.7730    8.6670  -11.5890 O.co2 160  ASP160     -0.2456
    175  OD2       26.1060    7.9060  -12.7260 O.co2 160  ASP160     -0.2456
@<TRIPOS>BOND
     1   157   158    1
     2   161   158    1
     3   161   162    1
     4   158   159    1
     5   148   147    2
     6   159   160    2
     7   147   146    1
     8   162   164   ar
     9   162   163   ar
    10   164   166   ar
    11   146   145    1
    12   146   149    1
    13   163   165   ar
    14   140   139    2
    15   166   167   ar
    16   151   153   ar
    17   151   150   ar
    18   153   155   ar
    19   132   131    2
    20   139   138    1
    21   155   156    1
    22   155   154   ar
    23   150   149    1
    24   150   152   ar
    25   133   134    1
    26   133   130    1
    27   136   134   am
    28   144   142    1
    29   134   135    2
    30   152   154   ar
    31   165   167   ar
    32   142   141    1
    33   142   143    1
    34   131   130    1
    35   168   169    1
    36   141   138    1
    37   130   129    1
    38   138   137    1
    39   172   169    1
    40   172   173    1
    41   119   118    1
    42   169   170    1
    43    46    48   ar
    44    46    45   ar
    45   170   171    2
    46    48    49   ar
    47   175   173   ar
    48   129   123   am
    49   173   174   ar
    50    44    45    1
    51    44    41    1
    52   116   115    1
    53   116   117    1
    54   118   117    2
    55   118   120    1
    56    45    47   ar
    57   115   114    1
    58   113   112    2
    59   124   123    2
    60    49    47   ar
    61    38    39   ar
    62    38    36   ar
    63   112   111    1
    64   123   122    1
    65    40    41    1
    66    39    37   ar
    67    28    27    1
    68   109   107    1
    69    41    42    1
    70    32    31    2
    71   114   111    1
    72    36    34   ar
    73    31    30    1
    74    37    35   ar
    75   111   110    1
    76    24    23    2
    77   122   121    1
    78   122   125    1
    79   107   108    1
    80   107   106    2
    81    42    43    2
    82    34    35   ar
    83    34    33    1
    84   127   125    1
    85    27    26    1
    86   125   126    1
    87    25    26    1
    88    25    22    1
    89    23    22    1
    90    30    33    1
    91    30    29    1
    92    11    10   ar
    93    11     9   ar
    94   105   106    1
    95   105   104    1
    96    10     8   ar
    97    90    88   am
    98    22    21    1
    99   126   128    1
   100     9     7   ar
   101   104   103    1
   102     8     6   ar
   103    88    89    2
   104    88    87    1
   105   103   100    1
   106    65    64    1
   107    55    56    1
   108    55    54    1
   109    21    14   am
   110    94    93    2
   111   100   101    1
   112   100    99    1
   113    78    77    2
   114    15    14    2
   115     7     6   ar
   116    57    56    2
   117     6     5    1
   118    85    84    2
   119    56    58   am
   120   101   102    2
   121    87    86    1
   122     4     3    2
   123    50    51    1
   124    54    51    1
   125    14    13    1
   126    98    96    1
   127    83    86    1
   128    83    84    1
   129    83    82    1
   130    64    63    1
   131    64    66    1
   132    93    99   am
   133    93    92    1
   134    77    82   am
   135    77    76    1
   136    96    95    1
   137    96    97    1
   138     3     2    1
   139    79    80    1
   140    79    76    1
   141    79    81    1
   142    63    60    1
   143    51    52    1
   144     5     2    1
   145    59    52   am
   146    59    60    1
   147    95    92    1
   148    76    75    1
   149    13    12    1
   150    13    16    1
   151    92    91    1
   152     2     1    1
   153    52    53    2
   154    60    61    1
   155    16    17    1
   156    61    62    2
   157    17    18    1
   158    74    72    1
   159    70    69    2
   160    72    73    1
   161    72    71    1
   162    18    19    1
   163    69    68    1
   164    71    68    1
   165    19    20    1
   166    68    67    1
