@<TRIPOS>MOLECULE
tmp/5gpbA01.pdb
 115 111 0 0 0
SMALL
GASTEIGER

@<TRIPOS>ATOM
      1  N         19.2870    2.1550   46.7320 N.3    58  TRP58      -0.1227
      2  CA        20.6140    2.6950   47.0210 C.3    58  TRP58       0.1737
      3  C         21.4780    1.8280   47.9350 C.2    58  TRP58       0.2595
      4  O         22.6920    1.6050   47.7370 O.2    58  TRP58      -0.2718
      5  CB        20.4050    4.0910   47.6310 C.3    58  TRP58       0.0564
      6  CG        21.6180    5.0150   47.7240 C.ar   58  TRP58       0.0003
      7  CD1       22.8300    4.7240   47.1470 C.ar   58  TRP58       0.0946
      8  CD2       21.5700    6.2630   48.2940 C.ar   58  TRP58       0.0152
      9  NE1       23.5270    5.8090   47.3200 N.ar   58  TRP58      -0.2442
     10  CE2       22.8350    6.7490   47.9960 C.ar   58  TRP58       0.0810
     11  CE3       20.7280    6.9640   49.1640 C.ar   58  TRP58       0.0012
     12  CZ2       23.2650    7.9410   48.5630 C.ar   58  TRP58       0.0191
     13  CZ3       21.1550    8.1520   49.7340 C.ar   58  TRP58       0.0001
     14  CH2       22.4140    8.6320   49.4320 C.ar   58  TRP58       0.0015
     15  N         20.8090    1.3570   48.9780 N.am   59  ILE59      -0.1980
     16  CA        21.4640    0.5710   50.0050 C.3    59  ILE59       0.1595
     17  C         21.8190   -0.7960   49.4360 C.2    59  ILE59       0.2287
     18  O         22.9600   -1.2860   49.6060 O.2    59  ILE59      -0.2864
     19  CB        20.4980    0.5120   51.2410 C.3    59  ILE59       0.0276
     20  CG1       20.5510    1.7960   52.0420 C.3    59  ILE59       0.0022
     21  CG2       20.9160   -0.5920   52.1710 C.3    59  ILE59       0.0022
     22  CD1       19.5170    1.7450   53.1780 C.3    59  ILE59       0.0001
     23  N         24.6660   -0.3830   46.7750 N.3    62  GLN62      -0.1231
     24  CA        25.9780   -0.3310   47.4570 C.3    62  GLN62       0.1698
     25  C         26.4070   -1.5770   48.2170 C.2    62  GLN62       0.2592
     26  O         27.6120   -1.8340   48.2590 O.2    62  GLN62      -0.2718
     27  CB        26.0660    0.7870   48.4640 C.3    62  GLN62       0.0381
     28  CG        25.7050    2.1200   47.9380 C.3    62  GLN62       0.0905
     29  CD        26.3090    2.3940   46.5710 C.2    62  GLN62       0.2608
     30  OE1       27.5030    2.3010   46.3130 O.2    62  GLN62      -0.2717
     31  NE2       25.4590    2.7350   45.6200 N.am   62  GLN62      -0.0878
     32  N         25.5550   -2.3690   48.8710 N.am   63  GLN63      -0.1979
     33  CA        26.0390   -3.6150   49.4840 C.3    63  GLN63       0.1601
     34  C         26.3650   -4.6150   48.3870 C.2    63  GLN63       0.2287
     35  O         27.3500   -5.3260   48.4580 O.2    63  GLN63      -0.2864
     36  CB        24.9950   -4.1970   50.4370 C.3    63  GLN63       0.0394
     37  CG        25.3720   -5.5710   51.0230 C.3    63  GLN63       0.0908
     38  CD        26.6970   -5.7630   51.7930 C.2    63  GLN63       0.2608
     39  OE1       27.0980   -6.9000   52.0680 O.2    63  GLN63      -0.2717
     40  NE2       27.4330   -4.7330   52.2260 N.am   63  GLN63      -0.0878
     41  N         31.1800    6.4120   41.0100 N.3   146  TYR146     -0.1241
     42  CA        30.9830    7.3810   42.0620 C.3   146  TYR146      0.1605
     43  C         31.4320    8.7150   41.5410 C.2   146  TYR146      0.2264
     44  O         32.5790    8.8530   41.1140 O.2   146  TYR146     -0.2867
     45  CB        31.8320    7.0610   43.3320 C.3   146  TYR146      0.0534
     46  CG        31.6670    5.6700   43.9700 C.ar  146  TYR146     -0.0201
     47  CD1       32.2300    4.5830   43.3330 C.ar  146  TYR146     -0.0009
     48  CD2       30.9890    5.4560   45.1570 C.ar  146  TYR146     -0.0009
     49  CE1       32.1290    3.3010   43.8290 C.ar  146  TYR146      0.0417
     50  CE2       30.8960    4.1630   45.6640 C.ar  146  TYR146      0.0417
     51  CZ        31.4740    3.0890   45.0020 C.ar  146  TYR146      0.1957
     52  OH        31.4370    1.7830   45.4770 O.3   146  TYR146     -0.2866
     53  N         26.9410   12.7920   56.0660 N.3   184  ARG184     -0.1245
     54  CA        27.4530   11.5640   56.6390 C.3   184  ARG184      0.1563
     55  C         28.5400   11.9760   57.5900 C.2   184  ARG184      0.2260
     56  O         29.6700   11.5460   57.3400 O.2   184  ARG184     -0.2867
     57  CB        27.9380   10.7450   55.4310 C.3   184  ARG184      0.0307
     58  CG        26.8380   10.1270   54.5720 C.3   184  ARG184      0.0489
     59  CD        26.4900    8.7590   55.1550 C.3   184  ARG184      0.2205
     60  NE        25.1260    8.3400   54.8860 N.pl3 184  ARG184     -0.0865
     61  CZ        24.8670    7.1020   54.4680 C.cat 184  ARG184      0.5346
     62  NH1       25.8630    6.3170   54.0050 N.pl3 184  ARG184      0.1354
     63  NH2       23.5980    6.6810   54.4010 N.pl3 184  ARG184      0.1354
     64  N         31.7880   10.0220   58.6600 N.3   187  PHE187     -0.1241
     65  CA        32.8530    9.7400   57.7230 C.3   187  PHE187      0.1605
     66  C         33.7430   10.9490   57.4230 C.2   187  PHE187      0.2264
     67  O         34.2630   11.0680   56.3040 O.2   187  PHE187     -0.2867
     68  CB        32.2500    9.2380   56.4240 C.3   187  PHE187      0.0534
     69  CG        31.6490    7.8460   56.3820 C.ar  187  PHE187     -0.0203
     70  CD1       30.3000    7.6730   56.6560 C.ar  187  PHE187     -0.0042
     71  CD2       32.4460    6.7640   56.0000 C.ar  187  PHE187     -0.0042
     72  CE1       29.7270    6.4230   56.5330 C.ar  187  PHE187     -0.0003
     73  CE2       31.8570    5.5160   55.8760 C.ar  187  PHE187     -0.0003
     74  CZ        30.5020    5.3500   56.1530 C.ar  187  PHE187     -0.0000
     75  N         26.3060   12.5350   50.4930 N.3   218  ASP218     -0.1239
     76  CA        25.9700   11.6730   49.3790 C.3   218  ASP218      0.1674
     77  C         24.6140   11.9920   48.7720 C.2   218  ASP218      0.2266
     78  O         23.6450   12.2600   49.4880 O.2   218  ASP218     -0.2867
     79  CB        25.9700   10.1970   49.8520 C.3   218  ASP218      0.1410
     80  CG        27.2570    9.6940   50.4840 C.2   218  ASP218      0.3668
     81  OD1       28.2270   10.4110   50.4260 O.co2 218  ASP218     -0.2456
     82  OD2       27.3470    8.6020   51.0600 O.co2 218  ASP218     -0.2456
     83  N         29.2230   11.7380   45.9600 N.3   233  ARG233     -0.1245
     84  CA        29.7190   12.0940   47.2820 C.3   233  ARG233      0.1563
     85  C         30.3790   13.4370   47.1010 C.2   233  ARG233      0.2260
     86  O         31.2930   13.5340   46.2860 O.2   233  ARG233     -0.2867
     87  CB        30.7570   11.0940   47.8010 C.3   233  ARG233      0.0307
     88  CG        31.6240   11.4730   49.0480 C.3   233  ARG233      0.0489
     89  CD        31.0780   10.6790   50.1840 C.3   233  ARG233      0.2205
     90  NE        31.8170    9.5690   50.7520 N.pl3 233  ARG233     -0.0865
     91  CZ        31.2200    8.5850   51.4650 C.cat 233  ARG233      0.5346
     92  NH1       29.9080    8.5310   51.7640 N.pl3 233  ARG233      0.1354
     93  NH2       32.0120    7.6260   51.9030 N.pl3 233  ARG233      0.1354
     94  N         40.5120    3.2630   51.1450 N.3   300  ARG300     -0.1231
     95  CA        39.6660    2.5990   52.1330 C.3   300  ARG300      0.1694
     96  C         38.9130    1.4780   51.4540 C.2   300  ARG300      0.2591
     97  O         39.1930    0.3210   51.7180 O.2   300  ARG300     -0.2718
     98  CB        38.7120    3.6260   52.7020 C.3   300  ARG300      0.0321
     99  CG        37.9860    3.3110   54.0070 C.3   300  ARG300      0.0489
    100  CD        36.4930    3.0650   53.8320 C.3   300  ARG300      0.2205
    101  NE        35.7540    4.2040   53.2950 N.pl3 300  ARG300     -0.0865
    102  CZ        34.4630    4.0640   52.9510 C.cat 300  ARG300      0.5346
    103  NH1       33.8460    2.8800   52.9870 N.pl3 300  ARG300      0.1354
    104  NH2       33.7800    5.0950   52.4980 N.pl3 300  ARG300      0.1354
    105  N         38.0580    1.7670   50.4830 N.am  301  ARG301     -0.1980
    106  CA        37.3550    0.7380   49.7460 C.3   301  ARG301      0.1597
    107  C         38.2930   -0.2420   49.0450 C.2   301  ARG301      0.2287
    108  O         37.9460   -1.4320   49.0630 O.2   301  ARG301     -0.2864
    109  CB        36.4580    1.3820   48.7380 C.3   301  ARG301      0.0334
    110  CG        35.1050    1.4710   49.3330 C.3   301  ARG301      0.0492
    111  CD        34.1520    2.1430   48.4190 C.3   301  ARG301      0.2205
    112  NE        34.5280    3.5240   48.2430 N.pl3 301  ARG301     -0.0865
    113  CZ        33.6530    4.5120   48.4790 C.cat 301  ARG301      0.5346
    114  NH1       32.3840    4.2990   48.9080 N.pl3 301  ARG301      0.1354
    115  NH2       34.1370    5.7320   48.2690 N.pl3 301  ARG301      0.1354
@<TRIPOS>BOND
     1    41    42    1
     2    44    43    2
     3    43    42    1
     4    42    45    1
     5    45    46    1
     6    47    49   ar
     7    47    46   ar
     8    49    51   ar
     9    46    48   ar
    10    51    52    1
    11    51    50   ar
    12    48    50   ar
    13    31    29   am
    14    83    84    1
    15    86    85    2
    16    30    29    2
    17    29    28    1
    18     1     2    1
    19    23    24    1
    20     2     5    1
    21     2     3    1
    22    85    84    1
    23     7     9   ar
    24     7     6   ar
    25    84    87    1
    26     9    10   ar
    27    24    25    1
    28    24    27    1
    29     5     6    1
    30     6     8   ar
    31     4     3    2
    32    87    88    1
    33     3    15   am
    34    28    27    1
    35    10     8   ar
    36    10    12   ar
    37    25    26    2
    38    25    32   am
    39   112   111    1
    40   112   113    2
    41   115   113    1
    42     8    11   ar
    43    34    35    2
    44    34    33    1
    45   111   110    1
    46   113   114    1
    47    12    14   ar
    48   109   110    1
    49   109   106    1
    50    77    76    1
    51    77    78    2
    52    32    33    1
    53    15    16    1
    54   107   108    2
    55   107   106    1
    56    88    89    1
    57    11    13   ar
    58    76    79    1
    59    76    75    1
    60    14    13   ar
    61    17    18    2
    62    17    16    1
    63    33    36    1
    64   106   105    1
    65    79    80    1
    66    16    19    1
    67    89    90    1
    68    81    80   ar
    69    36    37    1
    70   105    96   am
    71    80    82   ar
    72    90    91    2
    73    37    38    1
    74    94    95    1
    75    19    20    1
    76    19    21    1
    77    96    97    2
    78    96    95    1
    79    91    92    1
    80    91    93    1
    81    38    39    2
    82    38    40   am
    83    20    22    1
    84    95    98    1
    85   104   102    1
    86    98    99    1
    87   102   103    1
    88   102   101    2
    89   101   100    1
    90   100    99    1
    91    62    61    1
    92    63    61    1
    93    61    60    2
    94    58    59    1
    95    58    57    1
    96    60    59    1
    97    57    54    1
    98    73    71   ar
    99    73    74   ar
   100    71    69   ar
   101    53    54    1
   102    74    72   ar
   103    67    66    2
   104    69    68    1
   105    69    70   ar
   106    68    65    1
   107    72    70   ar
   108    54    55    1
   109    56    55    2
   110    66    65    1
   111    65    64    1
