@<TRIPOS>MOLECULE
tmp/5gpbA00.pdb
 158 150 0 0 0
SMALL
GASTEIGER

@<TRIPOS>ATOM
      1  N         29.2230   25.5380   36.0200 N.3   124  ASN124     -0.1225
      2  CA        29.1950   26.7570   35.2110 C.3   124  ASN124      0.1785
      3  C         28.4440   26.5860   33.9130 C.2   124  ASN124      0.2598
      4  O         27.7500   27.4850   33.4460 O.2   124  ASN124     -0.2718
      5  CB        30.5600   27.2240   34.8050 C.3   124  ASN124      0.1169
      6  CG        31.2480   27.9780   35.9220 C.2   124  ASN124      0.2627
      7  OD1       30.9400   29.1520   36.1350 O.2   124  ASN124     -0.2716
      8  ND2       32.1670   27.3900   36.6720 N.am  124  ASN124     -0.0877
      9  N         28.6350   25.4100   33.3400 N.am  125  GLY125     -0.1942
     10  CA        28.0260   25.0920   32.0870 C.3   125  GLY125      0.2014
     11  C         28.3150   23.6960   31.6690 C.2   125  GLY125      0.2639
     12  O         28.0050   22.7270   32.3670 O.2   125  GLY125     -0.2714
     13  N         28.9940   23.6190   30.5460 N.am  126  GLY126     -0.1939
     14  CA        29.1300   22.3680   29.8240 C.3   126  GLY126      0.2014
     15  C         30.0450   21.3200   30.3680 C.2   126  GLY126      0.2638
     16  O         29.8070   20.1290   30.1290 O.2   126  GLY126     -0.2714
     17  N         31.1560   21.6640   31.0050 N.am  127  LEU127     -0.1977
     18  CA        32.0130   20.6750   31.6680 C.3   127  LEU127      0.1596
     19  C         31.1570   20.0900   32.8510 C.2   127  LEU127      0.2287
     20  O         30.9480   18.8670   32.9840 O.2   127  LEU127     -0.2864
     21  CB        33.2850   21.4330   32.1210 C.3   127  LEU127      0.0297
     22  CG        34.1650   20.8170   33.2160 C.3   127  LEU127      0.0022
     23  CD1       35.4140   20.2450   32.6290 C.3   127  LEU127      0.0001
     24  CD2       34.6370   21.8740   34.1660 C.3   127  LEU127      0.0001
     25  N         28.2740   17.9030   31.6020 N.3   130  LEU130     -0.1245
     26  CA        28.8150   16.6720   31.0550 C.3   130  LEU130      0.1561
     27  C         28.9540   15.6660   32.1970 C.2   130  LEU130      0.2260
     28  O         28.4510   14.5410   32.1360 O.2   130  LEU130     -0.2867
     29  CB        30.1580   16.9640   30.4320 C.3   130  LEU130      0.0270
     30  CG        30.6620   15.7300   29.7570 C.3   130  LEU130      0.0019
     31  CD1       29.8840   15.6550   28.4350 C.3   130  LEU130      0.0001
     32  CD2       32.1920   15.7250   29.6160 C.3   130  LEU130      0.0001
     33  N         34.3180   31.1260   33.2310 N.3   274  ASP274     -0.1225
     34  CA        34.1330   30.2640   32.0720 C.3   274  ASP274      0.1805
     35  C         35.4990   30.4060   31.3770 C.2   274  ASP274      0.2597
     36  O         36.1230   31.4720   31.4700 O.2   274  ASP274     -0.2718
     37  CB        32.9620   30.7820   31.1660 C.3   274  ASP274      0.1424
     38  CG        33.2940   31.3270   29.7610 C.2   274  ASP274      0.3668
     39  OD1       33.6730   32.4900   29.6510 O.co2 274  ASP274     -0.2456
     40  OD2       33.1950   30.6300   28.7460 O.co2 274  ASP274     -0.2456
     41  N         35.9950   29.3020   30.7900 N.am  275  ASN275     -0.1974
     42  CA        37.2300   29.1870   30.0010 C.3   275  ASN275      0.1688
     43  C         38.1640   30.4020   30.0240 C.2   275  ASN275      0.2292
     44  O         38.2430   31.1970   29.0870 O.2   275  ASN275     -0.2864
     45  CB        36.8540   28.8140   28.5100 C.3   275  ASN275      0.1181
     46  CG        36.3550   27.3660   28.2340 C.2   275  ASN275      0.2629
     47  OD1       37.1680   26.4470   28.0390 O.2   275  ASN275     -0.2716
     48  ND2       35.0560   27.0650   28.1820 N.am  275  ASN275     -0.0877
     49  N         39.4780   19.3950   27.8320 N.3   368  HIS368     -0.1226
     50  CA        38.2790   20.0860   27.4840 C.3   368  HIS368      0.1752
     51  C         38.4620   21.3230   26.6700 C.2   368  HIS368      0.2596
     52  O         37.4650   21.8390   26.1740 O.2   368  HIS368     -0.2718
     53  CB        37.5060   20.4520   28.7500 C.3   368  HIS368      0.0759
     54  CG        36.7540   19.2860   29.3470 C.ar  368  HIS368      0.0818
     55  ND1       35.5740   18.8610   29.0040 N.ar  368  HIS368     -0.2268
     56  CD2       37.1630   18.4720   30.3490 C.ar  368  HIS368      0.1154
     57  CE1       35.2220   17.8220   29.7270 C.ar  368  HIS368      0.1986
     58  NE2       36.1980   17.6160   30.5210 N.ar  368  HIS368     -0.2212
     59  N         39.6580   21.8230   26.4210 N.am  369  THR369     -0.1953
     60  CA        39.7890   23.0250   25.6300 C.3   369  THR369      0.1897
     61  C         41.1960   23.1460   25.1250 C.2   369  THR369      0.2313
     62  O         42.1160   22.5330   25.6800 O.2   369  THR369     -0.2863
     63  CB        39.4220   24.2530   26.4830 C.3   369  THR369      0.1794
     64  OG1       39.5950   25.4220   25.6740 O.3   369  THR369     -0.2208
     65  CG2       40.2680   24.3280   27.7610 C.3   369  THR369      0.0378
     66  N         41.9140   26.5470   24.1640 N.3   371  ILE371     -0.1245
     67  CA        42.1240   27.9900   24.2430 C.3   371  ILE371      0.1561
     68  C         43.1280   28.2750   25.4000 C.2   371  ILE371      0.2260
     69  O         42.9120   27.8990   26.5680 O.2   371  ILE371     -0.2867
     70  CB        40.6920   28.6150   24.4030 C.3   371  ILE371      0.0252
     71  CG1       39.5270   27.7970   23.7390 C.3   371  ILE371      0.0019
     72  CG2       40.6990   29.8640   23.5430 C.3   371  ILE371      0.0019
     73  CD1       38.0720   27.7570   24.3150 C.3   371  ILE371      0.0001
     74  N         37.0100   15.6930   23.4540 N.3   446  VAL446     -0.1245
     75  CA        35.6020   15.5740   23.5550 C.3   446  VAL446      0.1561
     76  C         34.9190   15.5810   22.2220 C.2   446  VAL446      0.2260
     77  O         33.6940   15.6100   22.1780 O.2   446  VAL446     -0.2867
     78  CB        35.1150   16.6970   24.5210 C.3   446  VAL446      0.0252
     79  CG1       35.6030   16.1880   25.8850 C.3   446  VAL446      0.0019
     80  CG2       35.6900   18.1250   24.3310 C.3   446  VAL446      0.0019
     81  N         31.3450   13.5740   23.2080 N.3   475  ASN475     -0.1240
     82  CA        30.3620   13.8970   24.1860 C.3   475  ASN475      0.1653
     83  C         29.0130   13.4080   23.7800 C.2   475  ASN475      0.2266
     84  O         28.7730   12.9500   22.6520 O.2   475  ASN475     -0.2867
     85  CB        30.3560   15.3900   24.3810 C.3   475  ASN475      0.1155
     86  CG        31.5300   15.9510   25.2080 C.2   475  ASN475      0.2627
     87  OD1       31.6300   17.1530   25.4800 O.2   475  ASN475     -0.2716
     88  ND2       32.4690   15.2280   25.7800 N.am  475  ASN475     -0.0877
     89  N         27.3950   30.0040   27.6500 N.3   560  ARG560     -0.1245
     90  CA        28.0000   31.1390   28.3430 C.3   560  ARG560      0.1563
     91  C         28.4690   32.1270   27.2930 C.2   560  ARG560      0.2260
     92  O         28.8570   31.7590   26.1590 O.2   560  ARG560     -0.2867
     93  CB        29.2320   30.7690   29.2040 C.3   560  ARG560      0.0307
     94  CG        28.9850   29.9560   30.4710 C.3   560  ARG560      0.0489
     95  CD        28.1700   30.7260   31.5120 C.3   560  ARG560      0.2205
     96  NE        28.7810   30.6370   32.8370 N.pl3 560  ARG560     -0.0865
     97  CZ        29.7510   31.4940   33.2230 C.cat 560  ARG560      0.5346
     98  NH1       30.1390   32.5220   32.4190 N.pl3 560  ARG560      0.1354
     99  NH2       30.3130   31.3200   34.4270 N.pl3 560  ARG560      0.1354
    100  N         34.6930   33.6470   21.8420 N.3   564  TYR564     -0.1227
    101  CA        34.8050   32.5660   20.8850 C.3   564  TYR564      0.1736
    102  C         33.4640   31.9410   20.5640 C.2   564  TYR564      0.2595
    103  O         33.3310   31.2460   19.5590 O.2   564  TYR564     -0.2718
    104  CB        35.8200   31.4670   21.4110 C.3   564  TYR564      0.0548
    105  CG        35.3320   30.3670   22.3600 C.ar  564  TYR564     -0.0200
    106  CD1       34.6620   29.2850   21.8400 C.ar  564  TYR564     -0.0009
    107  CD2       35.4790   30.4630   23.7320 C.ar  564  TYR564     -0.0009
    108  CE1       34.1340   28.3320   22.6610 C.ar  564  TYR564      0.0417
    109  CE2       34.9450   29.4990   24.5640 C.ar  564  TYR564      0.0417
    110  CZ        34.2710   28.4440   24.0170 C.ar  564  TYR564      0.1957
    111  OH        33.6880   27.4820   24.8130 O.3   564  TYR564     -0.2866
    112  N         32.4450   32.1420   21.3720 N.am  565  LYS565     -0.1980
    113  CA        31.1550   31.4960   21.1660 C.3   565  LYS565      0.1596
    114  C         30.3120   32.2760   20.1620 C.2   565  LYS565      0.2287
    115  O         29.3530   31.7460   19.6020 O.2   565  LYS565     -0.2864
    116  CB        30.4150   31.4010   22.5070 C.3   565  LYS565      0.0298
    117  CG        31.0930   30.7470   23.7250 C.3   565  LYS565      0.0038
    118  CD        30.6530   29.2940   23.7940 C.3   565  LYS565      0.0206
    119  CE        30.4300   28.7150   25.1910 C.3   565  LYS565      0.1093
    120  NZ        30.8400   27.3280   25.1570 N.3   565  LYS565     -0.1314
    121  N         37.6000   26.2970   17.9820 N.3   662  THR662     -0.1203
    122  CA        37.6410   26.7370   19.3680 C.3   662  THR662      0.1994
    123  C         36.7320   25.8900   20.2840 C.2   662  THR662      0.2618
    124  O         37.2580   25.3580   21.2720 O.2   662  THR662     -0.2717
    125  CB        37.2920   28.2450   19.3940 C.3   662  THR662      0.1784
    126  OG1       36.0250   28.5490   18.8360 O.3   662  THR662     -0.2211
    127  CG2       38.3300   28.9440   18.5370 C.3   662  THR662      0.0376
    128  N         35.4490   25.6220   19.9960 N.am  663  GLU663     -0.1965
    129  CA        34.5390   24.8970   20.8600 C.3   663  GLU663      0.1733
    130  C         34.9830   23.4740   20.6840 C.2   663  GLU663      0.2616
    131  O         35.0250   22.9330   19.5920 O.2   663  GLU663     -0.2715
    132  CB        33.0810   25.0460   20.4130 C.3   663  GLU663      0.0429
    133  CG        31.9700   24.5530   21.3800 C.3   663  GLU663      0.1163
    134  CD        31.6800   25.4730   22.5550 C.2   663  GLU663      0.3649
    135  OE1       32.3830   25.4860   23.5580 O.co2 663  GLU663     -0.2457
    136  OE2       30.7120   26.2220   22.5120 O.co2 663  GLU663     -0.2457
    137  N         35.3760   22.8400   21.7630 N.am  664  ALA664     -0.1963
    138  CA        35.8690   21.4900   21.7530 C.3   664  ALA664      0.1728
    139  C         34.8700   20.4420   21.3450 C.2   664  ALA664      0.2617
    140  O         35.1970   19.4300   20.7000 O.2   664  ALA664     -0.2715
    141  CB        36.3910   21.2090   23.1390 C.3   664  ALA664      0.0334
    142  N         33.6560   20.6880   21.7890 N.am  665  SER665     -0.1936
    143  CA        32.5870   19.7720   21.4820 C.3   665  SER665      0.2055
    144  C         31.3110   20.5970   21.4160 C.2   665  SER665      0.2644
    145  O         30.8440   20.8720   20.2920 O.2   665  SER665     -0.2714
    146  CB        32.5120   18.6710   22.5700 C.3   665  SER665      0.2130
    147  OG        31.4080   17.7510   22.4680 O.3   665  SER665     -0.2179
    148  N         30.8870   21.1440   22.5510 N.am  666  GLY666     -0.1939
    149  CA        29.5880   21.7460   22.7710 C.3   666  GLY666      0.2014
    150  C         28.6620   20.5670   23.1170 C.2   666  GLY666      0.2639
    151  O         28.8670   19.4240   22.6860 O.2   666  GLY666     -0.2714
    152  N         27.6280   20.7200   23.9530 N.am  667  THR667     -0.1950
    153  CA        26.6380   19.6910   24.1980 C.3   667  THR667      0.1897
    154  C         25.2320   20.2760   24.0290 C.2   667  THR667      0.2313
    155  O         24.2060   19.6020   23.7370 O.2   667  THR667     -0.2863
    156  CB        26.9310   19.1370   25.5920 C.3   667  THR667      0.1794
    157  OG1       27.1370   20.2470   26.4520 O.3   667  THR667     -0.2208
    158  CG2       28.1260   18.1890   25.5880 C.3   667  THR667      0.0378
@<TRIPOS>BOND
     1   121   122    1
     2   127   125    1
     3   126   125    1
     4   122   125    1
     5   122   123    1
     6   103   102    2
     7   131   130    2
     8   115   114    2
     9   128   123   am
    10   128   129    1
    11   114   113    1
    12   123   124    2
    13   145   144    2
    14   132   129    1
    15   132   133    1
    16   102   101    1
    17   102   112   am
    18   130   129    1
    19   130   137   am
    20   140   139    2
    21   101   104    1
    22   101   100    1
    23   113   112    1
    24   113   116    1
    25   139   138    1
    26   139   142   am
    27   133   134    1
    28   104   105    1
    29   144   143    1
    30   144   148   am
    31   143   142    1
    32   143   146    1
    33   138   137    1
    34   138   141    1
    35   106   105   ar
    36   106   108   ar
    37    77    76    2
    38    76    75    1
    39   105   107   ar
    40   147   146    1
    41   116   117    1
    42   136   134   ar
    43   148   149    1
    44   134   135   ar
    45    84    83    2
    46   108   110   ar
    47   151   150    2
    48   149   150    1
    49   150   152   am
    50    81    82    1
    51    74    75    1
    52    72    70    1
    53    75    78    1
    54   117   118    1
    55   107   109   ar
    56   155   154    2
    57    71    73    1
    58    71    70    1
    59    83    82    1
    60   118   119    1
    61   152   153    1
    62   110   109   ar
    63   110   111    1
    64   154   153    1
    65    66    67    1
    66    82    85    1
    67   153   156    1
    68    67    70    1
    69    67    68    1
    70    80    78    1
    71    85    86    1
    72    78    79    1
    73    61    60    1
    74    61    62    2
    75   120   119    1
    76    86    87    2
    77    86    88   am
    78    68    69    2
    79   158   156    1
    80   156   157    1
    81    60    59    1
    82    60    63    1
    83    64    63    1
    84    92    91    2
    85    52    51    2
    86    59    51   am
    87    63    65    1
    88    51    50    1
    89    91    90    1
    90    50    49    1
    91    50    53    1
    92    89    90    1
    93    47    46    2
    94    48    46   am
    95    46    45    1
    96    90    93    1
    97    31    30    1
    98    45    42    1
    99    40    38   ar
   100    53    54    1
   101    55    54   ar
   102    55    57   ar
   103    44    43    2
   104    93    94    1
   105    54    56   ar
   106    32    30    1
   107    39    38   ar
   108    57    58   ar
   109    30    29    1
   110    38    37    1
   111    14    15    1
   112    14    13    1
   113    42    43    1
   114    42    41    1
   115    16    15    2
   116    56    58   ar
   117    15    17   am
   118    29    26    1
   119    94    95    1
   120    13    11   am
   121    41    35   am
   122    17    18    1
   123    26    25    1
   124    26    27    1
   125    37    34    1
   126    35    36    2
   127    35    34    1
   128    95    96    1
   129    18    21    1
   130    18    19    1
   131    11    10    1
   132    11    12    2
   133    34    33    1
   134    10     9    1
   135    21    22    1
   136    28    27    2
   137    98    97    1
   138    23    22    1
   139    96    97    2
   140    19    20    2
   141    22    24    1
   142    97    99    1
   143     9     3   am
   144     4     3    2
   145     3     2    1
   146     5     2    1
   147     5     6    1
   148     2     1    1
   149     6     7    2
   150     6     8   am
