@<TRIPOS>MOLECULE
tmp/5gqbA03.pdb
 106 103 0 0 0
SMALL
GASTEIGER

@<TRIPOS>ATOM
      1  N         16.3970   34.6660   36.0340 N.3   145  TRP145     -0.1241
      2  CA        17.4190   33.7980   35.5130 C.3   145  TRP145      0.1605
      3  C         18.7190   34.5330   35.3370 C.2   145  TRP145      0.2264
      4  O         19.6900   33.9840   34.9180 O.2   145  TRP145     -0.2867
      5  CB        16.9590   33.1350   34.2250 C.3   145  TRP145      0.0550
      6  CG        16.4020   34.0480   33.2290 C.ar  145  TRP145      0.0003
      7  CD1       17.0380   34.5830   32.1880 C.ar  145  TRP145      0.0946
      8  CD2       15.0810   34.5330   33.1710 C.ar  145  TRP145      0.0152
      9  NE1       16.2180   35.3690   31.4820 N.ar  145  TRP145     -0.2442
     10  CE2       14.9920   35.3480   32.0670 C.ar  145  TRP145      0.0810
     11  CE3       13.9600   34.3500   33.9460 C.ar  145  TRP145      0.0012
     12  CZ2       13.8380   35.9890   31.7280 C.ar  145  TRP145      0.0191
     13  CZ3       12.8390   34.9700   33.6030 C.ar  145  TRP145      0.0001
     14  CH2       12.7730   35.7820   32.5150 C.ar  145  TRP145      0.0015
     15  N         24.1950   34.9690   32.8530 N.3   150  ARG150     -0.1245
     16  CA        24.2640   36.4140   32.7840 C.3   150  ARG150      0.1563
     17  C         25.0670   37.1000   33.8890 C.2   150  ARG150      0.2260
     18  O         25.5330   38.2030   33.7300 O.2   150  ARG150     -0.2867
     19  CB        22.8680   36.9540   32.8090 C.3   150  ARG150      0.0307
     20  CG        22.2620   37.1590   31.4730 C.3   150  ARG150      0.0489
     21  CD        20.7920   36.9760   31.5930 C.3   150  ARG150      0.2205
     22  NE        20.1540   37.5260   30.4450 N.pl3 150  ARG150     -0.0865
     23  CZ        19.4560   36.8260   29.5920 C.cat 150  ARG150      0.5346
     24  NH1       19.3200   35.5440   29.7520 N.pl3 150  ARG150      0.1354
     25  NH2       18.9230   37.4210   28.5680 N.pl3 150  ARG150      0.1354
     26  N         10.0510   36.5210   36.2830 N.3   169  PHE169     -0.1241
     27  CA         8.6060   36.6520   36.3730 C.3   169  PHE169      0.1605
     28  C          8.0620   35.7260   37.4390 C.2   169  PHE169      0.2264
     29  O          8.7280   34.7870   37.8460 O.2   169  PHE169     -0.2867
     30  CB         7.9440   36.3310   35.0370 C.3   169  PHE169      0.0534
     31  CG         8.1610   37.3700   33.9990 C.ar  169  PHE169     -0.0203
     32  CD1        7.3130   38.4610   33.9110 C.ar  169  PHE169     -0.0042
     33  CD2        9.2090   37.2610   33.1030 C.ar  169  PHE169     -0.0042
     34  CE1        7.5170   39.4240   32.9540 C.ar  169  PHE169     -0.0003
     35  CE2        9.4080   38.2130   32.1360 C.ar  169  PHE169     -0.0003
     36  CZ         8.5640   39.3000   32.0630 C.ar  169  PHE169     -0.0000
     37  N          5.2870   27.0840   28.1750 N.3   182  LEU182     -0.1245
     38  CA         6.5640   26.8320   28.8430 C.3   182  LEU182      0.1561
     39  C          7.3610   25.7180   28.1640 C.2   182  LEU182      0.2260
     40  O          8.5580   25.5420   28.4190 O.2   182  LEU182     -0.2867
     41  CB         6.3230   26.4630   30.3040 C.3   182  LEU182      0.0270
     42  CG         6.0990   27.6270   31.2550 C.3   182  LEU182      0.0019
     43  CD1        5.9270   27.0790   32.6410 C.3   182  LEU182      0.0001
     44  CD2        7.2730   28.5830   31.1950 C.3   182  LEU182      0.0001
     45  N         10.4660   26.0510   25.8610 N.3   185  ILE185     -0.1245
     46  CA        11.7360   26.2600   26.5300 C.3   185  ILE185      0.1561
     47  C         12.0570   25.0370   27.3490 C.2   185  ILE185      0.2260
     48  O         11.2850   24.6490   28.2180 O.2   185  ILE185     -0.2867
     49  CB        11.7000   27.4920   27.4190 C.3   185  ILE185      0.0252
     50  CG1       11.5190   28.7400   26.5620 C.3   185  ILE185      0.0019
     51  CG2       12.9610   27.5850   28.2360 C.3   185  ILE185      0.0019
     52  CD1       11.4720   30.0110   27.3530 C.3   185  ILE185      0.0001
     53  N         11.7440   24.0770   31.5250 N.3   188  SER188     -0.1217
     54  CA        10.9750   25.0800   32.2550 C.3   188  SER188      0.1889
     55  C          9.5810   24.6530   32.6970 C.2   188  SER188      0.2288
     56  O          9.1780   24.9250   33.8230 O.2   188  SER188     -0.2866
     57  CB        10.8690   26.3500   31.4220 C.3   188  SER188      0.2089
     58  OG        12.0520   27.1130   31.5770 O.3   188  SER188     -0.2183
     59  N          8.9750   30.2260   39.9730 N.3   207  HIS207     -0.1241
     60  CA         9.4520   29.3690   38.8950 C.3   207  HIS207      0.1621
     61  C         10.7650   28.6910   39.2790 C.2   207  HIS207      0.2264
     62  O         10.9750   27.5220   38.9550 O.2   207  HIS207     -0.2867
     63  CB         9.6210   30.1800   37.6090 C.3   207  HIS207      0.0745
     64  CG         9.5720   29.3620   36.3540 C.ar  207  HIS207      0.0817
     65  ND1        9.8970   28.0220   36.3160 N.ar  207  HIS207     -0.2268
     66  CD2        9.2580   29.7050   35.0810 C.ar  207  HIS207      0.1154
     67  CE1        9.7690   27.5700   35.0820 C.ar  207  HIS207      0.1986
     68  NE2        9.3770   28.5700   34.3130 N.ar  207  HIS207     -0.2212
     69  N          5.9170   33.7340   28.1460 N.3   254  THR254     -0.1203
     70  CA         5.7610   32.2890   28.2630 C.3   254  THR254      0.1994
     71  C          5.0260   31.8370   29.5260 C.2   254  THR254      0.2617
     72  O          4.9160   30.6400   29.7790 O.2   254  THR254     -0.2717
     73  CB         7.1340   31.5770   28.2170 C.3   254  THR254      0.1784
     74  OG1        7.8110   31.7410   29.4670 O.3   254  THR254     -0.2211
     75  CG2        7.9950   32.1360   27.1080 C.3   254  THR254      0.0376
     76  N          4.5170   32.7790   30.3150 N.am  255  LEU255     -0.1979
     77  CA         3.8010   32.4230   31.5340 C.3   255  LEU255      0.1596
     78  C          2.4030   33.0060   31.5550 C.2   255  LEU255      0.2287
     79  O          1.6990   32.8960   32.5490 O.2   255  LEU255     -0.2864
     80  CB         4.5710   32.8910   32.7720 C.3   255  LEU255      0.0297
     81  CG         5.8600   32.1390   33.1300 C.3   255  LEU255      0.0022
     82  CD1        6.6350   32.8930   34.1820 C.3   255  LEU255      0.0001
     83  CD2        5.5630   30.7250   33.6100 C.3   255  LEU255      0.0001
     84  N         22.5110   35.8100   23.9970 N.3   450  TRP450     -0.1227
     85  CA        22.0710   34.6810   24.7830 C.3   450  TRP450      0.1737
     86  C         21.1680   33.8130   23.9790 C.2   450  TRP450      0.2595
     87  O         21.0250   32.6630   24.2440 O.2   450  TRP450     -0.2718
     88  CB        21.3690   35.1220   26.0760 C.3   450  TRP450      0.0564
     89  CG        22.1480   36.0920   26.8370 C.ar  450  TRP450      0.0003
     90  CD1       21.9400   37.3880   26.8950 C.ar  450  TRP450      0.0946
     91  CD2       23.3100   35.8400   27.6090 C.ar  450  TRP450      0.0152
     92  NE1       22.8770   37.9870   27.6430 N.ar  450  TRP450     -0.2442
     93  CE2       23.7380   37.0490   28.1080 C.ar  450  TRP450      0.0810
     94  CE3       24.0270   34.7010   27.9330 C.ar  450  TRP450      0.0012
     95  CZ2       24.8440   37.1660   28.9110 C.ar  450  TRP450      0.0191
     96  CZ3       25.1140   34.8240   28.7230 C.ar  450  TRP450      0.0001
     97  CH2       25.5200   36.0360   29.1990 C.ar  450  TRP450      0.0015
     98  N         20.5700   34.3910   22.9660 N.am  451  GLN451     -0.1979
     99  CA        19.4070   33.8370   22.3520 C.3   451  GLN451      0.1601
    100  C         19.6130   34.3330   20.9950 C.2   451  GLN451      0.2287
    101  O         20.3590   35.2340   20.8200 O.2   451  GLN451     -0.2864
    102  CB        18.2210   34.5530   22.9270 C.3   451  GLN451      0.0394
    103  CG        16.9240   33.8100   23.0090 C.3   451  GLN451      0.0908
    104  CD        15.8130   34.7700   23.3190 C.2   451  GLN451      0.2608
    105  OE1       16.0020   35.7130   24.0670 O.2   451  GLN451     -0.2717
    106  NE2       14.6650   34.5560   22.7340 N.am  451  GLN451     -0.0878
@<TRIPOS>BOND
     1   101   100    2
     2   100    99    1
     3    99   102    1
     4    99    98    1
     5   106   104   am
     6   102   103    1
     7    98    86   am
     8   103   104    1
     9   104   105    2
    10    86    87    2
    11    86    85    1
    12    84    85    1
    13    85    88    1
    14    45    46    1
    15    88    89    1
    16    46    47    1
    17    46    49    1
    18    50    52    1
    19    50    49    1
    20    89    90   ar
    21    89    91   ar
    22    90    92   ar
    23    75    73    1
    24    47    48    2
    25    49    51    1
    26    91    94   ar
    27    91    93   ar
    28    92    93   ar
    29    94    96   ar
    30    93    95   ar
    31    69    70    1
    32    39    40    2
    33    39    38    1
    34    37    38    1
    35    73    70    1
    36    73    74    1
    37    70    71    1
    38    25    23    1
    39    96    97   ar
    40    38    41    1
    41    95    97   ar
    42    71    72    2
    43    71    76   am
    44    23    24    1
    45    23    22    2
    46    41    42    1
    47    76    77    1
    48    22    21    1
    49    44    42    1
    50    42    43    1
    51    57    58    1
    52    57    54    1
    53    20    21    1
    54    20    19    1
    55     9    10   ar
    56     9     7   ar
    57    53    54    1
    58    77    78    1
    59    77    80    1
    60    78    79    2
    61    12    10   ar
    62    12    14   ar
    63    36    35   ar
    64    36    34   ar
    65    10     8   ar
    66    35    33   ar
    67     7     6   ar
    68    54    55    1
    69    14    13   ar
    70    55    56    2
    71    80    81    1
    72    16    19    1
    73    16    15    1
    74    16    17    1
    75    34    32   ar
    76    33    31   ar
    77    81    83    1
    78    81    82    1
    79     8     6   ar
    80     8    11   ar
    81     6     5    1
    82    13    11   ar
    83    18    17    2
    84    32    31   ar
    85    31    30    1
    86     5     2    1
    87    68    66   ar
    88    68    67   ar
    89     4     3    2
    90    30    27    1
    91    66    64   ar
    92    67    65   ar
    93     3     2    1
    94     2     1    1
    95    26    27    1
    96    65    64   ar
    97    64    63    1
    98    27    28    1
    99    28    29    2
   100    63    60    1
   101    60    61    1
   102    60    59    1
   103    62    61    2
