@<TRIPOS>MOLECULE
tmp/5gqbA02.pdb
 161 159 0 0 0
SMALL
GASTEIGER

@<TRIPOS>ATOM
      1  N         13.2020   46.1640   34.5080 N.3   141  TYR141     -0.1241
      2  CA        12.8780   44.7770   34.8480 C.3   141  TYR141      0.1605
      3  C         14.1220   44.0280   35.2970 C.2   141  TYR141      0.2264
      4  O         15.1830   44.1840   34.6990 O.2   141  TYR141     -0.2867
      5  CB        12.2520   44.0550   33.6530 C.3   141  TYR141      0.0534
      6  CG        10.7490   44.1520   33.5840 C.ar  141  TYR141     -0.0201
      7  CD1       10.1320   45.2190   32.9460 C.ar  141  TYR141     -0.0009
      8  CD2        9.9490   43.1750   34.1580 C.ar  141  TYR141     -0.0009
      9  CE1        8.7620   45.3140   32.8860 C.ar  141  TYR141      0.0417
     10  CE2        8.5800   43.2570   34.1000 C.ar  141  TYR141      0.0417
     11  CZ         7.9890   44.3270   33.4630 C.ar  141  TYR141      0.1957
     12  OH         6.6180   44.4070   33.4090 O.3   141  TYR141     -0.2866
     13  N         16.3970   34.6660   36.0340 N.3   145  TRP145     -0.1241
     14  CA        17.4190   33.7980   35.5130 C.3   145  TRP145      0.1605
     15  C         18.7190   34.5330   35.3370 C.2   145  TRP145      0.2264
     16  O         19.6900   33.9840   34.9180 O.2   145  TRP145     -0.2867
     17  CB        16.9590   33.1350   34.2250 C.3   145  TRP145      0.0550
     18  CG        16.4020   34.0480   33.2290 C.ar  145  TRP145      0.0003
     19  CD1       17.0380   34.5830   32.1880 C.ar  145  TRP145      0.0946
     20  CD2       15.0810   34.5330   33.1710 C.ar  145  TRP145      0.0152
     21  NE1       16.2180   35.3690   31.4820 N.ar  145  TRP145     -0.2442
     22  CE2       14.9920   35.3480   32.0670 C.ar  145  TRP145      0.0810
     23  CE3       13.9600   34.3500   33.9460 C.ar  145  TRP145      0.0012
     24  CZ2       13.8380   35.9890   31.7280 C.ar  145  TRP145      0.0191
     25  CZ3       12.8390   34.9700   33.6030 C.ar  145  TRP145      0.0001
     26  CH2       12.7730   35.7820   32.5150 C.ar  145  TRP145      0.0015
     27  N         10.0510   36.5210   36.2830 N.3   169  PHE169     -0.1241
     28  CA         8.6060   36.6520   36.3730 C.3   169  PHE169      0.1605
     29  C          8.0620   35.7260   37.4390 C.2   169  PHE169      0.2264
     30  O          8.7280   34.7870   37.8460 O.2   169  PHE169     -0.2867
     31  CB         7.9440   36.3310   35.0370 C.3   169  PHE169      0.0534
     32  CG         8.1610   37.3700   33.9990 C.ar  169  PHE169     -0.0203
     33  CD1        7.3130   38.4610   33.9110 C.ar  169  PHE169     -0.0042
     34  CD2        9.2090   37.2610   33.1030 C.ar  169  PHE169     -0.0042
     35  CE1        7.5170   39.4240   32.9540 C.ar  169  PHE169     -0.0003
     36  CE2        9.4080   38.2130   32.1360 C.ar  169  PHE169     -0.0003
     37  CZ         8.5640   39.3000   32.0630 C.ar  169  PHE169     -0.0000
     38  N          4.2920   37.5330   31.6680 N.3   252  GLY252     -0.1210
     39  CA         5.2390   37.6590   30.5740 C.3   252  GLY252      0.1956
     40  C          4.8710   36.7110   29.4380 C.2   252  GLY252      0.2612
     41  O          3.8690   35.9980   29.5120 O.2   252  GLY252     -0.2717
     42  N          5.7080   36.6680   28.4070 N.am  253  TRP253     -0.1962
     43  CA         5.4210   35.9230   27.1880 C.3   253  TRP253      0.1771
     44  C          5.0730   34.4500   27.4140 C.2   253  TRP253      0.2620
     45  O          4.0430   33.9750   26.9370 O.2   253  TRP253     -0.2715
     46  CB         6.6110   36.0260   26.2370 C.3   253  TRP253      0.0590
     47  CG         6.3590   35.4150   24.9020 C.ar  253  TRP253      0.0006
     48  CD1        6.8240   34.2160   24.4430 C.ar  253  TRP253      0.0946
     49  CD2        5.5580   35.9630   23.8550 C.ar  253  TRP253      0.0152
     50  NE1        6.3690   33.9940   23.1680 N.ar  253  TRP253     -0.2442
     51  CE2        5.5880   35.0520   22.7850 C.ar  253  TRP253      0.0810
     52  CE3        4.8140   37.1350   23.7190 C.ar  253  TRP253      0.0012
     53  CZ2        4.9080   35.2790   21.5930 C.ar  253  TRP253      0.0191
     54  CZ3        4.1380   37.3600   22.5250 C.ar  253  TRP253      0.0001
     55  CH2        4.1910   36.4380   21.4820 C.ar  253  TRP253      0.0015
     56  N          5.9170   33.7340   28.1460 N.am  254  THR254     -0.1951
     57  CA         5.7610   32.2890   28.2630 C.3   254  THR254      0.1897
     58  C          5.0260   31.8370   29.5260 C.2   254  THR254      0.2313
     59  O          4.9160   30.6400   29.7790 O.2   254  THR254     -0.2863
     60  CB         7.1340   31.5770   28.2170 C.3   254  THR254      0.1794
     61  OG1        7.8110   31.7410   29.4670 O.3   254  THR254     -0.2208
     62  CG2        7.9950   32.1360   27.1080 C.3   254  THR254      0.0378
     63  N          0.0720   38.7490   28.3660 N.3   293  GLU293     -0.1245
     64  CA         0.3490   38.8970   26.9470 C.3   293  GLU293      0.1567
     65  C         -0.3430   37.8060   26.1310 C.2   293  GLU293      0.2260
     66  O          0.0570   36.6470   26.1790 O.2   293  GLU293     -0.2867
     67  CB         1.8650   38.8780   26.6980 C.3   293  GLU293      0.0388
     68  CG         2.6400   39.7430   27.6900 C.3   293  GLU293      0.1160
     69  CD         4.1220   39.9000   27.3480 C.2   293  GLU293      0.3649
     70  OE1        4.5470   39.5630   26.2200 O.co2 293  GLU293     -0.2457
     71  OE2        4.8720   40.3630   28.2350 O.co2 293  GLU293     -0.2457
     72  N          4.6750   48.6410   26.4720 N.3   366  MET366     -0.1245
     73  CA         5.7550   47.8800   25.8440 C.3   366  MET366      0.1570
     74  C          6.0570   48.3830   24.4360 C.2   366  MET366      0.2261
     75  O          5.7660   47.7130   23.4420 O.2   366  MET366     -0.2867
     76  CB         5.4050   46.3930   25.8050 C.3   366  MET366      0.0387
     77  CG         5.2880   45.7630   27.1790 C.3   366  MET366      0.0595
     78  SD         5.0930   43.9830   27.1010 S.3   366  MET366     -0.1393
     79  CE         3.3710   43.8560   26.6390 C.3   366  MET366      0.0692
     80  N          8.4270   48.3930   22.4410 N.3   368  TYR368     -0.1227
     81  CA         9.5470   47.7180   21.7930 C.3   368  TYR368      0.1736
     82  C          9.0340   46.4220   21.1430 C.2   368  TYR368      0.2595
     83  O          7.8270   46.1560   21.1340 O.2   368  TYR368     -0.2718
     84  CB        10.6790   47.4270   22.7900 C.3   368  TYR368      0.0548
     85  CG        10.2240   46.9170   24.1440 C.ar  368  TYR368     -0.0200
     86  CD1        9.9360   45.5720   24.3420 C.ar  368  TYR368     -0.0009
     87  CD2       10.1060   47.7760   25.2300 C.ar  368  TYR368     -0.0009
     88  CE1        9.5340   45.1030   25.5620 C.ar  368  TYR368      0.0417
     89  CE2        9.7060   47.3130   26.4680 C.ar  368  TYR368      0.0417
     90  CZ         9.4180   45.9750   26.6250 C.ar  368  TYR368      0.1957
     91  OH         9.0100   45.4980   27.8490 O.3   368  TYR368     -0.2866
     92  N          9.9480   45.6260   20.5980 N.am  369  ASP369     -0.1974
     93  CA         9.5940   44.4150   19.8620 C.3   369  ASP369      0.1709
     94  C          8.5760   44.6820   18.7530 C.2   369  ASP369      0.2293
     95  O          7.7270   43.8400   18.4710 O.2   369  ASP369     -0.2864
     96  CB         9.0570   43.3360   20.8060 C.3   369  ASP369      0.1436
     97  CG        10.1120   42.8170   21.7590 C.2   369  ASP369      0.3671
     98  OD1       11.3100   43.0520   21.5080 O.co2 369  ASP369     -0.2456
     99  OD2        9.7550   42.1790   22.7670 O.co2 369  ASP369     -0.2456
    100  N         18.1810   46.2030   24.5700 N.3   422  TYR422     -0.1241
    101  CA        18.6410   45.1000   23.7440 C.3   422  TYR422      0.1605
    102  C         18.3680   45.3670   22.2570 C.2   422  TYR422      0.2264
    103  O         17.5180   46.1820   21.8920 O.2   422  TYR422     -0.2867
    104  CB        17.9520   43.8060   24.1840 C.3   422  TYR422      0.0534
    105  CG        16.4600   43.8590   23.9560 C.ar  422  TYR422     -0.0201
    106  CD1       15.6100   44.4210   24.9110 C.ar  422  TYR422     -0.0009
    107  CD2       15.8990   43.3690   22.7760 C.ar  422  TYR422     -0.0009
    108  CE1       14.2420   44.4830   24.7010 C.ar  422  TYR422      0.0417
    109  CE2       14.5450   43.4130   22.5610 C.ar  422  TYR422      0.0417
    110  CZ        13.7150   43.9760   23.5210 C.ar  422  TYR422      0.1957
    111  OH        12.3580   44.0280   23.3000 O.3   422  TYR422     -0.2866
    112  N         17.2590   43.7540   18.4270 N.3   424  ARG424     -0.1245
    113  CA        16.7110   42.6860   17.6020 C.3   424  ARG424      0.1563
    114  C         17.3550   42.8240   16.2470 C.2   424  ARG424      0.2260
    115  O         17.5370   43.9390   15.7500 O.2   424  ARG424     -0.2867
    116  CB        15.1890   42.7580   17.4970 C.3   424  ARG424      0.0307
    117  CG        14.5000   42.3550   18.7800 C.3   424  ARG424      0.0489
    118  CD        13.0900   41.8890   18.5530 C.3   424  ARG424      0.2205
    119  NE        12.4540   41.4990   19.8090 N.pl3 424  ARG424     -0.0865
    120  CZ        12.5780   40.3040   20.3780 C.cat 424  ARG424      0.5346
    121  NH1       13.3110   39.3620   19.8020 N.pl3 424  ARG424      0.1354
    122  NH2       11.9560   40.0520   21.5210 N.pl3 424  ARG424      0.1354
    123  N         20.5700   34.3910   22.9660 N.3   451  GLN451     -0.1245
    124  CA        19.4070   33.8370   22.3520 C.3   451  GLN451      0.1566
    125  C         19.6130   34.3330   20.9950 C.2   451  GLN451      0.2260
    126  O         20.3590   35.2340   20.8200 O.2   451  GLN451     -0.2867
    127  CB        18.2210   34.5530   22.9270 C.3   451  GLN451      0.0367
    128  CG        16.9240   33.8100   23.0090 C.3   451  GLN451      0.0905
    129  CD        15.8130   34.7700   23.3190 C.2   451  GLN451      0.2608
    130  OE1       16.0020   35.7130   24.0670 O.2   451  GLN451     -0.2717
    131  NE2       14.6650   34.5560   22.7340 N.am  451  GLN451     -0.0878
    132  N         18.6920   38.3970   19.1610 N.3   454  VAL454     -0.1245
    133  CA        18.6520   39.3550   20.2570 C.3   454  VAL454      0.1561
    134  C         20.0670   39.6360   20.7720 C.2   454  VAL454      0.2260
    135  O         20.8690   38.7170   20.9480 O.2   454  VAL454     -0.2867
    136  CB        17.7820   38.8470   21.4380 C.3   454  VAL454      0.0252
    137  CG1       17.5800   39.9450   22.4420 C.3   454  VAL454      0.0019
    138  CG2       16.4280   38.3180   20.9610 C.3   454  VAL454      0.0019
    139  N         13.3770   47.2220   29.5700 N.3   517  TRP517     -0.1227
    140  CA        13.6450   45.7910   29.5410 C.3   517  TRP517      0.1737
    141  C         14.9560   45.5920   28.8080 C.2   517  TRP517      0.2595
    142  O         15.1070   46.1330   27.7170 O.2   517  TRP517     -0.2718
    143  CB        12.5170   45.0170   28.8430 C.3   517  TRP517      0.0564
    144  CG        12.8200   43.5510   28.6910 C.ar  517  TRP517      0.0003
    145  CD1       13.5740   42.9620   27.7110 C.ar  517  TRP517      0.0946
    146  CD2       12.4010   42.4880   29.5640 C.ar  517  TRP517      0.0152
    147  NE1       13.6480   41.6010   27.9200 N.ar  517  TRP517     -0.2442
    148  CE2       12.9320   41.2850   29.0440 C.ar  517  TRP517      0.0810
    149  CE3       11.6200   42.4350   30.7270 C.ar  517  TRP517      0.0012
    150  CZ2       12.7110   40.0510   29.6500 C.ar  517  TRP517      0.0191
    151  CZ3       11.4010   41.2100   31.3220 C.ar  517  TRP517      0.0001
    152  CH2       11.9450   40.0340   30.7840 C.ar  517  TRP517      0.0015
    153  N         15.9270   44.8700   29.3810 N.am  518  GLU518     -0.1979
    154  CA        15.9580   44.3800   30.7640 C.3   518  GLU518      0.1602
    155  C         17.2560   44.8910   31.4290 C.2   518  GLU518      0.2287
    156  O         18.2580   45.1170   30.7380 O.2   518  GLU518     -0.2864
    157  CB        15.9000   42.8570   30.8010 C.3   518  GLU518      0.0415
    158  CG        16.9910   42.1850   29.9670 C.3   518  GLU518      0.1163
    159  CD        16.9110   40.6560   29.9730 C.2   518  GLU518      0.3649
    160  OE1       17.1550   40.0380   31.0340 O.co2 518  GLU518     -0.2457
    161  OE2       16.6020   40.0690   28.9100 O.co2 518  GLU518     -0.2457
@<TRIPOS>BOND
     1   115   114    2
     2   114   113    1
     3   116   113    1
     4   116   117    1
     5   113   112    1
     6    95    94    2
     7   118   117    1
     8   118   119    1
     9    94    93    1
    10   132   133    1
    11   121   120    1
    12   119   120    2
    13    93    92    1
    14    93    96    1
    15   133   134    1
    16   133   136    1
    17   120   122    1
    18    92    82   am
    19   134   135    2
    20    96    97    1
    21   126   125    2
    22   138   136    1
    23   125   124    1
    24    83    82    2
    25    82    81    1
    26   136   137    1
    27    55    53   ar
    28    55    54   ar
    29    98    97   ar
    30    53    51   ar
    31    97    99   ar
    32    81    80    1
    33    81    84    1
    34   103   102    2
    35   102   101    1
    36   124   127    1
    37   124   123    1
    38    54    52   ar
    39   109   107   ar
    40   109   110   ar
    41   131   129   am
    42   107   105   ar
    43    51    50   ar
    44    51    49   ar
    45    84    85    1
    46   127   128    1
    47   128   129    1
    48    50    48   ar
    49   111   110    1
    50   129   130    2
    51    75    74    2
    52   110   108   ar
    53    52    49   ar
    54   101   104    1
    55   101   100    1
    56    49    47   ar
    57   105   104    1
    58   105   106   ar
    59    85    86   ar
    60    85    87   ar
    61    86    88   ar
    62    74    73    1
    63    48    47   ar
    64   108   106   ar
    65    47    46    1
    66    87    89   ar
    67    88    90   ar
    68    76    73    1
    69    76    77    1
    70    73    72    1
    71    65    66    2
    72    65    64    1
    73    70    69   ar
    74    46    43    1
    75    89    90   ar
    76    90    91    1
    77    79    78    1
    78    67    64    1
    79    67    68    1
    80    45    44    2
    81    64    63    1
    82    78    77    1
    83    62    60    1
    84    43    44    1
    85    43    42    1
    86    69    68    1
    87    69    71   ar
    88    44    56   am
    89   145   147   ar
    90   145   144   ar
    91   142   141    2
    92   147   148   ar
    93    56    57    1
    94    60    57    1
    95    60    61    1
    96    57    58    1
    97    42    40   am
    98   144   143    1
    99   144   146   ar
   100   141   153   am
   101   141   140    1
   102   143   140    1
   103   161   159   ar
   104   148   146   ar
   105   148   150   ar
   106   153   154    1
   107    40    41    2
   108    40    39    1
   109    58    59    2
   110   140   139    1
   111   146   149   ar
   112   150   152   ar
   113   158   159    1
   114   158   157    1
   115   159   160   ar
   116    39    38    1
   117   149   151   ar
   118   156   155    2
   119   154   157    1
   120   154   155    1
   121   152   151   ar
   122    21    22   ar
   123    21    19   ar
   124    24    22   ar
   125    24    26   ar
   126    37    36   ar
   127    37    35   ar
   128    22    20   ar
   129    36    34   ar
   130    19    18   ar
   131    26    25   ar
   132     9     7   ar
   133     9    11   ar
   134     7     6   ar
   135    35    33   ar
   136    34    32   ar
   137    20    18   ar
   138    20    23   ar
   139    18    17    1
   140    12    11    1
   141    11    10   ar
   142     6     5    1
   143     6     8   ar
   144    25    23   ar
   145     5     2    1
   146    33    32   ar
   147    32    31    1
   148    10     8   ar
   149    17    14    1
   150     1     2    1
   151     4     3    2
   152     2     3    1
   153    16    15    2
   154    31    28    1
   155    15    14    1
   156    14    13    1
   157    27    28    1
   158    28    29    1
   159    29    30    2
