@<TRIPOS>MOLECULE
tmp/5gqfB01.pdb
 120 115 0 0 0
SMALL
GASTEIGER

@<TRIPOS>ATOM
      1  N         41.0620  -25.5940  -39.7520 N.3   199  LYS199     -0.1245
      2  CA        41.0450  -25.6460  -41.1830 C.3   199  LYS199      0.1561
      3  C         41.5560  -24.4200  -41.8950 C.2   199  LYS199      0.2260
      4  O         41.9610  -24.5650  -43.0440 O.2   199  LYS199     -0.2867
      5  CB        39.6700  -26.0280  -41.7410 C.3   199  LYS199      0.0271
      6  CG        39.2960  -27.4880  -41.5220 C.3   199  LYS199      0.0035
      7  CD        37.9110  -27.7350  -42.0100 C.3   199  LYS199      0.0206
      8  CE        37.8100  -27.8780  -43.4800 C.3   199  LYS199      0.1093
      9  NZ        36.3800  -27.7980  -43.9830 N.3   199  LYS199     -0.1314
     10  N         42.9840  -32.9520  -45.2400 N.3   296  ASP296     -0.1239
     11  CA        42.9100  -32.9370  -46.7200 C.3   296  ASP296      0.1674
     12  C         44.2900  -32.8780  -47.3700 C.2   296  ASP296      0.2266
     13  O         45.2670  -32.3500  -46.7840 O.2   296  ASP296     -0.2867
     14  CB        42.0170  -31.8020  -47.2440 C.3   296  ASP296      0.1410
     15  CG        40.5340  -31.8360  -46.7090 C.2   296  ASP296      0.3668
     16  OD1       40.2970  -31.3860  -45.5500 O.co2 296  ASP296     -0.2456
     17  OD2       39.5970  -32.2220  -47.4620 O.co2 296  ASP296     -0.2456
     18  N         35.8990  -34.2590  -41.2430 N.3   335  VAL335     -0.1231
     19  CA        35.6690  -34.6260  -42.6080 C.3   335  VAL335      0.1692
     20  C         36.8860  -34.2090  -43.4620 C.2   335  VAL335      0.2592
     21  O         37.4850  -33.1830  -43.1480 O.2   335  VAL335     -0.2718
     22  CB        34.3900  -33.9030  -43.1950 C.3   335  VAL335      0.0266
     23  CG1       33.1570  -34.5980  -42.7400 C.3   335  VAL335      0.0020
     24  CG2       34.2870  -32.4320  -42.9070 C.3   335  VAL335      0.0020
     25  N         37.3070  -35.0390  -44.4350 N.am  336  ALA336     -0.1966
     26  CA        38.3390  -34.6410  -45.3860 C.3   336  ALA336      0.1728
     27  C         38.2520  -35.4040  -46.6630 C.2   336  ALA336      0.2616
     28  O         37.9280  -36.5880  -46.6890 O.2   336  ALA336     -0.2715
     29  CB        39.7280  -34.8220  -44.8100 C.3   336  ALA336      0.0334
     30  N         38.5400  -34.7010  -47.7870 N.am  337  ALA337     -0.1977
     31  CA        38.7030  -35.3280  -49.0820 C.3   337  ALA337      0.1597
     32  C         40.1470  -35.2330  -49.6000 C.2   337  ALA337      0.2287
     33  O         40.9880  -34.6870  -48.9230 O.2   337  ALA337     -0.2864
     34  CB        37.7210  -34.7310  -50.0560 C.3   337  ALA337      0.0319
     35  N         41.0600  -31.1950  -54.3250 N.3   340  TRP340     -0.1241
     36  CA        39.7910  -30.6020  -54.6700 C.3   340  TRP340      0.1605
     37  C         39.6780  -29.1020  -54.5330 C.2   340  TRP340      0.2264
     38  O         40.5320  -28.4940  -53.9190 O.2   340  TRP340     -0.2867
     39  CB        38.6880  -31.2620  -53.7970 C.3   340  TRP340      0.0550
     40  CG        38.8830  -31.0540  -52.2470 C.ar  340  TRP340      0.0003
     41  CD1       39.7250  -31.7720  -51.4190 C.ar  340  TRP340      0.0946
     42  CD2       38.1770  -30.1400  -51.4110 C.ar  340  TRP340      0.0152
     43  NE1       39.5550  -31.3390  -50.1110 N.ar  340  TRP340     -0.2442
     44  CE2       38.6210  -30.3510  -50.0690 C.ar  340  TRP340      0.0810
     45  CE3       37.1990  -29.1490  -51.6400 C.ar  340  TRP340      0.0012
     46  CZ2       38.1510  -29.6120  -49.0200 C.ar  340  TRP340      0.0191
     47  CZ3       36.7170  -28.4560  -50.5930 C.ar  340  TRP340      0.0001
     48  CH2       37.1830  -28.6890  -49.2760 C.ar  340  TRP340      0.0015
     49  N         37.3150  -25.4500  -53.5340 N.3   342  TRP342     -0.1241
     50  CA        36.3390  -24.7220  -52.7570 C.3   342  TRP342      0.1605
     51  C         36.1140  -23.3270  -53.3390 C.2   342  TRP342      0.2264
     52  O         37.0750  -22.5010  -53.3450 O.2   342  TRP342     -0.2867
     53  CB        36.7720  -24.5180  -51.3430 C.3   342  TRP342      0.0550
     54  CG        35.8360  -23.6510  -50.5790 C.ar  342  TRP342      0.0003
     55  CD1       36.0630  -22.3540  -50.2120 C.ar  342  TRP342      0.0946
     56  CD2       34.5420  -23.9810  -50.0660 C.ar  342  TRP342      0.0152
     57  NE1       35.0350  -21.8890  -49.4920 N.ar  342  TRP342     -0.2442
     58  CE2       34.0810  -22.8650  -49.3740 C.ar  342  TRP342      0.0810
     59  CE3       33.7290  -25.1340  -50.1120 C.ar  342  TRP342      0.0012
     60  CZ2       32.8070  -22.8260  -48.7360 C.ar  342  TRP342      0.0191
     61  CZ3       32.5370  -25.1310  -49.4380 C.ar  342  TRP342      0.0001
     62  CH2       32.0480  -23.9590  -48.7750 C.ar  342  TRP342      0.0015
     63  N         33.5550  -37.8390  -44.7730 N.3   366  ASP366     -0.1239
     64  CA        33.8480  -37.8920  -46.2250 C.3   366  ASP366      0.1674
     65  C         34.7800  -38.9950  -46.5640 C.2   366  ASP366      0.2266
     66  O         34.4020  -40.1580  -46.3580 O.2   366  ASP366     -0.2867
     67  CB        34.2760  -36.4850  -46.7290 C.3   366  ASP366      0.1410
     68  CG        33.1180  -35.4960  -46.7070 C.2   366  ASP366      0.3668
     69  OD1       32.0560  -35.8480  -47.3030 O.co2 366  ASP366     -0.2456
     70  OD2       33.2090  -34.4290  -46.0160 O.co2 366  ASP366     -0.2456
     71  N         36.4700  -34.0340  -54.7810 N.3   371  ASP371     -0.1239
     72  CA        35.3020  -33.3600  -54.1570 C.3   371  ASP371      0.1674
     73  C         35.0080  -32.0950  -54.9690 C.2   371  ASP371      0.2266
     74  O         35.6600  -31.0710  -54.7710 O.2   371  ASP371     -0.2867
     75  CB        35.5470  -33.0560  -52.6830 C.3   371  ASP371      0.1410
     76  CG        34.5270  -32.1820  -52.0950 C.2   371  ASP371      0.3668
     77  OD1       33.4200  -32.0240  -52.7240 O.co2 371  ASP371     -0.2456
     78  OD2       34.7970  -31.5800  -50.9980 O.co2 371  ASP371     -0.2456
     79  N         33.1880  -29.3890  -54.6920 N.3   373  ASP373     -0.1225
     80  CA        32.4760  -28.8490  -53.5670 C.3   373  ASP373      0.1805
     81  C         31.7960  -27.5910  -54.0150 C.2   373  ASP373      0.2597
     82  O         31.7260  -27.3930  -55.2500 O.2   373  ASP373     -0.2718
     83  CB        33.4910  -28.6340  -52.4500 C.3   373  ASP373      0.1424
     84  CG        32.9000  -28.7740  -51.1210 C.2   373  ASP373      0.3668
     85  OD1       31.8610  -28.0980  -50.8580 O.co2 373  ASP373     -0.2456
     86  OD2       33.4750  -29.5390  -50.2770 O.co2 373  ASP373     -0.2456
     87  N         31.2480  -26.8090  -53.0920 N.am  374  TYR374     -0.1976
     88  CA        30.6150  -25.5150  -53.4610 C.3   374  TYR374      0.1639
     89  C         31.5250  -24.8590  -54.4750 C.2   374  TYR374      0.2290
     90  O         32.7250  -24.7810  -54.2200 O.2   374  TYR374     -0.2864
     91  CB        30.4980  -24.6180  -52.2780 C.3   374  TYR374      0.0560
     92  CG        29.2570  -24.8680  -51.4400 C.ar  374  TYR374     -0.0198
     93  CD1       28.4830  -26.0260  -51.6090 C.ar  374  TYR374     -0.0009
     94  CD2       28.8740  -23.9800  -50.4780 C.ar  374  TYR374     -0.0009
     95  CE1       27.3840  -26.2490  -50.7660 C.ar  374  TYR374      0.0417
     96  CE2       27.7550  -24.1920  -49.6910 C.ar  374  TYR374      0.0417
     97  CZ        27.0260  -25.3710  -49.8650 C.ar  374  TYR374      0.1957
     98  OH        25.9040  -25.6070  -49.1220 O.3   374  TYR374     -0.2866
     99  N         32.8420  -36.9430  -54.7890 N.3   394  MET394     -0.1245
    100  CA        31.7410  -36.2150  -54.2500 C.3   394  MET394      0.1570
    101  C         31.4820  -34.9830  -55.1180 C.2   394  MET394      0.2261
    102  O         32.4720  -34.3680  -55.6230 O.2   394  MET394     -0.2867
    103  CB        31.9880  -35.7930  -52.8200 C.3   394  MET394      0.0387
    104  CG        30.8840  -35.0500  -52.2290 C.3   394  MET394      0.0595
    105  SD        30.7970  -34.7720  -50.4400 S.3   394  MET394     -0.1393
    106  CE        32.4030  -33.9770  -50.1270 C.3   394  MET394      0.0692
    107  N         29.3080  -31.8500  -53.9140 N.3   396  CYS396     -0.1221
    108  CA        28.7660  -31.5430  -52.5730 C.3   396  CYS396      0.1808
    109  C         27.7420  -30.4430  -52.4400 C.2   396  CYS396      0.2601
    110  O         28.0890  -29.2880  -52.3830 O.2   396  CYS396     -0.2717
    111  CB        29.9360  -31.2850  -51.5980 C.3   396  CYS396      0.0970
    112  SG        29.4120  -31.2030  -49.8990 S.3   396  CYS396     -0.0800
    113  N         26.4660  -30.8210  -52.2450 N.am  397  ASN397     -0.1974
    114  CA        25.4240  -29.9550  -51.7120 C.3   397  ASN397      0.1688
    115  C         25.0150  -28.8400  -52.7090 C.2   397  ASN397      0.2292
    116  O         25.4890  -28.8120  -53.7980 O.2   397  ASN397     -0.2864
    117  CB        25.7920  -29.3750  -50.3380 C.3   397  ASN397      0.1181
    118  CG        25.4410  -30.2660  -49.1500 C.2   397  ASN397      0.2629
    119  OD1       24.9230  -31.3740  -49.2630 O.2   397  ASN397     -0.2716
    120  ND2       25.7350  -29.7450  -47.9690 N.am  397  ASN397     -0.0877
@<TRIPOS>BOND
     1   102   101    2
     2    82    81    2
     3   101   100    1
     4    73    74    2
     5    73    72    1
     6    99   100    1
     7    71    72    1
     8    79    80    1
     9    36    37    1
    10    36    35    1
    11    36    39    1
    12    37    38    2
    13    89    90    2
    14    89    88    1
    15   100   103    1
    16    72    75    1
    17    81    80    1
    18    81    87   am
    19   107   108    1
    20   116   115    2
    21    39    40    1
    22    80    83    1
    23    49    50    1
    24    88    87    1
    25    88    91    1
    26    52    51    2
    27    51    50    1
    28   103   104    1
    29    50    53    1
    30    77    76   ar
    31   115   114    1
    32    75    76    1
    33   108   109    1
    34   108   111    1
    35    83    84    1
    36   109   110    2
    37   109   113   am
    38    91    92    1
    39    40    41   ar
    40    40    42   ar
    41   113   114    1
    42   104   105    1
    43    76    78   ar
    44   114   117    1
    45    45    42   ar
    46    45    47   ar
    47    93    92   ar
    48    93    95   ar
    49   111   112    1
    50    92    94   ar
    51    41    43   ar
    52    42    44   ar
    53    53    54    1
    54    84    85   ar
    55    84    86   ar
    56    95    97   ar
    57    47    48   ar
    58    54    55   ar
    59    54    56   ar
    60    94    96   ar
    61   105   106    1
    62   117   118    1
    63    55    57   ar
    64    59    56   ar
    65    59    61   ar
    66    43    44   ar
    67    44    46   ar
    68    56    58   ar
    69    34    31    1
    70    97    96   ar
    71    97    98    1
    72    32    31    1
    73    32    33    2
    74    57    58   ar
    75    61    62   ar
    76    58    60   ar
    77    48    46   ar
    78   119   118    2
    79   118   120   am
    80    31    30    1
    81    62    60   ar
    82    30    27   am
    83    17    15   ar
    84    12    13    2
    85    12    11    1
    86    69    68   ar
    87    14    11    1
    88    14    15    1
    89    67    68    1
    90    67    64    1
    91    11    10    1
    92    15    16   ar
    93    68    70   ar
    94    28    27    2
    95    27    26    1
    96    65    66    2
    97    65    64    1
    98    64    63    1
    99    26    29    1
   100    26    25    1
   101    25    20   am
   102     9     8    1
   103     8     7    1
   104    20    21    2
   105    20    19    1
   106    22    24    1
   107    22    23    1
   108    22    19    1
   109     4     3    2
   110    19    18    1
   111     7     6    1
   112     3     2    1
   113     5     6    1
   114     5     2    1
   115     2     1    1
