@<TRIPOS>MOLECULE
tmp/5gqfB00.pdb
 111 112 0 0 0
SMALL
GASTEIGER

@<TRIPOS>ATOM
      1  N         33.9030  -17.6330  -41.5530 N.3   103  GLY103     -0.1210
      2  CA        33.1160  -18.8250  -41.3140 C.3   103  GLY103      0.1956
      3  C         33.3410  -19.3040  -39.8890 C.2   103  GLY103      0.2612
      4  O         34.0060  -18.6720  -39.0600 O.2   103  GLY103     -0.2717
      5  N         32.7490  -20.4560  -39.6130 N.am  104  ASN104     -0.1960
      6  CA        32.7010  -20.9560  -38.2700 C.3   104  ASN104      0.1819
      7  C         34.0470  -21.7170  -37.9830 C.2   104  ASN104      0.2621
      8  O         34.0920  -22.9830  -38.0120 O.2   104  ASN104     -0.2715
      9  CB        31.5390  -21.9220  -38.2330 C.3   104  ASN104      0.1195
     10  CG        31.3950  -22.5290  -36.9130 C.2   104  ASN104      0.2630
     11  OD1       31.7960  -21.9170  -35.9390 O.2   104  ASN104     -0.2716
     12  ND2       30.8520  -23.7500  -36.8550 N.am  104  ASN104     -0.0877
     13  N         35.0980  -20.9180  -37.7710 N.am  105  HIS105     -0.1973
     14  CA        36.4850  -21.4040  -37.6610 C.3   105  HIS105      0.1656
     15  C         37.3160  -20.4290  -36.8860 C.2   105  HIS105      0.2291
     16  O         37.0170  -19.2590  -36.7860 O.2   105  HIS105     -0.2864
     17  CB        37.1640  -21.5500  -39.0220 C.3   105  HIS105      0.0771
     18  CG        36.4460  -22.3750  -40.0100 C.ar  105  HIS105      0.0820
     19  ND1       36.5660  -23.7520  -40.0470 N.ar  105  HIS105     -0.2267
     20  CD2       35.6830  -22.0380  -41.0730 C.ar  105  HIS105      0.1154
     21  CE1       35.8500  -24.2270  -41.0370 C.ar  105  HIS105      0.1986
     22  NE2       35.3210  -23.2030  -41.6970 N.ar  105  HIS105     -0.2212
     23  N         41.0620  -25.5940  -39.7520 N.3   199  LYS199     -0.1231
     24  CA        41.0450  -25.6460  -41.1830 C.3   199  LYS199      0.1693
     25  C         41.5560  -24.4200  -41.8950 C.2   199  LYS199      0.2592
     26  O         41.9610  -24.5650  -43.0440 O.2   199  LYS199     -0.2718
     27  CB        39.6700  -26.0280  -41.7410 C.3   199  LYS199      0.0285
     28  CG        39.2960  -27.4880  -41.5220 C.3   199  LYS199      0.0035
     29  CD        37.9110  -27.7350  -42.0100 C.3   199  LYS199      0.0206
     30  CE        37.8100  -27.8780  -43.4800 C.3   199  LYS199      0.1093
     31  NZ        36.3800  -27.7980  -43.9830 N.3   199  LYS199     -0.1314
     32  N         41.5680  -23.2660  -41.2030 N.am  200  HIS200     -0.1976
     33  CA        41.8920  -22.0160  -41.9080 C.3   200  HIS200      0.1656
     34  C         42.8840  -21.1000  -41.2480 C.2   200  HIS200      0.2291
     35  O         43.1130  -19.9750  -41.7330 O.2   200  HIS200     -0.2864
     36  CB        40.5430  -21.3250  -42.2540 C.3   200  HIS200      0.0771
     37  CG        39.6940  -22.1490  -43.1640 C.ar  200  HIS200      0.0820
     38  ND1       40.0600  -22.4460  -44.4440 N.ar  200  HIS200     -0.2267
     39  CD2       38.5520  -22.8290  -42.9430 C.ar  200  HIS200      0.1154
     40  CE1       39.1720  -23.2640  -44.9820 C.ar  200  HIS200      0.1986
     41  NE2       38.2390  -23.5010  -44.0670 N.ar  200  HIS200     -0.2212
     42  N         46.2730  -29.4470  -42.8840 N.3   248  TRP248     -0.1241
     43  CA        46.1730  -29.4830  -44.3540 C.3   248  TRP248      0.1605
     44  C         47.5150  -29.9070  -44.9730 C.2   248  TRP248      0.2264
     45  O         48.5910  -29.5640  -44.4470 O.2   248  TRP248     -0.2867
     46  CB        45.8000  -28.1170  -44.9400 C.3   248  TRP248      0.0550
     47  CG        44.7280  -28.2340  -45.9770 C.ar  248  TRP248      0.0003
     48  CD1       44.8150  -28.8840  -47.1830 C.ar  248  TRP248      0.0946
     49  CD2       43.3870  -27.8530  -45.8310 C.ar  248  TRP248      0.0152
     50  NE1       43.5890  -28.9130  -47.7760 N.ar  248  TRP248     -0.2442
     51  CE2       42.6960  -28.2990  -46.9520 C.ar  248  TRP248      0.0810
     52  CE3       42.6700  -27.2680  -44.8010 C.ar  248  TRP248      0.0012
     53  CZ2       41.3140  -28.0990  -47.1080 C.ar  248  TRP248      0.0191
     54  CZ3       41.3570  -27.0380  -44.9810 C.ar  248  TRP248      0.0001
     55  CH2       40.6870  -27.4670  -46.1520 C.ar  248  TRP248      0.0015
     56  N         42.4440  -19.3260  -49.3420 N.3   254  TYR254     -0.1241
     57  CA        41.4170  -18.8390  -48.4000 C.3   254  TYR254      0.1605
     58  C         41.5950  -17.3600  -48.1350 C.2   254  TYR254      0.2264
     59  O         42.7520  -16.8500  -48.0170 O.2   254  TYR254     -0.2867
     60  CB        41.4530  -19.6720  -47.0890 C.3   254  TYR254      0.0534
     61  CG        40.0870  -19.7670  -46.4550 C.ar  254  TYR254     -0.0201
     62  CD1       39.0740  -20.5080  -47.0580 C.ar  254  TYR254     -0.0009
     63  CD2       39.8150  -19.1680  -45.2300 C.ar  254  TYR254     -0.0009
     64  CE1       37.8050  -20.5760  -46.4650 C.ar  254  TYR254      0.0417
     65  CE2       38.5570  -19.2770  -44.6410 C.ar  254  TYR254      0.0417
     66  CZ        37.5830  -20.0200  -45.2730 C.ar  254  TYR254      0.1957
     67  OH        36.3390  -20.0960  -44.6950 O.3   254  TYR254     -0.2866
     68  N         41.2520  -22.7750  -52.9960 N.3   301  MET301     -0.1245
     69  CA        40.1720  -22.0120  -52.4000 C.3   301  MET301      0.1570
     70  C         40.0900  -20.6380  -53.0550 C.2   301  MET301      0.2261
     71  O         41.1230  -19.9310  -53.1210 O.2   301  MET301     -0.2867
     72  CB        40.4130  -21.8140  -50.9080 C.3   301  MET301      0.0387
     73  CG        40.4110  -23.1210  -50.1200 C.3   301  MET301      0.0595
     74  SD        41.4060  -23.0020  -48.6550 S.3   301  MET301     -0.1393
     75  CE        41.2080  -24.6760  -47.9210 C.3   301  MET301      0.0692
     76  N         41.0600  -31.1950  -54.3250 N.3   340  TRP340     -0.1241
     77  CA        39.7910  -30.6020  -54.6700 C.3   340  TRP340      0.1605
     78  C         39.6780  -29.1020  -54.5330 C.2   340  TRP340      0.2264
     79  O         40.5320  -28.4940  -53.9190 O.2   340  TRP340     -0.2867
     80  CB        38.6880  -31.2620  -53.7970 C.3   340  TRP340      0.0550
     81  CG        38.8830  -31.0540  -52.2470 C.ar  340  TRP340      0.0003
     82  CD1       39.7250  -31.7720  -51.4190 C.ar  340  TRP340      0.0946
     83  CD2       38.1770  -30.1400  -51.4110 C.ar  340  TRP340      0.0152
     84  NE1       39.5550  -31.3390  -50.1110 N.ar  340  TRP340     -0.2442
     85  CE2       38.6210  -30.3510  -50.0690 C.ar  340  TRP340      0.0810
     86  CE3       37.1990  -29.1490  -51.6400 C.ar  340  TRP340      0.0012
     87  CZ2       38.1510  -29.6120  -49.0200 C.ar  340  TRP340      0.0191
     88  CZ3       36.7170  -28.4560  -50.5930 C.ar  340  TRP340      0.0001
     89  CH2       37.1830  -28.6890  -49.2760 C.ar  340  TRP340      0.0015
     90  N         37.3150  -25.4500  -53.5340 N.3   342  TRP342     -0.1241
     91  CA        36.3390  -24.7220  -52.7570 C.3   342  TRP342      0.1605
     92  C         36.1140  -23.3270  -53.3390 C.2   342  TRP342      0.2264
     93  O         37.0750  -22.5010  -53.3450 O.2   342  TRP342     -0.2867
     94  CB        36.7720  -24.5180  -51.3430 C.3   342  TRP342      0.0550
     95  CG        35.8360  -23.6510  -50.5790 C.ar  342  TRP342      0.0003
     96  CD1       36.0630  -22.3540  -50.2120 C.ar  342  TRP342      0.0946
     97  CD2       34.5420  -23.9810  -50.0660 C.ar  342  TRP342      0.0152
     98  NE1       35.0350  -21.8890  -49.4920 N.ar  342  TRP342     -0.2442
     99  CE2       34.0810  -22.8650  -49.3740 C.ar  342  TRP342      0.0810
    100  CE3       33.7290  -25.1340  -50.1120 C.ar  342  TRP342      0.0012
    101  CZ2       32.8070  -22.8260  -48.7360 C.ar  342  TRP342      0.0191
    102  CZ3       32.5370  -25.1310  -49.4380 C.ar  342  TRP342      0.0001
    103  CH2       32.0480  -23.9590  -48.7750 C.ar  342  TRP342      0.0015
    104  N         33.1880  -29.3890  -54.6920 N.3   373  ASP373     -0.1239
    105  CA        32.4760  -28.8490  -53.5670 C.3   373  ASP373      0.1674
    106  C         31.7960  -27.5910  -54.0150 C.2   373  ASP373      0.2266
    107  O         31.7260  -27.3930  -55.2500 O.2   373  ASP373     -0.2867
    108  CB        33.4910  -28.6340  -52.4500 C.3   373  ASP373      0.1410
    109  CG        32.9000  -28.7740  -51.1210 C.2   373  ASP373      0.3668
    110  OD1       31.8610  -28.0980  -50.8580 O.co2 373  ASP373     -0.2456
    111  OD2       33.4750  -29.5390  -50.2770 O.co2 373  ASP373     -0.2456
@<TRIPOS>BOND
     1   107   106    2
     2   104   105    1
     3    77    78    1
     4    77    76    1
     5    77    80    1
     6    78    79    2
     7   106   105    1
     8    80    81    1
     9   105   108    1
    10    90    91    1
    11    93    92    2
    12    92    91    1
    13    71    70    2
    14    70    69    1
    15    68    69    1
    16    91    94    1
    17   108   109    1
    18    69    72    1
    19    81    82   ar
    20    81    83   ar
    21    86    83   ar
    22    86    88   ar
    23    82    84   ar
    24    83    85   ar
    25    94    95    1
    26   109   110   ar
    27   109   111   ar
    28    72    73    1
    29    88    89   ar
    30    95    96   ar
    31    95    97   ar
    32    96    98   ar
    33    73    74    1
    34   100    97   ar
    35   100   102   ar
    36    84    85   ar
    37    85    87   ar
    38    97    99   ar
    39    98    99   ar
    40   102   103   ar
    41    99   101   ar
    42    56    57    1
    43    89    87   ar
    44   103   101   ar
    45    74    75    1
    46    57    58    1
    47    57    60    1
    48    58    59    2
    49    50    48   ar
    50    50    51   ar
    51    48    47   ar
    52    53    51   ar
    53    53    55   ar
    54    60    61    1
    55    62    64   ar
    56    62    61   ar
    57    51    49   ar
    58    64    66   ar
    59    61    63   ar
    60    55    54   ar
    61    47    49   ar
    62    47    46    1
    63    49    52   ar
    64    66    67    1
    65    66    65   ar
    66    63    65   ar
    67    40    38   ar
    68    40    41   ar
    69    54    52   ar
    70    44    45    2
    71    44    43    1
    72    46    43    1
    73    38    37   ar
    74    43    42    1
    75    41    39   ar
    76    31    30    1
    77    30    29    1
    78    37    39   ar
    79    37    36    1
    80    26    25    2
    81    36    33    1
    82    29    28    1
    83    33    34    1
    84    33    32    1
    85    25    32   am
    86    25    24    1
    87    27    28    1
    88    27    24    1
    89    35    34    2
    90    22    20   ar
    91    22    21   ar
    92     1     2    1
    93     2     3    1
    94    24    23    1
    95    20    18   ar
    96    21    19   ar
    97    19    18   ar
    98    18    17    1
    99     3     5   am
   100     3     4    2
   101     5     6    1
   102    17    14    1
   103     6     9    1
   104     6     7    1
   105     9    10    1
   106     8     7    2
   107     7    13   am
   108    13    14    1
   109    14    15    1
   110    10    12   am
   111    10    11    2
   112    15    16    2
