@<TRIPOS>MOLECULE
tmp/5gqjA01.pdb
 94 93 0 0 0
SMALL
GASTEIGER

@<TRIPOS>ATOM
      1  N          8.4040   12.8630   -0.5080 N.3    74  GLN74      -0.1231
      2  CA         7.0850   13.0720    0.0720 C.3    74  GLN74       0.1698
      3  C          6.0020   13.0040   -0.9910 C.2    74  GLN74       0.2592
      4  O          6.3120   12.9800   -2.2020 O.2    74  GLN74      -0.2718
      5  CB         7.0320   14.4410    0.7620 C.3    74  GLN74       0.0381
      6  CG         7.9110   14.4830    2.0240 C.3    74  GLN74       0.0905
      7  CD         7.9020   15.8280    2.7030 C.2    74  GLN74       0.2608
      8  OE1        8.6870   16.7140    2.3470 O.2    74  GLN74      -0.2717
      9  NE2        7.0040   15.9990    3.6910 N.am   74  GLN74      -0.0878
     10  N          4.7390   12.9930   -0.5760 N.am   75  HIS75      -0.1962
     11  CA         3.6350   13.1860   -1.5410 C.3    75  HIS75       0.1787
     12  C          3.6400   14.5660   -2.1990 C.2    75  HIS75       0.2620
     13  O          3.9310   15.5650   -1.5520 O.2    75  HIS75      -0.2715
     14  CB         2.2580   12.8780   -0.9250 C.3    75  HIS75       0.0785
     15  CG         2.0630   11.4240   -0.6150 C.ar   75  HIS75       0.0821
     16  ND1        1.9600   10.4550   -1.5950 N.ar   75  HIS75      -0.2267
     17  CD2        2.0100   10.7610    0.5680 C.ar   75  HIS75       0.1154
     18  CE1        1.8070    9.2680   -1.0290 C.ar   75  HIS75       0.1986
     19  NE2        1.8270    9.4300    0.2850 N.ar   75  HIS75      -0.2212
     20  N          3.3330   14.6080   -3.5040 N.am   76  ASN76      -0.1958
     21  CA         3.3120   15.8640   -4.3020 C.3    76  ASN76       0.1819
     22  C          2.0180   16.0980   -5.1080 C.2    76  ASN76       0.2621
     23  O          2.0080   16.9110   -6.0470 O.2    76  ASN76      -0.2715
     24  CB         4.5010   15.9090   -5.2470 C.3    76  ASN76       0.1195
     25  CG         5.8100   16.1630   -4.5160 C.2    76  ASN76       0.2630
     26  OD1        6.0880   17.2760   -4.0720 O.2    76  ASN76      -0.2716
     27  ND2        6.6130   15.1240   -4.3910 N.am   76  ASN76      -0.0877
     28  N          0.9530   15.3540   -4.7810 N.am   77  ASP77      -0.1957
     29  CA        -0.3420   15.4320   -5.5130 C.3    77  ASP77       0.1840
     30  C         -0.0060   15.2310   -7.0260 C.2    77  ASP77       0.2623
     31  O         -0.5310   15.9960   -7.8680 O.2    77  ASP77      -0.2715
     32  CB        -1.0630   16.8330   -5.3910 C.3    77  ASP77       0.1450
     33  CG        -2.0250   16.9710   -4.2050 C.2    77  ASP77       0.3671
     34  OD1       -2.1220   16.0610   -3.4050 O.co2  77  ASP77      -0.2456
     35  OD2       -2.7200   18.0200   -4.0940 O.co2  77  ASP77      -0.2456
     36  N          0.9210   14.3060   -7.3670 N.am   78  SER78      -0.1936
     37  CA         1.4660   14.3030   -8.7200 C.3    78  SER78       0.2055
     38  C          0.4240   14.2290   -9.8450 C.2    78  SER78       0.2643
     39  O          0.5900   14.9630  -10.8310 O.2    78  SER78      -0.2714
     40  CB         2.6240   13.2770   -8.9160 C.3    78  SER78       0.2130
     41  OG         2.1130   11.9260   -8.7330 O.3    78  SER78      -0.2179
     42  N         -0.6390   13.4150   -9.6780 N.am   79  TYR79      -0.1959
     43  CA        -1.6510   13.3310  -10.7370 C.3    79  TYR79       0.1771
     44  C         -2.4290   14.6410  -10.7960 C.2    79  TYR79       0.2619
     45  O         -2.6070   15.2180  -11.8760 O.2    79  TYR79      -0.2715
     46  CB        -2.6520   12.1240  -10.6280 C.3    79  TYR79       0.0574
     47  CG        -3.5170   12.1640  -11.8530 C.ar   79  TYR79      -0.0198
     48  CD1       -3.0030   11.7390  -13.1110 C.ar   79  TYR79      -0.0009
     49  CD2       -4.7990   12.7250  -11.8150 C.ar   79  TYR79      -0.0009
     50  CE1       -3.7700   11.8500  -14.2840 C.ar   79  TYR79       0.0417
     51  CE2       -5.5680   12.8780  -12.9940 C.ar   79  TYR79       0.0417
     52  CZ        -5.0380   12.4390  -14.2180 C.ar   79  TYR79       0.1957
     53  OH        -5.8080   12.5670  -15.3680 O.3    79  TYR79      -0.2866
     54  N         -2.9030   15.1240   -9.6510 N.am   80  ASP80      -0.1971
     55  CA        -3.6780   16.3990   -9.6850 C.3    80  ASP80       0.1709
     56  C         -2.8340   17.5240  -10.2870 C.2    80  ASP80       0.2293
     57  O         -3.3730   18.4220  -10.9500 O.2    80  ASP80      -0.2864
     58  CB        -4.1270   16.7830   -8.2570 C.3    80  ASP80       0.1436
     59  CG        -5.2680   17.7620   -8.2630 C.2    80  ASP80       0.3671
     60  OD1       -6.2270   17.5370   -9.0120 O.co2  80  ASP80      -0.2456
     61  OD2       -5.2080   18.7990   -7.5510 O.co2  80  ASP80      -0.2456
     62  N         -2.8720   17.7430  -13.9270 N.3    83  GLU83      -0.1245
     63  CA        -4.1290   18.3740  -14.3810 C.3    83  GLU83       0.1567
     64  C         -4.0450   19.8750  -14.1460 C.2    83  GLU83       0.2260
     65  O         -4.5380   20.6290  -14.9540 O.2    83  GLU83      -0.2867
     66  CB        -5.3570   17.7920  -13.6210 C.3    83  GLU83       0.0388
     67  CG        -5.5960   16.3450  -13.9380 C.3    83  GLU83       0.1160
     68  CD        -6.2110   16.1870  -15.3090 C.2    83  GLU83       0.3649
     69  OE1       -6.5580   17.2480  -15.8890 O.co2  83  GLU83      -0.2457
     70  OE2       -6.3570   15.0040  -15.7450 O.co2  83  GLU83      -0.2457
     71  N         -8.5510   19.1600  -15.3900 N.3    95  ASP95      -0.1225
     72  CA        -9.6090   18.6150  -14.5360 C.3    95  ASP95       0.1805
     73  C         -9.0330   18.5100  -13.1210 C.2    95  ASP95       0.2598
     74  O         -9.0200   17.4230  -12.5230 O.2    95  ASP95      -0.2718
     75  CB       -10.0020   17.2410  -15.1520 C.3    95  ASP95       0.1424
     76  CG       -11.0380   16.5020  -14.3650 C.2    95  ASP95       0.3668
     77  OD1      -12.0240   17.1360  -13.8640 O.co2  95  ASP95      -0.2456
     78  OD2      -10.8070   15.2630  -14.2420 O.co2  95  ASP95      -0.2456
     79  N         -8.4880   19.6040  -12.5800 N.am   96  ALA96      -0.1966
     80  CA        -7.8360   19.5250  -11.2320 C.3    96  ALA96       0.1728
     81  C         -8.8030   19.7460  -10.0490 C.2    96  ALA96       0.2616
     82  O         -9.8910   20.3410  -10.2040 O.2    96  ALA96      -0.2715
     83  CB        -6.6600   20.4840  -11.1170 C.3    96  ALA96       0.0334
     84  N         -8.3840   19.3220   -8.8550 N.am   97  ARG97      -0.1977
     85  CA        -9.2310   19.4290   -7.6440 C.3    97  ARG97       0.1597
     86  C         -8.8520   20.6070   -6.7540 C.2    97  ARG97       0.2287
     87  O         -9.1560   20.6110   -5.5350 O.2    97  ARG97      -0.2864
     88  CB        -9.1270   18.1480   -6.8320 C.3    97  ARG97       0.0334
     89  CG        -9.5350   16.8980   -7.6440 C.3    97  ARG97       0.0492
     90  CD        -9.3460   15.6560   -6.7760 C.3    97  ARG97       0.2205
     91  NE        -9.7480   14.3820   -7.3950 N.pl3  97  ARG97      -0.0865
     92  CZ        -9.4630   13.1830   -6.8560 C.cat  97  ARG97       0.5346
     93  NH1       -8.7910   13.0900   -5.6930 N.pl3  97  ARG97       0.1354
     94  NH2       -9.8560   12.0760   -7.4740 N.pl3  97  ARG97       0.1354
@<TRIPOS>BOND
     1    69    68   ar
     2    70    68   ar
     3    71    72    1
     4    53    52    1
     5    68    67    1
     6    75    72    1
     7    75    76    1
     8    65    64    2
     9    72    73    1
    10    63    64    1
    11    63    62    1
    12    63    66    1
    13    76    78   ar
    14    76    77   ar
    15    50    52   ar
    16    50    48   ar
    17    52    51   ar
    18    67    66    1
    19    73    79   am
    20    73    74    2
    21    48    47   ar
    22    51    49   ar
    23    79    80    1
    24    45    44    2
    25    47    49   ar
    26    47    46    1
    27    80    83    1
    28    80    81    1
    29    57    56    2
    30    39    38    2
    31    44    43    1
    32    44    54   am
    33    43    46    1
    34    43    42    1
    35    56    55    1
    36    82    81    2
    37    81    84   am
    38    38    42   am
    39    38    37    1
    40    55    54    1
    41    55    58    1
    42    60    59   ar
    43    40    41    1
    44    40    37    1
    45    84    85    1
    46    37    36    1
    47    59    58    1
    48    59    61   ar
    49    31    30    2
    50    89    88    1
    51    89    90    1
    52    85    88    1
    53    85    86    1
    54    94    92    1
    55    91    92    2
    56    91    90    1
    57    36    30   am
    58    30    29    1
    59    92    93    1
    60    86    87    2
    61    23    22    2
    62    29    32    1
    63    29    28    1
    64    32    33    1
    65    24    25    1
    66    24    21    1
    67    22    28   am
    68    22    21    1
    69    25    27   am
    70    25    26    2
    71    21    20    1
    72    33    35   ar
    73    33    34   ar
    74    20    12   am
    75     4     3    2
    76    12    13    2
    77    12    11    1
    78    16    18   ar
    79    16    15   ar
    80    11    14    1
    81    11    10    1
    82    18    19   ar
    83     3    10   am
    84     3     2    1
    85    14    15    1
    86    15    17   ar
    87     1     2    1
    88     2     5    1
    89    19    17   ar
    90     5     6    1
    91     6     7    1
    92     8     7    2
    93     7     9   am
