@<TRIPOS>MOLECULE
tmp/5gqxA23.pdb
 88 90 0 0 0
SMALL
GASTEIGER

@<TRIPOS>ATOM
      1  N         56.5940   36.2860   91.4990 N.3   212  ARG212     -0.1231
      2  CA        55.4600   37.1720   91.5780 C.3   212  ARG212      0.1679
      3  C         54.8940   37.0880   93.0500 C.2   212  ARG212      0.2434
      4  O         54.9270   36.0550   93.6540 O.2   212  ARG212     -0.2733
      5  CB        54.3790   36.7400   90.5730 C.3   212  ARG212      0.0321
      6  CG        53.9200   35.2660   90.7930 C.3   212  ARG212      0.0489
      7  CD        52.5020   35.3080   91.2590 C.3   212  ARG212      0.2205
      8  NE        51.9110   34.0260   91.6060 N.pl3 212  ARG212     -0.0865
      9  CZ        52.0230   33.3870   92.7750 C.cat 212  ARG212      0.5346
     10  NH1       52.8350   33.8430   93.6740 N.pl3 212  ARG212      0.1354
     11  NH2       51.3230   32.2610   93.0160 N.pl3 212  ARG212      0.1354
     12  N         54.3960   38.1900   93.5970 N.am  213  PRO213     -0.2729
     13  CA        54.2060   39.4640   92.9710 C.3   213  PRO213      0.1401
     14  C         55.4580   40.3710   92.9290 C.2   213  PRO213      0.2269
     15  O         55.3410   41.4530   92.4460 O.2   213  PRO213     -0.2865
     16  CB        53.1680   40.1380   93.9100 C.3   213  PRO213      0.0296
     17  CG        53.6230   39.6730   95.3030 C.3   213  PRO213      0.0237
     18  CD        53.9560   38.2030   95.0410 C.3   213  PRO213      0.0939
     19  N         53.7250   29.2770   96.9150 N.3   277  ILE277     -0.1231
     20  CA        52.3880   28.8900   97.3450 C.3   277  ILE277      0.1692
     21  C         51.5080   29.1990   96.1880 C.2   277  ILE277      0.2592
     22  O         51.6040   30.3290   95.6060 O.2   277  ILE277     -0.2718
     23  CB        51.8870   29.7880   98.5320 C.3   277  ILE277      0.0266
     24  CG1       52.7230   29.6400   99.8010 C.3   277  ILE277      0.0019
     25  CG2       50.4130   29.5700   98.8430 C.3   277  ILE277      0.0020
     26  CD1       53.4790   28.3960   99.9720 C.3   277  ILE277      0.0001
     27  N         50.5550   28.3320   95.9000 N.am  278  VAL278     -0.1966
     28  CA        49.7500   28.5980   94.7250 C.3   278  VAL278      0.1727
     29  C         48.7650   29.7720   94.8690 C.2   278  VAL278      0.2617
     30  O         48.4770   30.4770   93.8970 O.2   278  VAL278     -0.2715
     31  CB        49.0260   27.3360   94.1580 C.3   278  VAL278      0.0290
     32  CG1       49.9600   26.1270   94.0890 C.3   278  VAL278      0.0023
     33  CG2       47.8060   27.0620   94.9390 C.3   278  VAL278      0.0023
     34  N         48.1750   29.9270   96.0280 N.am  279  SER279     -0.1936
     35  CA        47.3710   31.1150   96.3670 C.3   279  SER279      0.2055
     36  C         47.1770   31.1990   97.8670 C.2   279  SER279      0.2643
     37  O         47.3730   30.2100   98.6010 O.2   279  SER279     -0.2714
     38  CB        45.9930   31.0780   95.7290 C.3   279  SER279      0.2130
     39  OG        45.1950   30.0480   96.2910 O.3   279  SER279     -0.2179
     40  N         46.7050   32.3530   98.3000 N.am  280  GLU280     -0.1963
     41  CA        46.3950   32.5720   99.6920 C.3   280  GLU280      0.1733
     42  C         45.1820   31.7420  100.1110 C.2   280  GLU280      0.2616
     43  O         45.1190   31.3040  101.2300 O.2   280  GLU280     -0.2715
     44  CB        46.1560   34.0770   99.9390 C.3   280  GLU280      0.0429
     45  CG        47.4550   34.8730  100.1480 C.3   280  GLU280      0.1163
     46  CD        48.5420   34.0730  100.9190 C.2   280  GLU280      0.3649
     47  OE1       48.2970   33.6690  102.0890 O.co2 280  GLU280     -0.2457
     48  OE2       49.6550   33.8110  100.3640 O.co2 280  GLU280     -0.2457
     49  N         44.2380   31.5080   99.2070 N.am  281  TRP281     -0.1974
     50  CA        43.1390   30.6780   99.5240 C.3   281  TRP281      0.1640
     51  C         43.4690   29.1890   99.6570 C.2   281  TRP281      0.2290
     52  O         42.7250   28.5150  100.3650 O.2   281  TRP281     -0.2864
     53  CB        41.8830   30.9420   98.6970 C.3   281  TRP281      0.0576
     54  CG        41.8920   30.6590   97.3200 C.ar  281  TRP281      0.0006
     55  CD1       41.6050   29.4450   96.6780 C.ar  281  TRP281      0.0946
     56  CD2       42.0910   31.6310   96.2850 C.ar  281  TRP281      0.0152
     57  NE1       41.6760   29.6220   95.3010 N.ar  281  TRP281     -0.2442
     58  CE2       41.9710   30.9490   95.0340 C.ar  281  TRP281      0.0810
     59  CE3       42.3940   33.0160   96.2890 C.ar  281  TRP281      0.0012
     60  CZ2       42.1490   31.6220   93.8030 C.ar  281  TRP281      0.0191
     61  CZ3       42.5600   33.6700   95.0640 C.ar  281  TRP281      0.0001
     62  CH2       42.4360   32.9720   93.8390 C.ar  281  TRP281      0.0015
     63  N         52.7590   38.4130   85.7450 N.3   318  PRO318     -0.2102
     64  CA        52.5260   38.7760   87.1480 C.3   318  PRO318      0.1504
     65  C         51.2810   38.1250   87.7710 C.2   318  PRO318      0.2576
     66  O         51.3040   37.8990   88.9100 O.2   318  PRO318     -0.2718
     67  CB        52.3540   40.2930   87.0960 C.3   318  PRO318      0.0282
     68  CG        51.8250   40.6060   85.7390 C.3   318  PRO318      0.0208
     69  CD        52.5460   39.5630   84.8360 C.3   318  PRO318      0.0893
     70  N         50.2860   37.7000   86.9980 N.am  319  PHE319     -0.1963
     71  CA        49.0050   37.3060   87.5590 C.3   319  PHE319      0.1771
     72  C         48.6300   35.8890   87.1390 C.2   319  PHE319      0.2619
     73  O         48.4570   35.6270   85.9470 O.2   319  PHE319     -0.2715
     74  CB        47.9750   38.3440   87.0640 C.3   319  PHE319      0.0574
     75  CG        46.6280   38.2000   87.6650 C.ar  319  PHE319     -0.0200
     76  CD1       46.4620   38.2020   89.0770 C.ar  319  PHE319     -0.0042
     77  CD2       45.4650   38.0870   86.8470 C.ar  319  PHE319     -0.0042
     78  CE1       45.1690   38.0470   89.6560 C.ar  319  PHE319     -0.0003
     79  CE2       44.1710   37.9250   87.4330 C.ar  319  PHE319     -0.0003
     80  CZ        44.0340   37.9110   88.8370 C.ar  319  PHE319     -0.0000
     81  N         48.5240   34.9760   88.0940 N.am  320  ASP320     -0.1971
     82  CA        48.1460   33.6050   87.8240 C.3   320  ASP320      0.1709
     83  C         46.8940   33.5170   86.9830 C.2   320  ASP320      0.2293
     84  O         46.8500   32.7260   85.9930 O.2   320  ASP320     -0.2864
     85  CB        47.9350   32.7810   89.0960 C.3   320  ASP320      0.1436
     86  CG        49.1830   32.6290   89.8940 C.2   320  ASP320      0.3671
     87  OD1       50.2500   33.1560   89.4830 O.co2 320  ASP320     -0.2456
     88  OD2       49.1130   32.0600   91.0100 O.co2 320  ASP320     -0.2456
@<TRIPOS>BOND
     1    69    68    1
     2    69    63    1
     3    68    67    1
     4    63    64    1
     5    73    72    2
     6    84    83    2
     7    77    79   ar
     8    77    75   ar
     9    83    82    1
    10    70    71    1
    11    70    65   am
    12    74    71    1
    13    74    75    1
    14    67    64    1
    15    72    71    1
    16    72    81   am
    17    64    65    1
    18    79    80   ar
    19    75    76   ar
    20    65    66    2
    21    82    81    1
    22    82    85    1
    23    80    78   ar
    24    76    78   ar
    25    85    86    1
    26    87    86   ar
    27    86    88   ar
    28     5     6    1
    29     5     2    1
    30     6     7    1
    31     7     8    1
    32     1     2    1
    33     2     3    1
    34     8     9    2
    35    15    14    2
    36     9    11    1
    37     9    10    1
    38    14    13    1
    39    13    12    1
    40    13    16    1
    41     3    12   am
    42     3     4    2
    43    12    18    1
    44    60    62   ar
    45    60    58   ar
    46    62    61   ar
    47    30    29    2
    48    16    17    1
    49    32    31    1
    50    31    28    1
    51    31    33    1
    52    28    29    1
    53    28    27    1
    54    29    34   am
    55    58    57   ar
    56    58    56   ar
    57    18    17    1
    58    61    59   ar
    59    57    55   ar
    60    22    21    2
    61    38    39    1
    62    38    35    1
    63    27    21   am
    64    34    35    1
    65    21    20    1
    66    56    59   ar
    67    56    54   ar
    68    35    36    1
    69    55    54   ar
    70    19    20    1
    71    54    53    1
    72    20    23    1
    73    36    40   am
    74    36    37    2
    75    40    41    1
    76    23    25    1
    77    23    24    1
    78    53    50    1
    79    49    50    1
    80    49    42   am
    81    50    51    1
    82    51    52    2
    83    41    44    1
    84    41    42    1
    85    24    26    1
    86    44    45    1
    87    42    43    2
    88    45    46    1
    89    48    46   ar
    90    46    47   ar
