@<TRIPOS>MOLECULE
tmp/5gqxA17.pdb
 101 100 0 0 0
SMALL
GASTEIGER

@<TRIPOS>ATOM
      1  N         46.4520   33.1660   83.2000 N.3   323  TRP323     -0.1241
      2  CA        46.8480   31.8570   82.6430 C.3   323  TRP323      0.1605
      3  C         48.1780   31.9470   81.8880 C.2   323  TRP323      0.2264
      4  O         48.6650   30.9510   81.3370 O.2   323  TRP323     -0.2867
      5  CB        45.7880   31.2820   81.6840 C.3   323  TRP323      0.0550
      6  CG        44.4150   31.1320   82.2410 C.ar  323  TRP323      0.0003
      7  CD1       44.0370   31.1730   83.5780 C.ar  323  TRP323      0.0946
      8  CD2       43.2080   30.8790   81.4940 C.ar  323  TRP323      0.0152
      9  NE1       42.6700   30.9690   83.6930 N.ar  323  TRP323     -0.2442
     10  CE2       42.1260   30.8430   82.4380 C.ar  323  TRP323      0.0810
     11  CE3       42.9260   30.8170   80.1550 C.ar  323  TRP323      0.0012
     12  CZ2       40.8200   30.6350   82.0650 C.ar  323  TRP323      0.0191
     13  CZ3       41.6300   30.6110   79.7490 C.ar  323  TRP323      0.0001
     14  CH2       40.5680   30.5510   80.6960 C.ar  323  TRP323      0.0015
     15  N         48.6430   34.6000   79.6240 N.3   325  TYR325     -0.1241
     16  CA        48.4290   35.4110   78.4250 C.3   325  TYR325      0.1605
     17  C         48.6430   36.9350   78.5680 C.2   325  TYR325      0.2264
     18  O         48.5180   37.6880   77.5640 O.2   325  TYR325     -0.2867
     19  CB        47.0630   35.1250   77.8250 C.3   325  TYR325      0.0534
     20  CG        47.0410   33.7210   77.3160 C.ar  325  TYR325     -0.0201
     21  CD1       47.5650   33.3790   76.0210 C.ar  325  TYR325     -0.0009
     22  CD2       46.4890   32.7150   78.0560 C.ar  325  TYR325     -0.0009
     23  CE1       47.5460   32.0590   75.5640 C.ar  325  TYR325      0.0417
     24  CE2       46.4240   31.4020   77.5590 C.ar  325  TYR325      0.0417
     25  CZ        46.9750   31.0670   76.3350 C.ar  325  TYR325      0.1957
     26  OH        46.9430   29.7370   75.9370 O.3   325  TYR325     -0.2866
     27  N         39.8980   44.3770   77.0520 N.3   395  TRP395     -0.1241
     28  CA        40.6980   43.4510   77.8150 C.3   395  TRP395      0.1605
     29  C         41.4200   44.2070   78.8370 C.2   395  TRP395      0.2264
     30  O         41.9490   43.5890   79.7230 O.2   395  TRP395     -0.2867
     31  CB        41.6940   42.7380   76.9190 C.3   395  TRP395      0.0550
     32  CG        41.1550   41.8800   75.8310 C.ar  395  TRP395      0.0003
     33  CD1       39.8620   41.3920   75.6960 C.ar  395  TRP395      0.0946
     34  CD2       41.9160   41.2830   74.7520 C.ar  395  TRP395      0.0152
     35  NE1       39.7630   40.6250   74.5320 N.ar  395  TRP395     -0.2442
     36  CE2       41.0100   40.5240   73.9590 C.ar  395  TRP395      0.0810
     37  CE3       43.2400   41.3940   74.3260 C.ar  395  TRP395      0.0012
     38  CZ2       41.4210   39.8370   72.8080 C.ar  395  TRP395      0.0191
     39  CZ3       43.6370   40.7130   73.1680 C.ar  395  TRP395      0.0001
     40  CH2       42.7410   39.9510   72.4330 C.ar  395  TRP395      0.0015
     41  N         52.8960   28.5260   69.3320 N.3   428  ARG428     -0.1245
     42  CA        51.5100   28.7050   68.9620 C.3   428  ARG428      0.1563
     43  C         51.1110   30.1250   69.3730 C.2   428  ARG428      0.2260
     44  O         51.4480   30.5830   70.4760 O.2   428  ARG428     -0.2867
     45  CB        50.5990   27.7100   69.6570 C.3   428  ARG428      0.0307
     46  CG        49.2160   28.0150   69.1220 C.3   428  ARG428      0.0489
     47  CD        48.1000   27.4900   69.8580 C.3   428  ARG428      0.2205
     48  NE        47.8810   28.0660   71.1750 N.pl3 428  ARG428     -0.0865
     49  CZ        46.8280   28.8120   71.5190 C.cat 428  ARG428      0.5346
     50  NH1       45.9300   29.1930   70.6170 N.pl3 428  ARG428      0.1354
     51  NH2       46.6730   29.1760   72.7870 N.pl3 428  ARG428      0.1354
     52  N         48.0430   32.6880   69.9110 N.3   430  ASP430     -0.1225
     53  CA        46.6080   32.8260   70.2350 C.3   430  ASP430      0.1805
     54  C         46.0310   34.1300   69.6450 C.2   430  ASP430      0.2597
     55  O         46.7310   35.1000   69.5570 O.2   430  ASP430     -0.2718
     56  CB        46.5600   32.8560   71.7930 C.3   430  ASP430      0.1424
     57  CG        45.2910   33.4820   72.3590 C.2   430  ASP430      0.3668
     58  OD1       44.1570   32.9280   72.2030 O.co2 430  ASP430     -0.2456
     59  OD2       45.4600   34.5210   72.9800 O.co2 430  ASP430     -0.2456
     60  N         44.7920   34.1370   69.1830 N.am  431  ALA431     -0.1979
     61  CA        44.1090   35.4130   68.9300 C.3   431  ALA431      0.1597
     62  C         44.8310   36.2640   67.8810 C.2   431  ALA431      0.2287
     63  O         44.9890   37.4870   68.0330 O.2   431  ALA431     -0.2864
     64  CB        44.0210   36.2170   70.2530 C.3   431  ALA431      0.0319
     65  N         46.1690   30.3610   65.9130 N.3   483  GLU483     -0.1245
     66  CA        44.6910   30.3900   65.9970 C.3   483  GLU483      0.1567
     67  C         44.2260   31.7530   65.4800 C.2   483  GLU483      0.2260
     68  O         44.5940   32.8200   66.0270 O.2   483  GLU483     -0.2867
     69  CB        44.2280   30.1830   67.4240 C.3   483  GLU483      0.0388
     70  CG        42.7120   30.3340   67.5420 C.3   483  GLU483      0.1160
     71  CD        42.3010   31.7570   67.9300 C.2   483  GLU483      0.3649
     72  OE1       42.8160   32.2010   69.0040 O.co2 483  GLU483     -0.2457
     73  OE2       41.5270   32.4080   67.1690 O.co2 483  GLU483     -0.2457
     74  N         42.1690   24.1060   76.1030 N.3   550  HIS550     -0.1226
     75  CA        41.7780   24.6040   77.4010 C.3   550  HIS550      0.1752
     76  C         40.5890   25.5370   77.3610 C.2   550  HIS550      0.2596
     77  O         39.7920   25.5460   78.3250 O.2   550  HIS550     -0.2718
     78  CB        42.9690   25.3150   78.1400 C.3   550  HIS550      0.0759
     79  CG        43.3880   26.5940   77.4890 C.ar  550  HIS550      0.0818
     80  ND1       44.2250   26.6340   76.3980 N.ar  550  HIS550     -0.2268
     81  CD2       43.0860   27.8830   77.7740 C.ar  550  HIS550      0.1154
     82  CE1       44.4390   27.8950   76.0610 C.ar  550  HIS550      0.1986
     83  NE2       43.7440   28.6680   76.8590 N.ar  550  HIS550     -0.2212
     84  N         40.4700   26.3380   76.3100 N.am  551  ASP551     -0.1974
     85  CA        39.4610   27.3480   76.2990 C.3   551  ASP551      0.1709
     86  C         38.0810   26.7170   76.2080 C.2   551  ASP551      0.2293
     87  O         37.0750   27.4420   76.2690 O.2   551  ASP551     -0.2864
     88  CB        39.5920   28.2610   75.0660 C.3   551  ASP551      0.1436
     89  CG        40.7070   29.2590   75.2000 C.2   551  ASP551      0.3671
     90  OD1       40.8270   29.8810   76.2790 O.co2 551  ASP551     -0.2456
     91  OD2       41.4400   29.4490   74.2070 O.co2 551  ASP551     -0.2456
     92  N         34.5410   28.2350   81.9940 N.3   555  HIS555     -0.1241
     93  CA        33.5160   29.2490   81.9190 C.3   555  HIS555      0.1621
     94  C         32.1960   28.6510   81.6120 C.2   555  HIS555      0.2264
     95  O         31.5220   29.2060   80.7370 O.2   555  HIS555     -0.2867
     96  CB        33.8470   30.2790   80.7660 C.3   555  HIS555      0.0745
     97  CG        35.0760   31.0900   81.0310 C.ar  555  HIS555      0.0817
     98  ND1       35.9010   31.5550   80.0240 N.ar  555  HIS555     -0.2268
     99  CD2       35.6680   31.4420   82.1930 C.ar  555  HIS555      0.1154
    100  CE1       36.9170   32.2040   80.5600 C.ar  555  HIS555      0.1986
    101  NE2       36.8220   32.1140   81.8720 N.ar  555  HIS555     -0.2212
@<TRIPOS>BOND
     1    67    66    1
     2    67    68    2
     3    65    66    1
     4    66    69    1
     5    73    71   ar
     6    69    70    1
     7    70    71    1
     8    62    63    2
     9    62    61    1
    10    71    72   ar
    11    61    60    1
    12    61    64    1
    13    42    41    1
    14    42    43    1
    15    42    45    1
    16    46    45    1
    17    46    47    1
    18    60    54   am
    19    43    44    2
    20    55    54    2
    21    54    53    1
    22    47    48    1
    23    52    53    1
    24    53    56    1
    25    50    49    1
    26    48    49    2
    27    49    51    1
    28    56    57    1
    29    58    57   ar
    30    57    59   ar
    31    40    38   ar
    32    40    39   ar
    33    38    36   ar
    34    39    37   ar
    35    36    35   ar
    36    36    34   ar
    37    91    89   ar
    38    37    34   ar
    39    35    33   ar
    40    34    32   ar
    41    88    89    1
    42    88    85    1
    43    89    90   ar
    44    23    21   ar
    45    23    25   ar
    46    33    32   ar
    47    32    31    1
    48    26    25    1
    49    21    20   ar
    50    82    80   ar
    51    82    83   ar
    52    74    75    1
    53    86    87    2
    54    86    85    1
    55    85    84    1
    56    84    76   am
    57    25    24   ar
    58    80    79   ar
    59    83    81   ar
    60    31    28    1
    61    27    28    1
    62    20    19    1
    63    20    22   ar
    64    76    75    1
    65    76    77    2
    66    75    78    1
    67    79    81   ar
    68    79    78    1
    69    24    22   ar
    70    18    17    2
    71    28    29    1
    72    19    16    1
    73    16    17    1
    74    16    15    1
    75    29    30    2
    76    13    11   ar
    77    13    14   ar
    78    98   100   ar
    79    98    97   ar
    80    11     8   ar
    81   100   101   ar
    82    14    12   ar
    83    95    94    2
    84    96    97    1
    85    96    93    1
    86    97    99   ar
    87     4     3    2
    88     8     6   ar
    89     8    10   ar
    90    94    93    1
    91     5     6    1
    92     5     2    1
    93   101    99   ar
    94     3     2    1
    95    93    92    1
    96    12    10   ar
    97     6     7   ar
    98    10     9   ar
    99     2     1    1
   100     7     9   ar
