@<TRIPOS>MOLECULE
tmp/5gqxA02.pdb
 108 106 0 0 0
SMALL
GASTEIGER

@<TRIPOS>ATOM
      1  N         55.3040   18.5060   58.8990 N.3   243  LEU243     -0.1245
      2  CA        53.9780   18.3210   58.3690 C.3   243  LEU243      0.1561
      3  C         53.6440   16.8940   57.9170 C.2   243  LEU243      0.2260
      4  O         52.4640   16.5690   57.7130 O.2   243  LEU243     -0.2867
      5  CB        53.6980   19.3010   57.2380 C.3   243  LEU243      0.0270
      6  CG        53.7650   20.7560   57.5400 C.3   243  LEU243      0.0019
      7  CD1       53.5700   21.5880   56.2710 C.3   243  LEU243      0.0001
      8  CD2       52.7490   21.2160   58.6190 C.3   243  LEU243      0.0001
      9  N         57.6440   34.7170   61.0220 N.3   468  ASN468     -0.1225
     10  CA        57.6700   33.3920   60.4780 C.3   468  ASN468      0.1785
     11  C         58.7930   33.1600   59.4360 C.2   468  ASN468      0.2597
     12  O         59.2870   32.0570   59.3040 O.2   468  ASN468     -0.2718
     13  CB        56.3090   33.0350   59.8580 C.3   468  ASN468      0.1169
     14  CG        55.2990   32.6560   60.9350 C.2   468  ASN468      0.2627
     15  OD1       55.6180   31.8990   61.8460 O.2   468  ASN468     -0.2716
     16  ND2       54.1000   33.1580   60.8340 N.am  468  ASN468     -0.0877
     17  N         59.1360   34.1830   58.6580 N.am  469  THR469     -0.1953
     18  CA        60.1840   34.0460   57.7050 C.3   469  THR469      0.1897
     19  C         61.4880   33.7730   58.4460 C.2   469  THR469      0.2313
     20  O         62.2520   32.8870   58.0780 O.2   469  THR469     -0.2863
     21  CB        60.3440   35.3160   56.8720 C.3   469  THR469      0.1794
     22  OG1       59.1620   35.4770   56.1320 O.3   469  THR469     -0.2208
     23  CG2       61.5900   35.2130   55.9170 C.3   469  THR469      0.0378
     24  N         61.5790   30.1330   60.4890 N.3   472  PHE472     -0.1241
     25  CA        61.8600   29.0030   59.6530 C.3   472  PHE472      0.1605
     26  C         63.2690   28.9900   59.0210 C.2   472  PHE472      0.2264
     27  O         63.8700   27.9310   58.9100 O.2   472  PHE472     -0.2867
     28  CB        60.8050   28.8820   58.5720 C.3   472  PHE472      0.0534
     29  CG        59.5380   28.3060   59.0660 C.ar  472  PHE472     -0.0203
     30  CD1       59.4450   26.9380   59.2670 C.ar  472  PHE472     -0.0042
     31  CD2       58.4700   29.1220   59.3730 C.ar  472  PHE472     -0.0042
     32  CE1       58.2610   26.3900   59.7170 C.ar  472  PHE472     -0.0003
     33  CE2       57.2820   28.5810   59.8120 C.ar  472  PHE472     -0.0003
     34  CZ        57.1810   27.2130   59.9920 C.ar  472  PHE472     -0.0000
     35  N         48.3510   29.7360   56.9660 N.3   492  SER492     -0.1202
     36  CA        49.3880   28.7260   57.0850 C.3   492  SER492      0.2020
     37  C         50.0130   28.4130   55.7150 C.2   492  SER492      0.2619
     38  O         50.3240   27.2770   55.4030 O.2   492  SER492     -0.2717
     39  CB        48.8010   27.4680   57.7670 C.3   492  SER492      0.2103
     40  OG        47.9190   26.7120   56.8980 O.3   492  SER492     -0.2182
     41  N         50.2000   29.4450   54.8960 N.am  493  ARG493     -0.1965
     42  CA        50.9090   29.3090   53.6550 C.3   493  ARG493      0.1714
     43  C         52.1410   30.2040   53.6790 C.2   493  ARG493      0.2458
     44  O         52.2330   31.1360   54.4730 O.2   493  ARG493     -0.2730
     45  CB        49.9880   29.7020   52.4750 C.3   493  ARG493      0.0347
     46  CG        48.7090   28.8740   52.3160 C.3   493  ARG493      0.0492
     47  CD        49.0470   27.5790   51.6020 C.3   493  ARG493      0.2205
     48  NE        48.0210   26.5580   51.4760 N.pl3 493  ARG493     -0.0865
     49  CZ        47.8880   25.5080   52.2830 C.cat 493  ARG493      0.5346
     50  NH1       48.6590   25.3550   53.3560 N.pl3 493  ARG493      0.1354
     51  NH2       46.9750   24.6080   52.0390 N.pl3 493  ARG493      0.1354
     52  N         53.1020   29.9440   52.7800 N.am  494  PRO494     -0.2716
     53  CA        54.3540   30.7160   52.8200 C.3   494  PRO494      0.1536
     54  C         54.1700   32.1600   52.5270 C.2   494  PRO494      0.2598
     55  O         53.2720   32.5510   51.7860 O.2   494  PRO494     -0.2715
     56  CB        55.2080   30.0620   51.7160 C.3   494  PRO494      0.0310
     57  CG        54.6960   28.6420   51.5500 C.3   494  PRO494      0.0237
     58  CD        53.1850   28.7920   51.8290 C.3   494  PRO494      0.0939
     59  N         55.0440   32.9560   53.1140 N.am  495  VAL495     -0.1964
     60  CA        54.9920   34.3630   52.9350 C.3   495  VAL495      0.1727
     61  C         55.2220   34.6730   51.4440 C.2   495  VAL495      0.2616
     62  O         54.6400   35.6000   50.9020 O.2   495  VAL495     -0.2715
     63  CB        56.0480   35.0490   53.7880 C.3   495  VAL495      0.0290
     64  CG1       56.1620   36.5320   53.4250 C.3   495  VAL495      0.0023
     65  CG2       55.6920   34.8800   55.2660 C.3   495  VAL495      0.0023
     66  N         56.0490   33.8830   50.7780 N.am  496  TYR496     -0.1974
     67  CA        56.3100   34.1270   49.3470 C.3   496  TYR496      0.1639
     68  C         55.0800   33.8840   48.5230 C.2   496  TYR496      0.2290
     69  O         55.0700   34.3390   47.4320 O.2   496  TYR496     -0.2864
     70  CB        57.5020   33.3100   48.7640 C.3   496  TYR496      0.0560
     71  CG        57.4400   31.7800   48.9120 C.ar  496  TYR496     -0.0198
     72  CD1       56.5810   31.0180   48.1700 C.ar  496  TYR496     -0.0009
     73  CD2       58.2930   31.1080   49.8050 C.ar  496  TYR496     -0.0009
     74  CE1       56.5060   29.6370   48.3380 C.ar  496  TYR496      0.0417
     75  CE2       58.2450   29.7390   49.9570 C.ar  496  TYR496      0.0417
     76  CZ        57.3750   29.0180   49.2010 C.ar  496  TYR496      0.1957
     77  OH        57.3290   27.6900   49.3850 O.3   496  TYR496     -0.2866
     78  N         52.6290   32.8220   56.9010 N.3   501  GLY501     -0.1210
     79  CA        53.8600   32.0910   57.1400 C.3   501  GLY501      0.1956
     80  C         53.7870   30.9980   58.2090 C.2   501  GLY501      0.2612
     81  O         54.7920   30.3250   58.4480 O.2   501  GLY501     -0.2717
     82  N         52.6350   30.7830   58.8400 N.am  502  PHE502     -0.1962
     83  CA        52.5310   29.6900   59.8570 C.3   502  PHE502      0.1771
     84  C         52.6160   28.3790   59.0410 C.2   502  PHE502      0.2619
     85  O         52.3710   28.4180   57.8500 O.2   502  PHE502     -0.2715
     86  CB        51.1870   29.8120   60.6310 C.3   502  PHE502      0.0574
     87  CG        51.1030   31.0390   61.5110 C.ar  502  PHE502     -0.0200
     88  CD1       51.6660   31.0440   62.7670 C.ar  502  PHE502     -0.0042
     89  CD2       50.5220   32.2040   61.0570 C.ar  502  PHE502     -0.0042
     90  CE1       51.6550   32.1740   63.5370 C.ar  502  PHE502     -0.0003
     91  CE2       50.5070   33.3740   61.8490 C.ar  502  PHE502     -0.0003
     92  CZ        51.0550   33.3260   63.0800 C.ar  502  PHE502     -0.0000
     93  N         52.9370   27.2410   59.6460 N.am  503  ASN503     -0.1972
     94  CA        52.7330   25.9970   58.9850 C.3   503  ASN503      0.1688
     95  C         51.5420   25.2250   59.4610 C.2   503  ASN503      0.2292
     96  O         51.2190   24.2330   58.7990 O.2   503  ASN503     -0.2864
     97  CB        53.9480   25.0950   58.8920 C.3   503  ASN503      0.1181
     98  CG        54.5210   24.6740   60.2430 C.2   503  ASN503      0.2629
     99  OD1       54.0520   25.0870   61.3030 O.2   503  ASN503     -0.2716
    100  ND2       55.6290   23.9090   60.1990 N.am  503  ASN503     -0.0877
    101  N         46.7790   24.1920   56.3300 N.3   543  ASN543     -0.1240
    102  CA        47.1510   23.0040   57.0100 C.3   543  ASN543      0.1653
    103  C         46.5610   23.0160   58.4240 C.2   543  ASN543      0.2266
    104  O         47.0670   23.7080   59.2720 O.2   543  ASN543     -0.2867
    105  CB        48.6790   22.9750   57.1580 C.3   543  ASN543      0.1155
    106  CG        49.3890   23.1070   55.8400 C.2   543  ASN543      0.2627
    107  OD1       48.8960   22.6620   54.7700 O.2   543  ASN543     -0.2716
    108  ND2       50.5260   23.7700   55.8840 N.am  543  ASN543     -0.0877
@<TRIPOS>BOND
     1    69    68    2
     2    72    74   ar
     3    72    71   ar
     4    74    76   ar
     5    68    67    1
     6    70    71    1
     7    70    67    1
     8    71    73   ar
     9    76    77    1
    10    76    75   ar
    11    67    66    1
    12    73    75   ar
    13    66    61   am
    14    62    61    2
    15    61    60    1
    16    48    47    1
    17    48    49    2
    18    57    56    1
    19    57    58    1
    20    47    46    1
    21    56    53    1
    22    55    54    2
    23    58    52    1
    24    51    49    1
    25    49    50    1
    26    46    45    1
    27    45    42    1
    28    54    53    1
    29    54    59   am
    30    52    53    1
    31    52    43   am
    32    60    59    1
    33    60    63    1
    34    64    63    1
    35    42    43    1
    36    42    41    1
    37    43    44    2
    38    63    65    1
    39   107   106    2
    40    41    37   am
    41    38    37    2
    42    37    36    1
    43   106   108   am
    44   106   105    1
    45    23    21    1
    46    22    21    1
    47     7     6    1
    48   101   102    1
    49    21    18    1
    50    40    39    1
    51    78    79    1
    52    35    36    1
    53   102   105    1
    54   102   103    1
    55    36    39    1
    56    79    80    1
    57     5     6    1
    58     5     2    1
    59     6     8    1
    60    18    19    1
    61    18    17    1
    62     4     3    2
    63    85    84    2
    64     3     2    1
    65    20    19    2
    66    80    81    2
    67    80    82   am
    68     2     1    1
    69   103   104    2
    70    28    29    1
    71    28    25    1
    72    17    11   am
    73    96    95    2
    74    82    83    1
    75    97    94    1
    76    97    98    1
    77    27    26    2
    78    94    95    1
    79    94    93    1
    80    26    25    1
    81    84    93   am
    82    84    83    1
    83    29    30   ar
    84    29    31   ar
    85    30    32   ar
    86    12    11    2
    87    31    33   ar
    88    11    10    1
    89    25    24    1
    90    32    34   ar
    91    33    34   ar
    92    83    86    1
    93    13    10    1
    94    13    14    1
    95   100    98   am
    96    98    99    2
    97    10     9    1
    98    86    87    1
    99    16    14   am
   100    14    15    2
   101    89    87   ar
   102    89    91   ar
   103    87    88   ar
   104    91    92   ar
   105    88    90   ar
   106    92    90   ar
