@<TRIPOS>MOLECULE
tmp/5gqxA18.pdb
 104 106 0 0 0
SMALL
GASTEIGER

@<TRIPOS>ATOM
      1  N         45.9280   34.3570   87.2780 N.3   321  GLY321     -0.1210
      2  CA        44.6210   34.2900   86.6400 C.3   321  GLY321      0.1956
      3  C         44.6690   34.7250   85.1650 C.2   321  GLY321      0.2613
      4  O         43.6640   34.6490   84.5040 O.2   321  GLY321     -0.2717
      5  N         45.7670   35.2710   84.6250 N.am  322  SER322     -0.1938
      6  CA        45.8090   35.4960   83.2130 C.3   322  SER322      0.2055
      7  C         46.1000   34.2000   82.4700 C.2   322  SER322      0.2643
      8  O         46.0100   34.1970   81.2300 O.2   322  SER322     -0.2714
      9  CB        46.9090   36.4440   82.7240 C.3   322  SER322      0.2130
     10  OG        48.2040   35.9610   83.0740 O.3   322  SER322     -0.2179
     11  N         46.4520   33.1660   83.2000 N.am  323  TRP323     -0.1973
     12  CA        46.8480   31.8570   82.6430 C.3   323  TRP323      0.1640
     13  C         48.1780   31.9470   81.8880 C.2   323  TRP323      0.2290
     14  O         48.6650   30.9510   81.3370 O.2   323  TRP323     -0.2864
     15  CB        45.7880   31.2820   81.6840 C.3   323  TRP323      0.0576
     16  CG        44.4150   31.1320   82.2410 C.ar  323  TRP323      0.0006
     17  CD1       44.0370   31.1730   83.5780 C.ar  323  TRP323      0.0946
     18  CD2       43.2080   30.8790   81.4940 C.ar  323  TRP323      0.0152
     19  NE1       42.6700   30.9690   83.6930 N.ar  323  TRP323     -0.2442
     20  CE2       42.1260   30.8430   82.4380 C.ar  323  TRP323      0.0810
     21  CE3       42.9260   30.8170   80.1550 C.ar  323  TRP323      0.0012
     22  CZ2       40.8200   30.6350   82.0650 C.ar  323  TRP323      0.0191
     23  CZ3       41.6300   30.6110   79.7490 C.ar  323  TRP323      0.0001
     24  CH2       40.5680   30.5510   80.6960 C.ar  323  TRP323      0.0015
     25  N         48.6430   34.6000   79.6240 N.3   325  TYR325     -0.1227
     26  CA        48.4290   35.4110   78.4250 C.3   325  TYR325      0.1736
     27  C         48.6430   36.9350   78.5680 C.2   325  TYR325      0.2595
     28  O         48.5180   37.6880   77.5640 O.2   325  TYR325     -0.2718
     29  CB        47.0630   35.1250   77.8250 C.3   325  TYR325      0.0548
     30  CG        47.0410   33.7210   77.3160 C.ar  325  TYR325     -0.0200
     31  CD1       47.5650   33.3790   76.0210 C.ar  325  TYR325     -0.0009
     32  CD2       46.4890   32.7150   78.0560 C.ar  325  TYR325     -0.0009
     33  CE1       47.5460   32.0590   75.5640 C.ar  325  TYR325      0.0417
     34  CE2       46.4240   31.4020   77.5590 C.ar  325  TYR325      0.0417
     35  CZ        46.9750   31.0670   76.3350 C.ar  325  TYR325      0.1957
     36  OH        46.9430   29.7370   75.9370 O.3   325  TYR325     -0.2866
     37  N         48.9860   37.3680   79.7770 N.am  326  GLN326     -0.1979
     38  CA        49.3990   38.7510   80.0230 C.3   326  GLN326      0.1601
     39  C         50.7970   38.8300   80.5620 C.2   326  GLN326      0.2287
     40  O         51.0680   38.7050   81.7640 O.2   326  GLN326     -0.2864
     41  CB        48.4060   39.4520   80.9190 C.3   326  GLN326      0.0394
     42  CG        47.0360   39.5210   80.2730 C.3   326  GLN326      0.0908
     43  CD        45.9660   40.2000   81.1890 C.2   326  GLN326      0.2608
     44  OE1       46.2090   40.4970   82.3650 O.2   326  GLN326     -0.2717
     45  NE2       44.7900   40.3960   80.6520 N.am  326  GLN326     -0.0878
     46  N         49.8560   41.7180   72.8570 N.3   365  HIS365     -0.1241
     47  CA        49.5410   42.8000   73.7880 C.3   365  HIS365      0.1621
     48  C         50.3290   42.5750   75.0370 C.2   365  HIS365      0.2264
     49  O         51.0200   41.5850   75.1840 O.2   365  HIS365     -0.2867
     50  CB        48.0060   42.7930   74.0540 C.3   365  HIS365      0.0745
     51  CG        47.5100   41.5700   74.7720 C.ar  365  HIS365      0.0817
     52  ND1       46.4510   41.6060   75.6270 N.ar  365  HIS365     -0.2268
     53  CD2       47.9440   40.2870   74.7900 C.ar  365  HIS365      0.1154
     54  CE1       46.2590   40.4110   76.1640 C.ar  365  HIS365      0.1986
     55  NE2       47.1700   39.5950   75.6880 N.ar  365  HIS365     -0.2212
     56  N         39.8980   44.3770   77.0520 N.3   395  TRP395     -0.1241
     57  CA        40.6980   43.4510   77.8150 C.3   395  TRP395      0.1605
     58  C         41.4200   44.2070   78.8370 C.2   395  TRP395      0.2264
     59  O         41.9490   43.5890   79.7230 O.2   395  TRP395     -0.2867
     60  CB        41.6940   42.7380   76.9190 C.3   395  TRP395      0.0550
     61  CG        41.1550   41.8800   75.8310 C.ar  395  TRP395      0.0003
     62  CD1       39.8620   41.3920   75.6960 C.ar  395  TRP395      0.0946
     63  CD2       41.9160   41.2830   74.7520 C.ar  395  TRP395      0.0152
     64  NE1       39.7630   40.6250   74.5320 N.ar  395  TRP395     -0.2442
     65  CE2       41.0100   40.5240   73.9590 C.ar  395  TRP395      0.0810
     66  CE3       43.2400   41.3940   74.3260 C.ar  395  TRP395      0.0012
     67  CZ2       41.4210   39.8370   72.8080 C.ar  395  TRP395      0.0191
     68  CZ3       43.6370   40.7130   73.1680 C.ar  395  TRP395      0.0001
     69  CH2       42.7410   39.9510   72.4330 C.ar  395  TRP395      0.0015
     70  N         42.1690   24.1060   76.1030 N.3   550  HIS550     -0.1226
     71  CA        41.7780   24.6040   77.4010 C.3   550  HIS550      0.1752
     72  C         40.5890   25.5370   77.3610 C.2   550  HIS550      0.2596
     73  O         39.7920   25.5460   78.3250 O.2   550  HIS550     -0.2718
     74  CB        42.9690   25.3150   78.1400 C.3   550  HIS550      0.0759
     75  CG        43.3880   26.5940   77.4890 C.ar  550  HIS550      0.0818
     76  ND1       44.2250   26.6340   76.3980 N.ar  550  HIS550     -0.2268
     77  CD2       43.0860   27.8830   77.7740 C.ar  550  HIS550      0.1154
     78  CE1       44.4390   27.8950   76.0610 C.ar  550  HIS550      0.1986
     79  NE2       43.7440   28.6680   76.8590 N.ar  550  HIS550     -0.2212
     80  N         40.4700   26.3380   76.3100 N.am  551  ASP551     -0.1974
     81  CA        39.4610   27.3480   76.2990 C.3   551  ASP551      0.1709
     82  C         38.0810   26.7170   76.2080 C.2   551  ASP551      0.2293
     83  O         37.0750   27.4420   76.2690 O.2   551  ASP551     -0.2864
     84  CB        39.5920   28.2610   75.0660 C.3   551  ASP551      0.1436
     85  CG        40.7070   29.2590   75.2000 C.2   551  ASP551      0.3671
     86  OD1       40.8270   29.8810   76.2790 O.co2 551  ASP551     -0.2456
     87  OD2       41.4400   29.4490   74.2070 O.co2 551  ASP551     -0.2456
     88  N         36.2220   25.5100   80.1920 N.3   554  VAL554     -0.1231
     89  CA        36.1040   26.5290   81.2500 C.3   554  VAL554      0.1692
     90  C         34.8020   27.3420   81.0460 C.2   554  VAL554      0.2592
     91  O         34.0970   27.2010   80.0310 O.2   554  VAL554     -0.2718
     92  CB        37.2500   27.5500   81.1670 C.3   554  VAL554      0.0266
     93  CG1       38.5610   26.9040   81.3940 C.3   554  VAL554      0.0020
     94  CG2       37.2830   28.2250   79.8240 C.3   554  VAL554      0.0020
     95  N         34.5410   28.2350   81.9940 N.am  555  HIS555     -0.1976
     96  CA        33.5160   29.2490   81.9190 C.3   555  HIS555      0.1656
     97  C         32.1960   28.6510   81.6120 C.2   555  HIS555      0.2291
     98  O         31.5220   29.2060   80.7370 O.2   555  HIS555     -0.2864
     99  CB        33.8470   30.2790   80.7660 C.3   555  HIS555      0.0771
    100  CG        35.0760   31.0900   81.0310 C.ar  555  HIS555      0.0820
    101  ND1       35.9010   31.5550   80.0240 N.ar  555  HIS555     -0.2267
    102  CD2       35.6680   31.4420   82.1930 C.ar  555  HIS555      0.1154
    103  CE1       36.9170   32.2040   80.5600 C.ar  555  HIS555      0.1986
    104  NE2       36.8220   32.1140   81.8720 N.ar  555  HIS555     -0.2212
@<TRIPOS>BOND
     1    69    67   ar
     2    69    68   ar
     3    67    65   ar
     4    46    47    1
     5    68    66   ar
     6    47    50    1
     7    47    48    1
     8    65    64   ar
     9    65    63   ar
    10    50    51    1
    11    87    85   ar
    12    66    63   ar
    13    64    62   ar
    14    63    61   ar
    15    51    53   ar
    16    51    52   ar
    17    53    55   ar
    18    48    49    2
    19    84    85    1
    20    84    81    1
    21    85    86   ar
    22    33    31   ar
    23    33    35   ar
    24    52    54   ar
    25    55    54   ar
    26    62    61   ar
    27    61    60    1
    28    36    35    1
    29    31    30   ar
    30    78    76   ar
    31    78    79   ar
    32    70    71    1
    33    82    83    2
    34    82    81    1
    35    81    80    1
    36    80    72   am
    37    35    34   ar
    38    76    75   ar
    39    79    77   ar
    40    60    57    1
    41    56    57    1
    42    30    29    1
    43    30    32   ar
    44    72    71    1
    45    72    73    2
    46    71    74    1
    47    75    77   ar
    48    75    74    1
    49    34    32   ar
    50    28    27    2
    51    57    58    1
    52    29    26    1
    53    26    27    1
    54    26    25    1
    55    27    37   am
    56    58    59    2
    57    23    21   ar
    58    23    24   ar
    59    37    38    1
    60    94    92    1
    61    38    39    1
    62    38    41    1
    63   101   103   ar
    64   101   100   ar
    65    91    90    2
    66    21    18   ar
    67    88    89    1
    68    42    41    1
    69    42    43    1
    70   103   104   ar
    71    39    40    2
    72    45    43   am
    73    24    22   ar
    74    98    97    2
    75    99   100    1
    76    99    96    1
    77   100   102   ar
    78    90    89    1
    79    90    95   am
    80    92    89    1
    81    92    93    1
    82    43    44    2
    83     8     7    2
    84    14    13    2
    85    18    16   ar
    86    18    20   ar
    87    97    96    1
    88    15    16    1
    89    15    12    1
    90   104   102   ar
    91    13    12    1
    92    96    95    1
    93    22    20   ar
    94    16    17   ar
    95    20    19   ar
    96     7    11   am
    97     7     6    1
    98    12    11    1
    99     9    10    1
   100     9     6    1
   101     6     5    1
   102    17    19   ar
   103     4     3    2
   104     5     3   am
   105     3     2    1
   106     2     1    1
