@<TRIPOS>MOLECULE
tmp/5gr8B03.pdb
 114 107 0 0 0
SMALL
GASTEIGER

@<TRIPOS>ATOM
      1  N         33.9970   23.1290   20.4790 N.3   486  ASN486     -0.1240
      2  CA        34.4330   22.0970   19.5500 C.3   486  ASN486      0.1653
      3  C         33.2950   21.3130   18.8740 C.2   486  ASN486      0.2266
      4  O         32.2110   21.1620   19.4390 O.2   486  ASN486     -0.2867
      5  CB        35.4500   21.1520   20.1980 C.3   486  ASN486      0.1155
      6  CG        34.8000   19.9650   20.8600 C.2   486  ASN486      0.2627
      7  OD1       34.3630   19.0370   20.1760 O.2   486  ASN486     -0.2716
      8  ND2       34.7700   19.9550   22.1920 N.am  486  ASN486     -0.0877
      9  N         38.8060   25.7280   23.5220 N.3   508  ASN508     -0.1240
     10  CA        38.6590   24.6560   22.5780 C.3   508  ASN508      0.1653
     11  C         37.7650   25.0900   21.4280 C.2   508  ASN508      0.2266
     12  O         36.5290   25.1540   21.5710 O.2   508  ASN508     -0.2867
     13  CB        38.0990   23.4300   23.2620 C.3   508  ASN508      0.1155
     14  CG        38.3560   22.1800   22.4770 C.2   508  ASN508      0.2627
     15  OD1       38.6720   22.2440   21.2920 O.2   508  ASN508     -0.2716
     16  ND2       38.2410   21.0430   23.1180 N.am  508  ASN508     -0.0877
     17  N         38.2040   23.4060   18.4690 N.3   510  SER510     -0.1202
     18  CA        38.5160   22.3140   17.5570 C.3   510  SER510      0.2020
     19  C         37.3070   21.8150   16.7500 C.2   510  SER510      0.2618
     20  O         36.1570   22.1400   17.0570 O.2   510  SER510     -0.2717
     21  CB        39.1900   21.1570   18.2910 C.3   510  SER510      0.2103
     22  OG        38.2270   20.3940   18.9840 O.3   510  SER510     -0.2182
     23  N         37.6110   21.1000   15.6640 N.am  511  ARG511     -0.1979
     24  CA        36.6190   20.5550   14.7230 C.3   511  ARG511      0.1597
     25  C         35.5720   21.5770   14.2580 C.2   511  ARG511      0.2287
     26  O         34.3740   21.3460   14.3720 O.2   511  ARG511     -0.2864
     27  CB        35.9270   19.3240   15.2980 C.3   511  ARG511      0.0334
     28  CG        36.8710   18.2930   15.8710 C.3   511  ARG511      0.0492
     29  CD        36.1650   16.9560   16.0450 C.3   511  ARG511      0.2205
     30  NE        35.9260   16.3510   14.7360 N.pl3 511  ARG511     -0.0865
     31  CZ        34.7330   16.1540   14.1830 C.cat 511  ARG511      0.5346
     32  NH1       33.6280   16.5420   14.8070 N.pl3 511  ARG511      0.1354
     33  NH2       34.6520   15.5850   12.9860 N.pl3 511  ARG511      0.1354
     34  N         45.1290   25.7790   28.2860 N.3   530  TYR530     -0.1241
     35  CA        44.7630   24.8100   27.2850 C.3   530  TYR530      0.1605
     36  C         44.3310   25.5270   26.0390 C.2   530  TYR530      0.2264
     37  O         43.4250   26.3620   26.0870 O.2   530  TYR530     -0.2867
     38  CB        43.6190   23.9770   27.8060 C.3   530  TYR530      0.0534
     39  CG        43.0990   22.8930   26.8960 C.ar  530  TYR530     -0.0201
     40  CD1       42.1560   23.1650   25.9210 C.ar  530  TYR530     -0.0009
     41  CD2       43.4950   21.5720   27.0710 C.ar  530  TYR530     -0.0009
     42  CE1       41.6400   22.1610   25.1270 C.ar  530  TYR530      0.0417
     43  CE2       42.9870   20.5570   26.2800 C.ar  530  TYR530      0.0417
     44  CZ        42.0570   20.8540   25.3140 C.ar  530  TYR530      0.1957
     45  OH        41.5470   19.8390   24.5340 O.3   530  TYR530     -0.2866
     46  N         43.2170   24.4220   22.1370 N.3   532  ASN532     -0.1240
     47  CA        42.9410   23.4820   21.0660 C.3   532  ASN532      0.1653
     48  C         42.3010   24.1960   19.8950 C.2   532  ASN532      0.2266
     49  O         41.1230   24.5780   19.9650 O.2   532  ASN532     -0.2867
     50  CB        42.0150   22.4000   21.5910 C.3   532  ASN532      0.1155
     51  CG        42.1810   21.0860   20.8740 C.2   532  ASN532      0.2627
     52  OD1       42.4620   21.0530   19.6640 O.2   532  ASN532     -0.2716
     53  ND2       42.0210   19.9810   21.6270 N.am  532  ASN532     -0.0877
     54  N         42.7280   22.5300   16.8610 N.3   534  SER534     -0.1202
     55  CA        42.8790   21.4680   15.8810 C.3   534  SER534      0.2020
     56  C         41.6330   21.2130   15.0070 C.2   534  SER534      0.2618
     57  O         40.5060   21.5620   15.3690 O.2   534  SER534     -0.2717
     58  CB        43.2950   20.1830   16.5600 C.3   534  SER534      0.2103
     59  OG        42.1630   19.5110   17.0490 O.3   534  SER534     -0.2182
     60  N         41.8630   20.6090   13.8410 N.am  535  ARG535     -0.1979
     61  CA        40.8110   20.3410   12.8620 C.3   535  ARG535      0.1597
     62  C         40.0070   21.5800   12.4530 C.2   535  ARG535      0.2287
     63  O         38.8060   21.6820   12.7020 O.2   535  ARG535     -0.2864
     64  CB        39.8920   19.2080   13.3130 C.3   535  ARG535      0.0334
     65  CG        40.3180   17.8730   12.7440 C.3   535  ARG535      0.0492
     66  CD        39.3760   16.7220   13.0720 C.3   535  ARG535      0.2205
     67  NE        40.1000   15.5790   13.6180 N.pl3 535  ARG535     -0.0865
     68  CZ        40.7290   14.6730   12.8720 C.cat 535  ARG535      0.5346
     69  NH1       40.7260   14.7780   11.5410 N.pl3 535  ARG535      0.1354
     70  NH2       41.3670   13.6670   13.4580 N.pl3 535  ARG535      0.1354
     71  N         48.6810   22.5220   27.4500 N.3   554  ARG554     -0.1231
     72  CA        48.4360   21.6820   26.3080 C.3   554  ARG554      0.1694
     73  C         48.2250   22.5770   25.1030 C.2   554  ARG554      0.2592
     74  O         47.4280   23.5080   25.1580 O.2   554  ARG554     -0.2718
     75  CB        47.2100   20.8140   26.5740 C.3   554  ARG554      0.0321
     76  CG        47.3740   19.9790   27.8080 C.3   554  ARG554      0.0489
     77  CD        46.1940   19.0820   28.0740 C.3   554  ARG554      0.2205
     78  NE        46.5400   17.6860   27.8740 N.pl3 554  ARG554     -0.0865
     79  CZ        47.1430   16.9320   28.7960 C.cat 554  ARG554      0.5346
     80  NH1       47.4620   17.4470   29.9830 N.pl3 554  ARG554      0.1354
     81  NH2       47.4280   15.6550   28.5340 N.pl3 554  ARG554      0.1354
     82  N         48.9680   22.3170   24.0300 N.am  555  PHE555     -0.1962
     83  CA        48.8480   23.1230   22.8260 C.3   555  PHE555      0.1771
     84  C         48.6430   22.2130   21.6300 C.2   555  PHE555      0.2619
     85  O         49.5140   21.4400   21.2460 O.2   555  PHE555     -0.2715
     86  CB        50.0890   23.9900   22.6550 C.3   555  PHE555      0.0574
     87  CG        50.0300   24.9120   21.4740 C.ar  555  PHE555     -0.0200
     88  CD1       49.3780   26.1430   21.5660 C.ar  555  PHE555     -0.0042
     89  CD2       50.6600   24.5790   20.2810 C.ar  555  PHE555     -0.0042
     90  CE1       49.3340   27.0090   20.4820 C.ar  555  PHE555     -0.0003
     91  CE2       50.6200   25.4550   19.1840 C.ar  555  PHE555     -0.0003
     92  CZ        49.9620   26.6630   19.2910 C.ar  555  PHE555     -0.0000
     93  N         47.4610   22.2920   21.0590 N.am  556  ASP556     -0.1971
     94  CA        47.1290   21.4400   19.9530 C.3   556  ASP556      0.1709
     95  C         46.5790   22.3010   18.8390 C.2   556  ASP556      0.2293
     96  O         45.4840   22.8550   18.9590 O.2   556  ASP556     -0.2864
     97  CB        46.0860   20.4240   20.4100 C.3   556  ASP556      0.1436
     98  CG        45.8040   19.3860   19.3730 C.2   556  ASP556      0.3671
     99  OD1       46.1680   19.6200   18.2130 O.co2 556  ASP556     -0.2456
    100  OD2       45.2310   18.3300   19.7220 O.co2 556  ASP556     -0.2456
    101  N         51.9540   18.8050   26.6820 N.3   578  THR578     -0.1218
    102  CA        51.4290   18.1920   25.4950 C.3   578  THR578      0.1862
    103  C         51.5960   19.1400   24.3370 C.2   578  THR578      0.2287
    104  O         51.0680   20.2560   24.3750 O.2   578  THR578     -0.2866
    105  CB        49.9380   17.9360   25.6610 C.3   578  THR578      0.1770
    106  OG1       49.7300   17.0670   26.7660 O.3   578  THR578     -0.2211
    107  CG2       49.3320   17.3090   24.4180 C.3   578  THR578      0.0375
    108  N         50.9330   19.1600   20.2370 N.3   580  VAL580     -0.1245
    109  CA        50.4150   18.4780   19.0630 C.3   580  VAL580      0.1561
    110  C         50.3590   19.4420   17.8940 C.2   580  VAL580      0.2260
    111  O         49.5300   20.3640   17.8730 O.2   580  VAL580     -0.2867
    112  CB        49.0020   17.9640   19.3220 C.3   580  VAL580      0.0252
    113  CG1       48.4210   17.3930   18.0530 C.3   580  VAL580      0.0019
    114  CG2       49.0020   16.9260   20.4600 C.3   580  VAL580      0.0019
@<TRIPOS>BOND
     1    69    68    1
     2    62    63    2
     3    62    61    1
     4    65    66    1
     5    65    64    1
     6    61    64    1
     7    61    60    1
     8    68    70    1
     9    68    67    2
    10    33    31    1
    11    66    67    1
    12    60    56   am
    13    31    30    2
    14    31    32    1
    15    25    26    2
    16    25    24    1
    17    24    27    1
    18    24    23    1
    19    30    29    1
    20    56    57    2
    21    56    55    1
    22    27    28    1
    23    23    19   am
    24    28    29    1
    25    55    58    1
    26    55    54    1
    27    58    59    1
    28    19    20    2
    29    19    18    1
    30    18    21    1
    31    18    17    1
    32   111   110    2
    33   110   109    1
    34   113   112    1
    35    99    98   ar
    36    21    22    1
    37    95    96    2
    38    95    94    1
    39     3     4    2
    40     3     2    1
    41   109   112    1
    42   109   108    1
    43    91    92   ar
    44    91    89   ar
    45    92    90   ar
    46   112   114    1
    47    98   100   ar
    48    98    97    1
    49     2     5    1
    50     2     1    1
    51    52    51    2
    52    48    49    2
    53    48    47    1
    54    94    97    1
    55    94    93    1
    56     7     6    2
    57     5     6    1
    58    89    87   ar
    59    90    88   ar
    60     6     8   am
    61    51    50    1
    62    51    53   am
    63    93    84   am
    64    47    50    1
    65    47    46    1
    66    85    84    2
    67    15    14    2
    68    11    12    2
    69    11    10    1
    70    87    88   ar
    71    87    86    1
    72    84    83    1
    73    14    16   am
    74    14    13    1
    75    10    13    1
    76    10     9    1
    77    86    83    1
    78    83    82    1
    79    82    73   am
    80   103   104    2
    81   103   102    1
    82   107   105    1
    83    45    44    1
    84    73    74    2
    85    73    72    1
    86    42    44   ar
    87    42    40   ar
    88    44    43   ar
    89   102   105    1
    90   102   101    1
    91   105   106    1
    92    40    39   ar
    93    36    37    2
    94    36    35    1
    95    43    41   ar
    96    72    75    1
    97    72    71    1
    98    75    76    1
    99    39    41   ar
   100    39    38    1
   101    35    38    1
   102    35    34    1
   103    76    77    1
   104    78    77    1
   105    78    79    2
   106    81    79    1
   107    79    80    1
