@<TRIPOS>MOLECULE
tmp/5grbB00.pdb
 103 99 0 0 0
SMALL
GASTEIGER

@<TRIPOS>ATOM
      1  N        -59.2070   -7.9280  -59.8550 N.3    13  GLY13      -0.1210
      2  CA       -57.8500   -7.8740  -59.3420 C.3    13  GLY13       0.1956
      3  C        -57.4500   -9.1870  -58.7110 C.2    13  GLY13       0.2613
      4  O        -58.2590  -10.1020  -58.5490 O.2    13  GLY13      -0.2717
      5  N        -56.1820   -9.2650  -58.3610 N.am   14  SER14      -0.1938
      6  CA       -55.6460  -10.4430  -57.7120 C.3    14  SER14       0.2040
      7  C        -55.9140  -10.3770  -56.2110 C.2    14  SER14       0.2485
      8  O        -56.1910   -9.3070  -55.6640 O.2    14  SER14      -0.2729
      9  CB       -54.1510  -10.5570  -58.0020 C.3    14  SER14       0.2129
     10  OG       -53.4270   -9.4700  -57.4490 O.3    14  SER14      -0.2179
     11  N        -55.8690  -11.5170  -55.5230 N.am   15  PRO15      -0.2715
     12  CA       -56.2230  -11.5270  -54.0990 C.3    15  PRO15       0.1536
     13  C        -55.2520  -10.6950  -53.2790 C.2    15  PRO15       0.2599
     14  O        -54.0400  -10.8010  -53.4350 O.2    15  PRO15      -0.2715
     15  CB       -56.1470  -13.0130  -53.7290 C.3    15  PRO15       0.0310
     16  CG       -55.2160  -13.5990  -54.7290 C.3    15  PRO15       0.0237
     17  CD       -55.5100  -12.8640  -56.0030 C.3    15  PRO15       0.0939
     18  N        -55.7950   -9.8630  -52.4040 N.am   16  GLY16      -0.1941
     19  CA       -54.9840   -9.0200  -51.5570 C.3    16  GLY16       0.2014
     20  C        -54.6620   -7.6570  -52.1230 C.2    16  GLY16       0.2640
     21  O        -53.9560   -6.8840  -51.4610 O.2    16  GLY16      -0.2714
     22  N        -55.1610   -7.3320  -53.3190 N.am   17  THR17      -0.1936
     23  CA       -54.9650   -6.0140  -53.9090 C.3    17  THR17       0.2028
     24  C        -55.9860   -4.9900  -53.4340 C.2    17  THR17       0.2643
     25  O        -56.0010   -3.8670  -53.9470 O.2    17  THR17      -0.2714
     26  CB       -54.9680   -6.0870  -55.4370 C.3    17  THR17       0.1808
     27  OG1      -56.1570   -6.7260  -55.8970 O.3    17  THR17      -0.2208
     28  CG2      -53.7380   -6.8380  -55.9330 C.3    17  THR17       0.0379
     29  N        -56.8340   -5.3460  -52.4730 N.am   18  GLY18      -0.1939
     30  CA       -57.7230   -4.3770  -51.8690 C.3    18  GLY18       0.2014
     31  C        -59.0850   -4.2330  -52.5030 C.2    18  GLY18       0.2639
     32  O        -59.6750   -3.1510  -52.4350 O.2    18  GLY18      -0.2714
     33  N        -59.6180   -5.2940  -53.1070 N.am   19  LYS19      -0.1963
     34  CA       -60.8970   -5.1660  -53.7930 C.3    19  LYS19       0.1728
     35  C        -62.0660   -5.0540  -52.8220 C.2    19  LYS19       0.2617
     36  O        -63.0680   -4.4050  -53.1340 O.2    19  LYS19      -0.2715
     37  CB       -61.1130   -6.3550  -54.7110 C.3    19  LYS19       0.0311
     38  CG       -60.1070   -6.4780  -55.8220 C.3    19  LYS19       0.0038
     39  CD       -60.6320   -7.4910  -56.7840 C.3    19  LYS19       0.0206
     40  CE       -60.7820   -8.7990  -56.0670 C.3    19  LYS19       0.1093
     41  NZ       -61.3650   -9.7780  -56.9780 N.3    19  LYS19      -0.1314
     42  N        -61.9700   -5.6910  -51.6560 N.am   20  SER20      -0.1936
     43  CA       -63.0830   -5.6620  -50.7110 C.3    20  SER20       0.2055
     44  C        -63.2100   -4.2970  -50.0470 C.2    20  SER20       0.2642
     45  O        -64.3150   -3.8840  -49.6780 O.2    20  SER20      -0.2714
     46  CB       -62.9050   -6.7630  -49.6590 C.3    20  SER20       0.2130
     47  OG       -62.9150   -8.0600  -50.2550 O.3    20  SER20      -0.2179
     48  N        -62.0920   -3.5840  -49.8940 N.am   21  LEU21      -0.1977
     49  CA       -62.1290   -2.2090  -49.4080 C.3    21  LEU21       0.1596
     50  C        -62.6520   -1.2590  -50.4700 C.2    21  LEU21       0.2287
     51  O        -63.3430   -0.2890  -50.1530 O.2    21  LEU21      -0.2864
     52  CB       -60.7350   -1.7620  -48.9650 C.3    21  LEU21       0.0297
     53  CG       -60.1370   -2.2080  -47.6390 C.3    21  LEU21       0.0022
     54  CD1      -58.6720   -1.8830  -47.6300 C.3    21  LEU21       0.0001
     55  CD2      -60.8070   -1.4470  -46.5180 C.3    21  LEU21       0.0001
     56  N        -66.6170  -11.1310  -54.5750 N.3    61  ASP61      -0.1239
     57  CA       -66.1840  -12.4110  -55.1210 C.3    61  ASP61       0.1674
     58  C        -67.1950  -12.9380  -56.1370 C.2    61  ASP61       0.2266
     59  O        -67.4350  -14.1420  -56.2390 O.2    61  ASP61      -0.2867
     60  CB       -65.9380  -13.4040  -53.9890 C.3    61  ASP61       0.1410
     61  CG       -64.8700  -12.9100  -53.0250 C.2    61  ASP61       0.3668
     62  OD1      -64.1260  -11.9660  -53.3880 O.co2  61  ASP61      -0.2456
     63  OD2      -64.7820  -13.4450  -51.9020 O.co2  61  ASP61      -0.2456
     64  N        -67.5740  -16.5360  -58.4420 N.3    64  GLN64      -0.1245
     65  CA       -66.6670  -17.6040  -58.0810 C.3    64  GLN64       0.1566
     66  C        -67.0500  -18.8190  -58.9100 C.2    64  GLN64       0.2260
     67  O        -68.2270  -19.1760  -59.0160 O.2    64  GLN64      -0.2867
     68  CB       -66.7330  -17.9080  -56.5820 C.3    64  GLN64       0.0367
     69  CG       -68.0340  -18.5240  -56.1130 C.3    64  GLN64       0.0905
     70  CD       -68.0100  -18.8650  -54.6420 C.2    64  GLN64       0.2608
     71  OE1      -67.3120  -18.2260  -53.8540 O.2    64  GLN64      -0.2717
     72  NE2      -68.7260  -19.9190  -54.2730 N.am   64  GLN64      -0.0878
     73  N        -64.2390   -9.4690  -58.7470 N.3   106  THR106     -0.1203
     74  CA       -63.9390  -10.8390  -59.1690 C.3   106  THR106      0.1994
     75  C        -62.4330  -10.9860  -59.3440 C.2   106  THR106      0.2618
     76  O        -61.6850  -10.0170  -59.1890 O.2   106  THR106     -0.2717
     77  CB       -64.6750  -11.1840  -60.4650 C.3   106  THR106      0.1784
     78  OG1      -64.4090  -12.5460  -60.8200 O.3   106  THR106     -0.2211
     79  CG2      -64.2310  -10.2820  -61.5850 C.3   106  THR106      0.0376
     80  N        -61.9730  -12.1990  -59.6790 N.am  107  ASN107     -0.1960
     81  CA       -60.5380  -12.3490  -59.9180 C.3   107  ASN107      0.1819
     82  C        -60.1430  -11.6790  -61.2300 C.2   107  ASN107      0.2621
     83  O        -60.9510  -11.0660  -61.9320 O.2   107  ASN107     -0.2715
     84  CB       -60.0850  -13.8050  -59.9460 C.3   107  ASN107      0.1195
     85  CG       -60.6730  -14.5800  -61.0930 C.2   107  ASN107      0.2630
     86  OD1      -61.8630  -14.4610  -61.3980 O.2   107  ASN107     -0.2716
     87  ND2      -59.8030  -15.2480  -61.8420 N.am  107  ASN107     -0.0877
     88  N        -58.8650  -11.8270  -61.5810 N.am  108  ALA108     -0.1977
     89  CA       -58.2470  -10.9000  -62.5160 C.3   108  ALA108      0.1597
     90  C        -58.6920  -11.1120  -63.9570 C.2   108  ALA108      0.2287
     91  O        -59.3980  -10.2710  -64.5020 O.2   108  ALA108     -0.2864
     92  CB       -56.7120  -10.9870  -62.4280 C.3   108  ALA108      0.0319
     93  N        -49.1710   -7.6000  -52.5410 N.3   144  ARG144     -0.1245
     94  CA       -50.4350   -7.3000  -51.9000 C.3   144  ARG144      0.1563
     95  C        -50.4720   -5.8340  -51.4690 C.2   144  ARG144      0.2260
     96  O        -49.4430   -5.1760  -51.3150 O.2   144  ARG144     -0.2867
     97  CB       -50.6320   -8.2060  -50.6860 C.3   144  ARG144      0.0307
     98  CG       -50.4470   -9.6740  -50.9880 C.3   144  ARG144      0.0489
     99  CD       -51.4420  -10.1420  -52.0210 C.3   144  ARG144      0.2205
    100  NE       -51.3460  -11.5750  -52.2880 N.pl3 144  ARG144     -0.0865
    101  CZ       -51.9790  -12.5040  -51.5790 C.cat 144  ARG144      0.5346
    102  NH1      -52.7560  -12.1430  -50.5640 N.pl3 144  ARG144      0.1354
    103  NH2      -51.8390  -13.7890  -51.8830 N.pl3 144  ARG144      0.1354
@<TRIPOS>BOND
     1    91    90    2
     2    90    89    1
     3    89    92    1
     4    89    88    1
     5    83    82    2
     6    87    85   am
     7    79    77    1
     8    88    82   am
     9    86    85    2
    10    82    81    1
    11    85    84    1
    12    78    77    1
    13    77    74    1
    14    84    81    1
    15    81    80    1
    16     1     2    1
    17    80    75   am
    18    75    76    2
    19    75    74    1
    20     2     3    1
    21    74    73    1
    22    67    66    2
    23    66    65    1
    24     3     4    2
    25     3     5   am
    26    64    65    1
    27     5     6    1
    28    65    68    1
    29     9     6    1
    30     9    10    1
    31     6     7    1
    32    41    40    1
    33    39    40    1
    34    39    38    1
    35    68    69    1
    36    59    58    2
    37     7     8    2
    38     7    11   am
    39    58    57    1
    40    69    70    1
    41    17    11    1
    42    17    16    1
    43    28    26    1
    44    27    26    1
    45    38    37    1
    46    11    12    1
    47    26    23    1
    48    57    56    1
    49    57    60    1
    50    16    15    1
    51    37    34    1
    52    70    72   am
    53    70    71    2
    54    12    15    1
    55    12    13    1
    56    60    61    1
    57    25    24    2
    58    23    24    1
    59    23    22    1
    60    34    33    1
    61    34    35    1
    62    14    13    2
    63    24    29   am
    64    62    61   ar
    65    22    20   am
    66    13    18   am
    67    36    35    2
    68    33    31   am
    69    61    63   ar
    70    35    42   am
    71    93    94    1
    72    31    32    2
    73    31    30    1
    74    29    30    1
    75    18    19    1
    76   100    99    1
    77   100   101    2
    78    20    19    1
    79    20    21    2
    80    99    98    1
    81    94    95    1
    82    94    97    1
    83   103   101    1
    84    42    43    1
    85   101   102    1
    86    95    96    2
    87    98    97    1
    88    43    44    1
    89    43    46    1
    90    50    51    2
    91    50    49    1
    92    47    46    1
    93    44    48   am
    94    44    45    2
    95    48    49    1
    96    49    52    1
    97    52    53    1
    98    53    54    1
    99    53    55    1
