@<TRIPOS>MOLECULE
tmp/5grfB01.pdb
 138 129 0 0 0
SMALL
GASTEIGER

@<TRIPOS>ATOM
      1  N         45.8780  -20.3480    8.0180 N.3    12  ILE12      -0.1245
      2  CA        46.8800  -21.2660    8.5860 C.3    12  ILE12       0.1561
      3  C         48.3200  -20.7270    8.6310 C.2    12  ILE12       0.2260
      4  O         49.2060  -21.3840    9.1720 O.2    12  ILE12      -0.2867
      5  CB        46.8920  -22.6200    7.8240 C.3    12  ILE12       0.0252
      6  CG1       47.1770  -22.4250    6.3190 C.3    12  ILE12       0.0019
      7  CG2       45.5690  -23.3380    8.0390 C.3    12  ILE12       0.0019
      8  CD1       47.6220  -23.6600    5.5780 C.3    12  ILE12       0.0001
      9  N         51.5480  -22.1490   11.1060 N.3    16  LEU16      -0.1245
     10  CA        52.6540  -22.8420   10.4380 C.3    16  LEU16       0.1561
     11  C         53.9810  -22.0990   10.5350 C.2    16  LEU16       0.2260
     12  O         55.0300  -22.7360   10.5830 O.2    16  LEU16      -0.2867
     13  CB        52.3150  -23.1580    8.9890 C.3    16  LEU16       0.0270
     14  CG        51.0910  -24.0590    8.7910 C.3    16  LEU16       0.0019
     15  CD1       50.9010  -24.2970    7.3080 C.3    16  LEU16       0.0001
     16  CD2       51.2060  -25.3890    9.5210 C.3    16  LEU16       0.0001
     17  N         49.7810  -16.6080    3.0590 N.3    64  ASN64      -0.1240
     18  CA        48.9050  -15.9990    2.0980 C.3    64  ASN64       0.1653
     19  C         47.9650  -15.0220    2.7690 C.2    64  ASN64       0.2266
     20  O         47.4010  -15.3210    3.8140 O.2    64  ASN64      -0.2867
     21  CB        48.0990  -17.0570    1.3480 C.3    64  ASN64       0.1155
     22  CG        47.4580  -16.4970    0.0980 C.2    64  ASN64       0.2627
     23  OD1       46.2400  -16.2990    0.0320 O.2    64  ASN64      -0.2716
     24  ND2       48.2900  -16.1920   -0.8950 N.am   64  ASN64      -0.0877
     25  N         44.4660  -12.9940    2.6360 N.3    66  GLU66      -0.1245
     26  CA        43.1730  -13.2410    2.0270 C.3    66  GLU66       0.1567
     27  C         42.6860  -11.9670    1.3430 C.2    66  GLU66       0.2260
     28  O         42.8810  -10.8600    1.8600 O.2    66  GLU66      -0.2867
     29  CB        42.1590  -13.8040    3.0390 C.3    66  GLU66       0.0388
     30  CG        41.2420  -12.8220    3.7630 C.3    66  GLU66       0.1160
     31  CD        39.8880  -13.4350    4.0710 C.2    66  GLU66       0.3649
     32  OE1       39.5310  -13.5240    5.2630 O.co2  66  GLU66      -0.2457
     33  OE2       39.1890  -13.8430    3.1160 O.co2  66  GLU66      -0.2457
     34  N         47.1980  -29.1000   -1.8540 N.3   238  PRO238     -0.2102
     35  CA        47.8470  -27.8560   -1.4480 C.3   238  PRO238      0.1504
     36  C         48.7490  -27.9590   -0.2150 C.2   238  PRO238      0.2576
     37  O         49.5210  -27.0320    0.0610 O.2   238  PRO238     -0.2718
     38  CB        46.6650  -26.9340   -1.1480 C.3   238  PRO238      0.0282
     39  CG        45.5740  -27.8530   -0.7170 C.3   238  PRO238      0.0208
     40  CD        45.7740  -29.1300   -1.4720 C.3   238  PRO238      0.0893
     41  N         48.6470  -29.0620    0.5200 N.am  239  GLY239     -0.1957
     42  CA        49.4440  -29.2580    1.7180 C.3   239  GLY239      0.1869
     43  C         50.8940  -29.6060    1.4680 C.2   239  GLY239      0.2309
     44  O         51.6930  -29.5310    2.3950 O.2   239  GLY239     -0.2863
     45  N         53.6160  -21.2080    0.0070 N.3   255  THR255     -0.1218
     46  CA        52.9990  -22.4430   -0.4710 C.3   255  THR255      0.1862
     47  C         52.5490  -22.2290   -1.9080 C.2   255  THR255      0.2287
     48  O         52.1130  -21.1260   -2.2750 O.2   255  THR255     -0.2866
     49  CB        51.7970  -22.8740    0.3920 C.3   255  THR255      0.1770
     50  OG1       50.7830  -21.8780    0.3430 O.3   255  THR255     -0.2211
     51  CG2       52.2110  -23.0800    1.8320 C.3   255  THR255      0.0375
     52  N         48.9470  -20.9740   -2.8440 N.3   258  ARG258     -0.1231
     53  CA        48.6050  -19.6600   -2.2850 C.3   258  ARG258      0.1694
     54  C         47.2460  -19.6410   -1.5720 C.2   258  ARG258      0.2592
     55  O         46.4190  -18.7410   -1.7560 O.2   258  ARG258     -0.2718
     56  CB        48.6610  -18.5880   -3.3780 C.3   258  ARG258      0.0321
     57  CG        50.0370  -18.4220   -3.9810 C.3   258  ARG258      0.0489
     58  CD        49.9420  -17.6740   -5.2910 C.3   258  ARG258      0.2205
     59  NE        51.2380  -17.1960   -5.7480 N.pl3 258  ARG258     -0.0865
     60  CZ        51.4420  -16.5250   -6.8750 C.cat 258  ARG258      0.5346
     61  NH1       50.4360  -16.2680   -7.7020 N.pl3 258  ARG258      0.1354
     62  NH2       52.6740  -16.1220   -7.1880 N.pl3 258  ARG258      0.1354
     63  N         47.0440  -20.6380   -0.7260 N.am  259  ASN259     -0.1960
     64  CA        45.7940  -20.7790   -0.0030 C.3   259  ASN259      0.1819
     65  C         45.9440  -20.3100    1.4150 C.2   259  ASN259      0.2622
     66  O         46.9420  -20.6080    2.0640 O.2   259  ASN259     -0.2715
     67  CB        45.3490  -22.2340   -0.0190 C.3   259  ASN259      0.1195
     68  CG        45.1020  -22.7460   -1.4190 C.2   259  ASN259      0.2630
     69  OD1       45.6160  -23.7960   -1.7920 O.2   259  ASN259     -0.2716
     70  ND2       44.3030  -22.0150   -2.2040 N.am  259  ASN259     -0.0877
     71  N         44.9290  -19.6030    1.8990 N.am  260  THR260     -0.1937
     72  CA        44.9260  -19.0790    3.2530 C.3   260  THR260      0.2028
     73  C         44.6110  -20.2150    4.2260 C.2   260  THR260      0.2643
     74  O         45.2130  -20.3050    5.2830 O.2   260  THR260     -0.2714
     75  CB        43.9130  -17.9340    3.4160 C.3   260  THR260      0.1808
     76  OG1       42.5970  -18.4320    3.2120 O.3   260  THR260     -0.2208
     77  CG2       44.1770  -16.8290    2.3970 C.3   260  THR260      0.0379
     78  N         43.6830  -21.0860    3.8400 N.am  261  GLY261     -0.1939
     79  CA        43.2520  -22.1970    4.6720 C.3   261  GLY261      0.2014
     80  C         42.4120  -21.7690    5.8550 C.2   261  GLY261      0.2639
     81  O         42.5410  -22.3530    6.9270 O.2   261  GLY261     -0.2714
     82  N         41.5280  -20.7850    5.6570 N.am  262  LYS262     -0.1963
     83  CA        40.7220  -20.2120    6.7650 C.3   262  LYS262      0.1728
     84  C         39.8680  -21.2770    7.4640 C.2   262  LYS262      0.2617
     85  O         39.7500  -21.2750    8.6900 O.2   262  LYS262     -0.2715
     86  CB        39.7680  -19.0910    6.3110 C.3   262  LYS262      0.0311
     87  CG        40.3500  -17.9630    5.4680 C.3   262  LYS262      0.0038
     88  CD        39.2810  -17.1830    4.6870 C.3   262  LYS262      0.0206
     89  CE        38.4850  -18.0050    3.6560 C.3   262  LYS262      0.1093
     90  NZ        39.2820  -18.7240    2.6150 N.3   262  LYS262     -0.1314
     91  N         39.2740  -22.1660    6.6700 N.am  263  SER263     -0.1936
     92  CA        38.3560  -23.2030    7.1720 C.3   263  SER263      0.2055
     93  C         39.0240  -24.1920    8.1200 C.2   263  SER263      0.2642
     94  O         38.3760  -24.6910    9.0340 O.2   263  SER263     -0.2714
     95  CB        37.7350  -23.9790    6.0080 C.3   263  SER263      0.2130
     96  OG        38.7450  -24.6120    5.2350 O.3   263  SER263     -0.2179
     97  N         40.3110  -24.4670    7.9090 N.am  264  ILE264     -0.1977
     98  CA        41.0330  -25.4390    8.7400 C.3   264  ILE264      0.1596
     99  C         41.9670  -24.8220    9.7710 C.2   264  ILE264      0.2287
    100  O         42.6380  -25.5540   10.4960 O.2   264  ILE264     -0.2864
    101  CB        41.8170  -26.4620    7.8850 C.3   264  ILE264      0.0276
    102  CG1       42.8950  -25.7810    7.0360 C.3   264  ILE264      0.0022
    103  CG2       40.8480  -27.2490    7.0100 C.3   264  ILE264      0.0022
    104  CD1       43.9530  -26.7420    6.5410 C.3   264  ILE264      0.0001
    105  N         45.3890  -29.3290   12.4030 N.3   269  ILE269     -0.1231
    106  CA        45.3150  -30.3220   11.3190 C.3   269  ILE269      0.1692
    107  C         46.0000  -29.9190   10.0090 C.2   269  ILE269      0.2592
    108  O         46.1850  -30.7690    9.1310 O.2   269  ILE269     -0.2718
    109  CB        43.8620  -30.7600   11.0170 C.3   269  ILE269      0.0266
    110  CG1       42.9540  -29.5380   10.8680 C.3   269  ILE269      0.0019
    111  CG2       43.3790  -31.7210   12.1010 C.3   269  ILE269      0.0020
    112  CD1       41.7870  -29.7600    9.9360 C.3   269  ILE269      0.0001
    113  N         46.3870  -28.6540    9.8720 N.am  270  ALA270     -0.1966
    114  CA        47.0490  -28.1920    8.6540 C.3   270  ALA270      0.1728
    115  C         48.3080  -29.0070    8.3790 C.2   270  ALA270      0.2616
    116  O         49.0500  -29.3600    9.2990 O.2   270  ALA270     -0.2715
    117  CB        47.3900  -26.7230    8.7590 C.3   270  ALA270      0.0334
    118  N         48.4810  -29.3890    7.1250 N.am  271  ASN271     -0.1972
    119  CA        49.6870  -30.0700    6.6720 C.3   271  ASN271      0.1688
    120  C         50.8140  -29.0370    6.6530 C.2   271  ASN271      0.2292
    121  O         50.6610  -27.9820    6.0230 O.2   271  ASN271     -0.2864
    122  CB        49.4480  -30.6220    5.2790 C.3   271  ASN271      0.1181
    123  CG        50.5270  -31.5810    4.8240 C.2   271  ASN271      0.2629
    124  OD1       51.6680  -31.5480    5.2920 O.2   271  ASN271     -0.2716
    125  ND2       50.1750  -32.4250    3.8690 N.am  271  ASN271     -0.0877
    126  N         54.1610  -28.2100    2.8740 N.3   274  ALA274     -0.1245
    127  CA        54.3560  -27.2000    1.8380 C.3   274  ALA274      0.1562
    128  C         55.1670  -26.0350    2.3690 C.2   274  ALA274      0.2260
    129  O         56.0880  -25.5510    1.7100 O.2   274  ALA274     -0.2867
    130  CB        53.0270  -26.7020    1.3030 C.3   274  ALA274      0.0290
    131  N         44.1530  -33.8210    4.9590 N.3   312  ASP312     -0.1239
    132  CA        44.2170  -33.4460    3.5200 C.3   312  ASP312      0.1674
    133  C         44.8160  -34.5080    2.5890 C.2   312  ASP312      0.2266
    134  O         44.5630  -34.4840    1.3910 O.2   312  ASP312     -0.2867
    135  CB        44.9760  -32.1390    3.3320 C.3   312  ASP312      0.1410
    136  CG        46.3880  -32.1910    3.9060 C.2   312  ASP312      0.3668
    137  OD1       46.5200  -32.4740    5.1180 O.co2 312  ASP312     -0.2456
    138  OD2       47.3610  -31.9610    3.1540 O.co2 312  ASP312     -0.2456
@<TRIPOS>BOND
     1    61    60    1
     2    62    60    1
     3    60    59    2
     4    59    58    1
     5    58    57    1
     6    57    56    1
     7    56    53    1
     8    52    53    1
     9    53    54    1
    10    48    47    2
    11    70    68   am
    12    47    46    1
    13    34    40    1
    14    34    35    1
    15    69    68    2
    16    55    54    2
    17    54    63   am
    18    40    39    1
    19    35    38    1
    20    35    36    1
    21    68    67    1
    22    38    39    1
    23    24    22   am
    24    63    64    1
    25    46    45    1
    26    46    49    1
    27    36    37    2
    28    36    41   am
    29    67    64    1
    30    64    65    1
    31    23    22    2
    32    22    21    1
    33    50    49    1
    34    49    51    1
    35    41    42    1
    36   130   127    1
    37    27    28    2
    38    27    26    1
    39    21    18    1
    40   134   133    2
    41    65    71   am
    42    65    66    2
    43    43    42    1
    44    43    44    2
    45   129   128    2
    46   127   128    1
    47   127   126    1
    48    71    72    1
    49    26    25    1
    50    26    29    1
    51    18    19    1
    52    18    17    1
    53    77    75    1
    54   133   132    1
    55    90    89    1
    56    19    20    2
    57    29    30    1
    58    33    31   ar
    59   138   136   ar
    60    76    75    1
    61    72    75    1
    62    72    73    1
    63   135   132    1
    64   135   136    1
    65   132   131    1
    66    89    88    1
    67    30    31    1
    68    78    73   am
    69    78    79    1
    70   125   123   am
    71   136   137   ar
    72    31    32   ar
    73    73    74    2
    74    79    80    1
    75    88    87    1
    76   123   122    1
    77   123   124    2
    78    96    95    1
    79   122   119    1
    80    87    86    1
    81     8     6    1
    82    82    80   am
    83    82    83    1
    84    80    81    2
    85    95    92    1
    86   121   120    2
    87    86    83    1
    88     6     5    1
    89   104   102    1
    90   120   119    1
    91    91    92    1
    92    91    84   am
    93   119   118    1
    94    83    84    1
    95   103   101    1
    96   102   101    1
    97   118   115   am
    98    92    93    1
    99    15    14    1
   100    84    85    2
   101     5     7    1
   102     5     2    1
   103   101    98    1
   104    97    93   am
   105    97    98    1
   106     1     2    1
   107    93    94    2
   108   115   114    1
   109   115   116    2
   110     2     3    1
   111     3     4    2
   112   114   117    1
   113   114   113    1
   114    98    99    1
   115    14    13    1
   116    14    16    1
   117    13    10    1
   118   108   107    2
   119    99   100    2
   120   113   107   am
   121   112   110    1
   122   107   106    1
   123    10    11    1
   124    10     9    1
   125    11    12    2
   126   110   109    1
   127   109   106    1
   128   109   111    1
   129   106   105    1
