@<TRIPOS>MOLECULE
tmp/5grfB00.pdb
 106 97 0 0 0
SMALL
GASTEIGER

@<TRIPOS>ATOM
      1  N         49.7810  -16.6080    3.0590 N.3    64  ASN64      -0.1240
      2  CA        48.9050  -15.9990    2.0980 C.3    64  ASN64       0.1653
      3  C         47.9650  -15.0220    2.7690 C.2    64  ASN64       0.2266
      4  O         47.4010  -15.3210    3.8140 O.2    64  ASN64      -0.2867
      5  CB        48.0990  -17.0570    1.3480 C.3    64  ASN64       0.1155
      6  CG        47.4580  -16.4970    0.0980 C.2    64  ASN64       0.2627
      7  OD1       46.2400  -16.2990    0.0320 O.2    64  ASN64      -0.2716
      8  ND2       48.2900  -16.1920   -0.8950 N.am   64  ASN64      -0.0877
      9  N         42.0850  -12.1510    0.1680 N.3    67  THR67      -0.1218
     10  CA        41.4890  -11.0820   -0.6140 C.3    67  THR67       0.1862
     11  C         39.9830  -11.1830   -0.4420 C.2    67  THR67       0.2287
     12  O         39.3800  -12.1850   -0.8020 O.2    67  THR67      -0.2866
     13  CB        41.8310  -11.2230   -2.1030 C.3    67  THR67       0.1770
     14  OG1       43.2550  -11.2590   -2.2710 O.3    67  THR67      -0.2211
     15  CG2       41.2510  -10.0570   -2.9110 C.3    67  THR67       0.0375
     16  N         44.0990   -7.0930   -4.3870 N.3    77  SER77      -0.1217
     17  CA        44.8580   -8.1350   -3.6980 C.3    77  SER77       0.1889
     18  C         46.2240   -7.6430   -3.1860 C.2    77  SER77       0.2288
     19  O         47.0700   -7.1990   -3.9630 O.2    77  SER77      -0.2866
     20  CB        45.0920   -9.3010   -4.6560 C.3    77  SER77       0.2089
     21  OG        45.9330  -10.2740   -4.0880 O.3    77  SER77      -0.2183
     22  N         48.4610   -9.6570   -2.0480 N.3    79  ASN79      -0.1225
     23  CA        49.4750  -10.6120   -2.5020 C.3    79  ASN79       0.1785
     24  C         50.0460  -10.1590   -3.8250 C.2    79  ASN79       0.2597
     25  O         51.2490  -10.1950   -4.0480 O.2    79  ASN79      -0.2718
     26  CB        48.8870  -11.9890   -2.7010 C.3    79  ASN79       0.1169
     27  CG        48.3550  -12.5830   -1.4230 C.2    79  ASN79       0.2627
     28  OD1       49.0500  -12.6180   -0.4130 O.2    79  ASN79      -0.2716
     29  ND2       47.1260  -13.0670   -1.4600 N.am   79  ASN79      -0.0877
     30  N         49.1470   -9.7450   -4.7030 N.am   80  ASN80      -0.1974
     31  CA        49.5170   -9.3400   -6.0310 C.3    80  ASN80       0.1688
     32  C         50.2600   -8.0010   -6.0250 C.2    80  ASN80       0.2292
     33  O         51.2200   -7.8480   -6.7590 O.2    80  ASN80      -0.2864
     34  CB        48.2770   -9.3050   -6.9290 C.3    80  ASN80       0.1181
     35  CG        48.6210   -9.1200   -8.3880 C.2    80  ASN80       0.2629
     36  OD1       49.6600   -9.5790   -8.8520 O.2    80  ASN80      -0.2716
     37  ND2       47.7510   -8.4520   -9.1240 N.am   80  ASN80      -0.0877
     38  N         53.9120   -8.8990   -4.9310 N.3    83  ARG83      -0.1245
     39  CA        54.7570   -9.5670   -5.9100 C.3    83  ARG83       0.1563
     40  C         55.0630   -8.6890   -7.1460 C.2    83  ARG83       0.2260
     41  O         56.1730   -8.7420   -7.6710 O.2    83  ARG83      -0.2867
     42  CB        54.1880  -10.9630   -6.2580 C.3    83  ARG83       0.0307
     43  CG        53.0190  -11.0030   -7.2250 C.3    83  ARG83       0.0489
     44  CD        52.6430  -12.4410   -7.5660 C.3    83  ARG83       0.2205
     45  NE        51.6940  -12.9760   -6.5960 N.pl3  83  ARG83      -0.0865
     46  CZ        50.3810  -13.1130   -6.7800 C.cat  83  ARG83       0.5346
     47  NH1       49.7810  -12.7880   -7.9290 N.pl3  83  ARG83       0.1354
     48  NH2       49.6550  -13.6040   -5.7880 N.pl3  83  ARG83       0.1354
     49  N         56.0950  -19.7130  -14.1540 N.3   114  ARG114     -0.1245
     50  CA        54.9520  -18.8930  -14.4950 C.3   114  ARG114      0.1563
     51  C         55.3080  -17.4220  -14.3850 C.2   114  ARG114      0.2260
     52  O         55.7980  -16.9730  -13.3470 O.2   114  ARG114     -0.2867
     53  CB        53.8110  -19.2600  -13.5670 C.3   114  ARG114      0.0307
     54  CG        52.6620  -18.2850  -13.5170 C.3   114  ARG114      0.0489
     55  CD        51.8720  -18.5430  -12.2570 C.3   114  ARG114      0.2205
     56  NE        50.7120  -17.6730  -12.1270 N.pl3 114  ARG114     -0.0865
     57  CZ        49.9310  -17.6310  -11.0430 C.cat 114  ARG114      0.5346
     58  NH1       50.1950  -18.3890   -9.9870 N.pl3 114  ARG114      0.1354
     59  NH2       48.8840  -16.8110  -11.0020 N.pl3 114  ARG114      0.1354
     60  N         46.2010   -9.9040  -14.1130 N.3   121  TYR121     -0.1241
     61  CA        46.6740   -9.4380  -12.8060 C.3   121  TYR121      0.1605
     62  C         47.0570   -7.9620  -12.7150 C.2   121  TYR121      0.2264
     63  O         46.9960   -7.3690  -11.6360 O.2   121  TYR121     -0.2867
     64  CB        47.8580  -10.3120  -12.3790 C.3   121  TYR121      0.0534
     65  CG        47.3880  -11.7020  -11.9880 C.ar  121  TYR121     -0.0201
     66  CD1       47.1740  -12.6760  -12.9500 C.ar  121  TYR121     -0.0009
     67  CD2       47.1220  -12.0290  -10.6650 C.ar  121  TYR121     -0.0009
     68  CE1       46.7280  -13.9330  -12.6140 C.ar  121  TYR121      0.0417
     69  CE2       46.6610  -13.2950  -10.3180 C.ar  121  TYR121      0.0417
     70  CZ        46.4720  -14.2400  -11.3090 C.ar  121  TYR121      0.1957
     71  OH        46.0400  -15.5120  -11.0310 O.3   121  TYR121     -0.2866
     72  N         48.3490  -20.0620  -13.1160 N.3   225  ASN225     -0.1240
     73  CA        47.4300  -20.2250  -11.9810 C.3   225  ASN225      0.1653
     74  C         46.6510  -21.5420  -12.0720 C.2   225  ASN225      0.2266
     75  O         46.5180  -22.2620  -11.0860 O.2   225  ASN225     -0.2867
     76  CB        46.4530  -19.0580  -11.9590 C.3   225  ASN225      0.1155
     77  CG        45.4800  -19.1100  -10.7990 C.2   225  ASN225      0.2627
     78  OD1       44.2700  -19.0070  -11.0070 O.2   225  ASN225     -0.2716
     79  ND2       45.9880  -19.2560   -9.5820 N.am  225  ASN225     -0.0877
     80  N         56.6180  -19.2110   -0.4330 N.3   254  GLU254     -0.1245
     81  CA        55.2460  -19.4340    0.0090 C.3   254  GLU254      0.1567
     82  C         54.8290  -20.8380   -0.3770 C.2   254  GLU254      0.2260
     83  O         55.5810  -21.5640   -1.0250 O.2   254  GLU254     -0.2867
     84  CB        54.3170  -18.4200   -0.6510 C.3   254  GLU254      0.0388
     85  CG        54.4720  -18.3700   -2.1640 C.3   254  GLU254      0.1160
     86  CD        53.4840  -17.4550   -2.8500 C.2   254  GLU254      0.3649
     87  OE1       53.3240  -17.6110   -4.0800 O.co2 254  GLU254     -0.2457
     88  OE2       52.8770  -16.5890   -2.1910 O.co2 254  GLU254     -0.2457
     89  N         50.0800  -23.2210   -3.9160 N.3   257  THR257     -0.1203
     90  CA        48.6930  -22.9220   -4.3100 C.3   257  THR257      0.1994
     91  C         48.1480  -21.6390   -3.6860 C.2   257  THR257      0.2617
     92  O         47.0040  -21.2690   -3.9580 O.2   257  THR257     -0.2717
     93  CB        47.7550  -24.1100   -3.9940 C.3   257  THR257      0.1784
     94  OG1       47.9450  -24.5220   -2.6410 O.3   257  THR257     -0.2211
     95  CG2       48.0610  -25.2940   -4.9120 C.3   257  THR257      0.0376
     96  N         48.9470  -20.9740   -2.8440 N.am  258  ARG258     -0.1979
     97  CA        48.6050  -19.6600   -2.2850 C.3   258  ARG258      0.1597
     98  C         47.2460  -19.6410   -1.5720 C.2   258  ARG258      0.2287
     99  O         46.4190  -18.7410   -1.7560 O.2   258  ARG258     -0.2864
    100  CB        48.6610  -18.5880   -3.3780 C.3   258  ARG258      0.0334
    101  CG        50.0370  -18.4220   -3.9810 C.3   258  ARG258      0.0492
    102  CD        49.9420  -17.6740   -5.2910 C.3   258  ARG258      0.2205
    103  NE        51.2380  -17.1960   -5.7480 N.pl3 258  ARG258     -0.0865
    104  CZ        51.4420  -16.5250   -6.8750 C.cat 258  ARG258      0.5346
    105  NH1       50.4360  -16.2680   -7.7020 N.pl3 258  ARG258      0.1354
    106  NH2       52.6740  -16.1220   -7.1880 N.pl3 258  ARG258      0.1354
@<TRIPOS>BOND
     1    50    51    1
     2    50    49    1
     3    50    53    1
     4    51    52    2
     5    60    61    1
     6    53    54    1
     7    54    55    1
     8    72    73    1
     9    66    68   ar
    10    66    65   ar
    11    61    62    1
    12    61    64    1
    13    62    63    2
    14    68    70   ar
    15    64    65    1
    16    55    56    1
    17    56    57    2
    18    74    73    1
    19    74    75    2
    20    65    67   ar
    21    73    76    1
    22    76    77    1
    23    70    71    1
    24    70    69   ar
    25    57    59    1
    26    57    58    1
    27    78    77    2
    28    77    79   am
    29    67    69   ar
    30    37    35   am
    31    36    35    2
    32    35    34    1
    33    47    46    1
    34   105   104    1
    35    41    40    2
    36    44    43    1
    37    44    45    1
    38    43    42    1
    39   106   104    1
    40    40    39    1
    41    34    31    1
    42   104   103    2
    43    46    45    2
    44    46    48    1
    45    33    32    2
    46    42    39    1
    47    31    32    1
    48    31    30    1
    49    39    38    1
    50   103   102    1
    51   102   101    1
    52    95    93    1
    53    30    24   am
    54    20    21    1
    55    20    17    1
    56    16    17    1
    57    90    93    1
    58    90    89    1
    59    90    91    1
    60    87    86   ar
    61    25    24    2
    62    93    94    1
    63   101   100    1
    64    19    18    2
    65    92    91    2
    66    24    23    1
    67    17    18    1
    68    91    96   am
    69   100    97    1
    70    15    13    1
    71    86    88   ar
    72    86    85    1
    73    96    97    1
    74    26    23    1
    75    26    27    1
    76    23    22    1
    77    97    98    1
    78    14    13    1
    79    85    84    1
    80    13    10    1
    81    99    98    2
    82    29    27   am
    83    27    28    2
    84    83    82    2
    85     8     6   am
    86    12    11    2
    87    84    81    1
    88    10    11    1
    89    10     9    1
    90    80    81    1
    91    82    81    1
    92     7     6    2
    93     6     5    1
    94     5     2    1
    95     2     3    1
    96     2     1    1
    97     3     4    2
