@<TRIPOS>MOLECULE
tmp/5grkB00.pdb
 100 93 0 0 0
SMALL
GASTEIGER

@<TRIPOS>ATOM
      1  N          0.8570   20.1960   79.8470 N.3    55  GLY55      -0.1210
      2  CA         1.2150   18.7890   79.8250 C.3    55  GLY55       0.1956
      3  C         -0.0060   17.9060   79.9790 C.2    55  GLY55       0.2612
      4  O         -1.1350   18.3880   79.9210 O.2    55  GLY55      -0.2717
      5  N          0.2160   16.6100   80.1790 N.am   56  GLN56      -0.1965
      6  CA        -0.8830   15.6560   80.2880 C.3    56  GLN56       0.1733
      7  C         -1.1670   15.2770   81.7400 C.2    56  GLN56       0.2616
      8  O         -2.1630   15.7120   82.3140 O.2    56  GLN56      -0.2715
      9  CB        -0.5820   14.4020   79.4710 C.3    56  GLN56       0.0408
     10  CG        -1.7710   13.4710   79.3420 C.3    56  GLN56       0.0908
     11  CD        -1.5020   12.3010   78.4220 C.2    56  GLN56       0.2608
     12  OE1       -0.7690   12.4210   77.4420 O.2    56  GLN56      -0.2717
     13  NE2       -2.1040   11.1600   78.7280 N.am   56  GLN56      -0.0878
     14  N         -0.3010   14.4570   82.3250 N.am   57  ASP57      -0.1958
     15  CA        -0.4860   14.0120   83.7000 C.3    57  ASP57       0.1825
     16  C          0.8590   13.6710   84.3340 C.2    57  ASP57       0.2464
     17  O          1.7830   13.2700   83.6380 O.2    57  ASP57      -0.2730
     18  CB        -1.4210   12.8040   83.7460 C.3    57  ASP57       0.1450
     19  CG        -0.8190   11.5720   83.1000 C.2    57  ASP57       0.3671
     20  OD1       -0.3070   11.6810   81.9670 O.co2  57  ASP57      -0.2456
     21  OD2       -0.8470   10.4950   83.7330 O.co2  57  ASP57      -0.2456
     22  N          0.9690   13.8170   85.6640 N.am   58  PRO58      -0.2715
     23  CA         2.2460   13.6190   86.3600 C.3    58  PRO58       0.1536
     24  C          2.6340   12.1480   86.5210 C.2    58  PRO58       0.2598
     25  O          1.7880   11.2700   86.3710 O.2    58  PRO58      -0.2715
     26  CB         1.9960   14.2670   87.7220 C.3    58  PRO58       0.0310
     27  CG         0.5430   14.1000   87.9460 C.3    58  PRO58       0.0237
     28  CD        -0.1060   14.1990   86.5950 C.3    58  PRO58       0.0939
     29  N          3.9080   11.8960   86.8100 N.am   59  ALA59      -0.1978
     30  CA         4.4170   10.5420   87.0100 C.3    59  ALA59       0.1597
     31  C          4.9870   10.4020   88.4220 C.2    59  ALA59       0.2287
     32  O          4.6020   11.1480   89.3190 O.2    59  ALA59      -0.2864
     33  CB         5.4680   10.2120   85.9580 C.3    59  ALA59       0.0319
     34  N          7.4530   13.3570   89.6470 N.3    62  GLU62      -0.1245
     35  CA         6.6950   14.5440   90.0130 C.3    62  GLU62       0.1567
     36  C          6.0330   14.3830   91.3790 C.2    62  GLU62       0.2260
     37  O          5.7820   15.3650   92.0750 O.2    62  GLU62      -0.2867
     38  CB         5.6340   14.8420   88.9510 C.3    62  GLU62       0.0388
     39  CG         6.1910   15.3170   87.6160 C.3    62  GLU62       0.1160
     40  CD         6.8520   14.2210   86.8060 C.2    62  GLU62       0.3649
     41  OE1        6.6300   13.0320   87.1050 O.co2  62  GLU62      -0.2457
     42  OE2        7.6070   14.5520   85.8700 O.co2  62  GLU62      -0.2457
     43  N          5.4620   19.5200   88.3520 N.3    68  ILE68      -0.1231
     44  CA         5.1680   18.6940   87.1890 C.3    68  ILE68       0.1692
     45  C          6.3430   18.6990   86.2190 C.2    68  ILE68       0.2591
     46  O          7.1860   19.5920   86.2640 O.2    68  ILE68      -0.2718
     47  CB         3.8830   19.1560   86.4580 C.3    68  ILE68       0.0266
     48  CG1        4.0840   20.4770   85.7080 C.3    68  ILE68       0.0019
     49  CG2        2.7380   19.2900   87.4370 C.3    68  ILE68       0.0020
     50  CD1        3.0490   20.7040   84.6360 C.3    68  ILE68       0.0001
     51  N          6.3850   17.6910   85.3500 N.am   69  LEU69      -0.1980
     52  CA         7.3820   17.5980   84.2850 C.3    69  LEU69       0.1596
     53  C          8.8110   17.7680   84.7900 C.2    69  LEU69       0.2287
     54  O          9.5240   18.6790   84.3730 O.2    69  LEU69      -0.2864
     55  CB         7.0870   18.6300   83.1930 C.3    69  LEU69       0.0297
     56  CG         5.9080   18.2800   82.2870 C.3    69  LEU69       0.0022
     57  CD1        5.4310   19.4900   81.5150 C.3    69  LEU69       0.0001
     58  CD2        6.3080   17.1710   81.3290 C.3    69  LEU69       0.0001
     59  N         10.5800   14.7020   85.0870 N.3    71  GLY71      -0.1225
     60  CA        11.1420   13.4530   84.6090 C.3    71  GLY71       0.1811
     61  C         11.7540   13.6050   83.2310 C.2    71  GLY71       0.2280
     62  O         12.1230   14.7060   82.8330 O.2    71  GLY71      -0.2866
     63  N         10.3700   13.3900   80.3420 N.3    73  ALA73      -0.1245
     64  CA         9.5220   14.2510   79.5300 C.3    73  ALA73       0.1562
     65  C          9.8480   15.7150   79.7900 C.2    73  ALA73       0.2260
     66  O          9.8710   16.5310   78.8700 O.2    73  ALA73      -0.2867
     67  CB         8.0600   13.9760   79.8150 C.3    73  ALA73       0.0290
     68  N         -0.5500   20.8560   84.0120 N.3    94  ASN94      -0.1240
     69  CA        -0.9550   19.5720   83.4620 C.3    94  ASN94       0.1653
     70  C         -2.4470   19.5510   83.1670 C.2    94  ASN94       0.2266
     71  O         -3.2240   20.2690   83.7960 O.2    94  ASN94      -0.2867
     72  CB        -0.6000   18.4430   84.4310 C.3    94  ASN94       0.1155
     73  CG         0.8930   18.1920   84.5120 C.2    94  ASN94       0.2627
     74  OD1        1.6400   18.5240   83.5920 O.2    94  ASN94      -0.2716
     75  ND2        1.3350   17.6030   85.6170 N.am   94  ASN94      -0.0877
     76  N          1.2400   19.4400   75.1070 N.3   138  LEU138     -0.1245
     77  CA         1.9220   18.1610   74.9540 C.3   138  LEU138      0.1561
     78  C          0.9040   17.0330   74.8830 C.2   138  LEU138      0.2260
     79  O          0.2360   16.7310   75.8710 O.2   138  LEU138     -0.2867
     80  CB         2.8870   17.9190   76.1130 C.3   138  LEU138      0.0270
     81  CG         3.8820   19.0400   76.4140 C.3   138  LEU138      0.0019
     82  CD1        4.7620   18.6570   77.5880 C.3   138  LEU138      0.0001
     83  CD2        4.7240   19.3690   75.2010 C.3   138  LEU138      0.0001
     84  N          3.4870   14.4550   72.5580 N.3   168  HIS168     -0.1241
     85  CA         3.9070   14.2930   73.9410 C.3   168  HIS168      0.1621
     86  C          5.3260   13.7370   73.9810 C.2   168  HIS168      0.2264
     87  O          5.5750   12.6980   73.3920 O.2   168  HIS168     -0.2867
     88  CB         2.9570   13.3610   74.6850 C.3   168  HIS168      0.0745
     89  CG         3.1120   13.4160   76.1690 C.ar  168  HIS168      0.0817
     90  ND1        4.3250   13.2230   76.7890 N.ar  168  HIS168     -0.2268
     91  CD2        2.2130   13.6380   77.1560 C.ar  168  HIS168      0.1154
     92  CE1        4.1710   13.3320   78.0950 C.ar  168  HIS168      0.1986
     93  NE2        2.8980   13.5790   78.3460 N.ar  168  HIS168     -0.2212
     94  N          7.1970   11.8310   75.6210 N.3   170  THR170     -0.1218
     95  CA         7.4990   10.4380   75.9360 C.3   170  THR170      0.1862
     96  C          6.6850    9.4620   75.0810 C.2   170  THR170      0.2287
     97  O          6.4610    8.3180   75.4690 O.2   170  THR170     -0.2866
     98  CB         7.2480   10.1680   77.4370 C.3   170  THR170      0.1770
     99  OG1        7.8200    8.9070   77.8040 O.3   170  THR170     -0.2211
    100  CG2        5.7590   10.1650   77.7610 C.3   170  THR170      0.0375
@<TRIPOS>BOND
     1    84    85    1
     2    87    86    2
     3    85    86    1
     4    85    88    1
     5    88    89    1
     6    78    77    1
     7    78    79    2
     8    77    76    1
     9    77    80    1
    10    96    97    2
    11    96    95    1
    12    83    81    1
    13    94    95    1
    14    95    98    1
    15    80    81    1
    16    89    90   ar
    17    89    91   ar
    18    81    82    1
    19    90    92   ar
    20    91    93   ar
    21    98   100    1
    22    98    99    1
    23    12    11    2
    24    92    93   ar
    25    11    13   am
    26    11    10    1
    27    66    65    2
    28    10     9    1
    29     9     6    1
    30    64    65    1
    31    64    67    1
    32    64    63    1
    33     2     1    1
    34     2     3    1
    35     4     3    2
    36     3     5   am
    37     5     6    1
    38     6     7    1
    39    58    56    1
    40    57    56    1
    41     7     8    2
    42     7    14   am
    43    20    19   ar
    44    56    55    1
    45    14    15    1
    46    62    61    2
    47    19    21   ar
    48    19    18    1
    49    70    69    1
    50    70    71    2
    51    55    52    1
    52    61    60    1
    53    69    68    1
    54    69    72    1
    55    74    73    2
    56    17    16    2
    57    15    18    1
    58    15    16    1
    59    52    53    1
    60    52    51    1
    61    16    22   am
    62    54    53    2
    63    72    73    1
    64    73    75   am
    65    60    59    1
    66    50    48    1
    67    51    45   am
    68    22    23    1
    69    22    28    1
    70    48    47    1
    71    42    40   ar
    72    33    30    1
    73    45    46    2
    74    45    44    1
    75    23    24    1
    76    23    26    1
    77    25    24    2
    78    47    44    1
    79    47    49    1
    80    24    29   am
    81    28    27    1
    82    40    41   ar
    83    40    39    1
    84    29    30    1
    85    30    31    1
    86    44    43    1
    87    39    38    1
    88    26    27    1
    89    31    32    2
    90    38    35    1
    91    34    35    1
    92    35    36    1
    93    36    37    2
