@<TRIPOS>MOLECULE
tmp/5grlB01.pdb
 106 97 0 0 0
SMALL
GASTEIGER

@<TRIPOS>ATOM
      1  N         10.5260   50.4880  -26.8570 N.3    64  ASN64      -0.1240
      2  CA        10.5580   49.3720  -25.9160 C.3    64  ASN64       0.1653
      3  C         11.0510   48.0980  -26.5840 C.2    64  ASN64       0.2266
      4  O         10.5900   47.7540  -27.6690 O.2    64  ASN64      -0.2867
      5  CB         9.1740   49.1240  -25.3040 C.3    64  ASN64       0.1155
      6  CG         9.2460   48.3450  -24.0030 C.2    64  ASN64       0.2627
      7  OD1        8.5550   47.3360  -23.8110 O.2    64  ASN64      -0.2716
      8  ND2       10.0890   48.8040  -23.0990 N.am   64  ASN64      -0.0877
      9  N         10.6510   41.5450  -24.2120 N.3    67  THR67      -0.1218
     10  CA        11.3690   40.5320  -23.4400 C.3    67  THR67       0.1862
     11  C         10.5970   39.2190  -23.5000 C.2    67  THR67       0.2287
     12  O          9.4470   39.1480  -23.0560 O.2    67  THR67      -0.2866
     13  CB        11.5450   40.9560  -21.9660 C.3    67  THR67       0.1770
     14  OG1       12.2080   42.2220  -21.9080 O.3    67  THR67      -0.2211
     15  CG2       12.3730   39.9270  -21.1820 C.3    67  THR67       0.0375
     16  N         16.1810   41.1490  -19.3700 N.3    77  SER77      -0.1217
     17  CA        15.5550   42.2670  -20.0580 C.3    77  SER77       0.1889
     18  C         16.6230   43.2430  -20.5160 C.2    77  SER77       0.2288
     19  O         17.3330   43.8030  -19.6930 O.2    77  SER77      -0.2866
     20  CB        14.5810   43.0000  -19.1440 C.3    77  SER77       0.2089
     21  OG        14.2060   44.2370  -19.7240 O.3    77  SER77      -0.2183
     22  N         16.1110   46.1160  -21.7280 N.3    79  ASN79      -0.1225
     23  CA        15.6970   47.4080  -21.1910 C.3    79  ASN79       0.1785
     24  C         16.3270   47.6330  -19.8270 C.2    79  ASN79       0.2597
     25  O         16.9160   48.6770  -19.5760 O.2    79  ASN79      -0.2718
     26  CB        14.1790   47.4760  -21.0510 C.3    79  ASN79       0.1169
     27  CG        13.4580   47.2820  -22.3680 C.2    79  ASN79       0.2627
     28  OD1       13.5810   48.0970  -23.2750 O.2    79  ASN79      -0.2716
     29  ND2       12.7020   46.2010  -22.4790 N.am   79  ASN79      -0.0877
     30  N         16.2060   46.6320  -18.9630 N.am   80  ASN80      -0.1974
     31  CA        16.7300   46.7050  -17.6070 C.3    80  ASN80       0.1688
     32  C         18.2560   46.7260  -17.5920 C.2    80  ASN80       0.2292
     33  O         18.8540   47.3820  -16.7530 O.2    80  ASN80      -0.2864
     34  CB        16.2050   45.5290  -16.7770 C.3    80  ASN80       0.1181
     35  CG        16.3840   45.7350  -15.2760 C.2    80  ASN80       0.2629
     36  OD1       16.2800   46.8520  -14.7670 O.2    80  ASN80      -0.2716
     37  ND2       16.6480   44.6490  -14.5590 N.am   80  ASN80      -0.0877
     38  N         19.4360   50.5280  -18.4080 N.3    83  ARG83      -0.1245
     39  CA        19.3020   51.5510  -17.3590 C.3    83  ARG83       0.1563
     40  C         20.1840   51.2990  -16.1440 C.2    83  ARG83       0.2260
     41  O         20.5940   52.2510  -15.4840 O.2    83  ARG83      -0.2867
     42  CB        17.8540   51.8400  -16.9500 C.3    83  ARG83       0.0307
     43  CG        16.9360   50.6640  -16.8410 C.3    83  ARG83       0.0489
     44  CD        15.5690   51.1110  -16.3860 C.3    83  ARG83       0.2205
     45  NE        14.8270   49.9040  -16.0960 N.pl3  83  ARG83      -0.0865
     46  CZ        14.0450   49.2790  -16.9590 C.cat  83  ARG83       0.5346
     47  NH1       13.8310   49.7840  -18.1730 N.pl3  83  ARG83       0.1354
     48  NH2       13.4640   48.1590  -16.5820 N.pl3  83  ARG83       0.1354
     49  N         10.7250   57.5600   -9.6400 N.3   114  ARG114     -0.1245
     50  CA        10.8750   56.1460   -9.3400 C.3   114  ARG114      0.1563
     51  C         12.3450   55.7670   -9.3580 C.2   114  ARG114      0.2260
     52  O         13.0600   56.0990  -10.2940 O.2   114  ARG114     -0.2867
     53  CB        10.0930   55.3380  -10.3740 C.3   114  ARG114      0.0307
     54  CG        10.4880   53.8770  -10.5380 C.3   114  ARG114      0.0489
     55  CD         9.8170   53.3000  -11.7620 C.3   114  ARG114      0.2205
     56  NE        10.0000   51.8620  -11.9030 N.pl3 114  ARG114     -0.0865
     57  CZ         9.6720   51.1530  -12.9850 C.cat 114  ARG114      0.5346
     58  NH1        9.1430   51.7300  -14.0620 N.pl3 114  ARG114      0.1354
     59  NH2        9.8870   49.8440  -12.9930 N.pl3 114  ARG114      0.1354
     60  N         14.3490   44.6620   -9.3300 N.3   121  TYR121     -0.1241
     61  CA        14.8940   44.5880  -10.6840 C.3   121  TYR121      0.1605
     62  C         16.4060   44.2960  -10.6730 C.2   121  TYR121      0.2264
     63  O         17.0740   44.3550  -11.7050 O.2   121  TYR121     -0.2867
     64  CB        14.6400   45.9150  -11.3990 C.3   121  TYR121      0.0534
     65  CG        13.2010   46.1570  -11.7830 C.ar  121  TYR121     -0.0201
     66  CD1       12.1980   46.2130  -10.8180 C.ar  121  TYR121     -0.0009
     67  CD2       12.8370   46.3440  -13.1170 C.ar  121  TYR121     -0.0009
     68  CE1       10.8810   46.4360  -11.1650 C.ar  121  TYR121      0.0417
     69  CE2       11.5180   46.5740  -13.4690 C.ar  121  TYR121      0.0417
     70  CZ        10.5490   46.6140  -12.4850 C.ar  121  TYR121      0.1957
     71  OH         9.2380   46.8350  -12.8070 O.3   121  TYR121     -0.2866
     72  N          6.6610   50.9940  -10.9430 N.3   225  ASN225     -0.1240
     73  CA         6.0630   50.3160  -12.0780 C.3   225  ASN225      0.1653
     74  C          4.5370   50.3410  -12.0060 C.2   225  ASN225      0.2266
     75  O          3.8620   50.5830  -13.0090 O.2   225  ASN225     -0.2867
     76  CB         6.5510   48.8660  -12.1700 C.3   225  ASN225      0.1155
     77  CG         6.2450   48.2140  -13.5150 C.2   225  ASN225      0.2627
     78  OD1        6.0320   47.0030  -13.5790 O.2   225  ASN225     -0.2716
     79  ND2        6.2440   48.9960  -14.5960 N.am  225  ASN225     -0.0877
     80  N         11.7950   57.8430  -23.3250 N.3   254  GLU254     -0.1245
     81  CA        10.9320   56.7560  -23.7790 C.3   254  GLU254      0.1567
     82  C          9.4890   57.0790  -23.4610 C.2   254  GLU254      0.2260
     83  O          9.1990   58.0840  -22.8230 O.2   254  GLU254     -0.2867
     84  CB        11.3210   55.4550  -23.0730 C.3   254  GLU254      0.0388
     85  CG        11.2120   55.5140  -21.5540 C.3   254  GLU254      0.1160
     86  CD        11.6730   54.2460  -20.8630 C.2   254  GLU254      0.3649
     87  OE1       11.7520   54.2630  -19.6160 O.co2 254  GLU254     -0.2457
     88  OE2       11.9480   53.2300  -21.5390 O.co2 254  GLU254     -0.2457
     89  N          4.9810   54.3410  -19.9840 N.3   257  THR257     -0.1203
     90  CA         4.4990   53.0130  -19.6420 C.3   257  THR257      0.1994
     91  C          5.4420   51.8880  -20.1260 C.2   257  THR257      0.2617
     92  O          5.3710   50.7680  -19.6190 O.2   257  THR257     -0.2717
     93  CB         3.0550   52.8380  -20.1680 C.3   257  THR257      0.1784
     94  OG1        2.1910   53.7630  -19.5020 O.3   257  THR257     -0.2211
     95  CG2        2.5260   51.4640  -19.8650 C.3   257  THR257      0.0376
     96  N          6.3070   52.1930  -21.0970 N.am  258  ARG258     -0.1979
     97  CA         7.3200   51.2590  -21.6130 C.3   258  ARG258      0.1597
     98  C          6.7130   50.0310  -22.2840 C.2   258  ARG258      0.2287
     99  O          6.9700   48.8830  -21.8740 O.2   258  ARG258     -0.2864
    100  CB         8.2830   50.8210  -20.5140 C.3   258  ARG258      0.0334
    101  CG         9.0670   51.9360  -19.8720 C.3   258  ARG258      0.0492
    102  CD         9.7990   51.3750  -18.6790 C.3   258  ARG258      0.2205
    103  NE        10.7420   52.2960  -18.0650 N.pl3 258  ARG258     -0.0865
    104  CZ        11.4390   52.0380  -16.9590 C.cat 258  ARG258      0.5346
    105  NH1       11.2980   50.8790  -16.3140 N.pl3 258  ARG258      0.1354
    106  NH2       12.2850   52.9510  -16.4890 N.pl3 258  ARG258      0.1354
@<TRIPOS>BOND
     1     4     3    2
     2     1     2    1
     3     3     2    1
     4     2     5    1
     5     5     6    1
     6     9    10    1
     7     6     7    2
     8     6     8   am
     9    81    82    1
    10    81    80    1
    11    81    84    1
    12    11    10    1
    13    11    12    2
    14    82    83    2
    15    10    13    1
    16    28    27    2
    17    84    85    1
    18    29    27   am
    19    27    26    1
    20    98    99    2
    21    98    97    1
    22    13    14    1
    23    13    15    1
    24    22    23    1
    25    97    96    1
    26    97   100    1
    27    85    86    1
    28    88    86   ar
    29    23    26    1
    30    23    24    1
    31    96    91   am
    32    86    87   ar
    33    18    17    1
    34    18    19    2
    35   100   101    1
    36    93    95    1
    37    93    90    1
    38    93    94    1
    39    91    90    1
    40    91    92    2
    41    17    16    1
    42    17    20    1
    43    89    90    1
    44   101   102    1
    45    24    25    2
    46    24    30   am
    47    21    20    1
    48    30    31    1
    49   102   103    1
    50    38    39    1
    51    47    46    1
    52   103   104    2
    53    31    32    1
    54    31    34    1
    55    32    33    2
    56    39    42    1
    57    39    40    1
    58   104   106    1
    59   104   105    1
    60    46    48    1
    61    46    45    2
    62    42    43    1
    63    43    44    1
    64    34    35    1
    65    44    45    1
    66    40    41    2
    67    35    36    2
    68    35    37   am
    69    79    77   am
    70    58    57    1
    71    78    77    2
    72    77    76    1
    73    69    67   ar
    74    69    70   ar
    75    67    65   ar
    76    75    74    2
    77    59    57    1
    78    57    56    2
    79    71    70    1
    80    70    68   ar
    81    76    73    1
    82    73    74    1
    83    73    72    1
    84    56    55    1
    85    65    64    1
    86    65    66   ar
    87    55    54    1
    88    63    62    2
    89    64    61    1
    90    68    66   ar
    91    61    62    1
    92    61    60    1
    93    54    53    1
    94    53    50    1
    95    52    51    2
    96    49    50    1
    97    51    50    1
