@<TRIPOS>MOLECULE
tmp/5grmB00.pdb
 121 117 0 0 0
SMALL
GASTEIGER

@<TRIPOS>ATOM
      1  N         -7.9600   25.1930  -29.7200 N.3    11  SER11      -0.1202
      2  CA        -8.7460   24.5590  -28.6980 C.3    11  SER11       0.2020
      3  C        -10.0280   25.3610  -28.5270 C.2    11  SER11       0.2618
      4  O        -11.0780   24.8410  -28.4640 O.2    11  SER11      -0.2717
      5  CB        -7.9180   24.5340  -27.3800 C.3    11  SER11       0.2103
      6  OG        -8.6340   24.1670  -26.2350 O.3    11  SER11      -0.2182
      7  N         -9.8510   26.6640  -28.4550 N.am   12  TYR12      -0.1975
      8  CA       -10.9560   27.5650  -28.1900 C.3    12  TYR12       0.1639
      9  C        -11.9600   27.5860  -29.3290 C.2    12  TYR12       0.2290
     10  O        -13.0960   27.6350  -29.0850 O.2    12  TYR12      -0.2864
     11  CB       -10.4160   28.9700  -27.8730 C.3    12  TYR12       0.0560
     12  CG       -11.4080   29.9650  -27.3030 C.ar   12  TYR12      -0.0198
     13  CD1      -11.9860   29.8000  -26.0790 C.ar   12  TYR12      -0.0009
     14  CD2      -11.7720   31.0590  -28.0160 C.ar   12  TYR12      -0.0009
     15  CE1      -12.8580   30.6960  -25.5800 C.ar   12  TYR12       0.0417
     16  CE2      -12.6500   31.9350  -27.5220 C.ar   12  TYR12       0.0417
     17  CZ       -13.1940   31.7470  -26.2790 C.ar   12  TYR12       0.1957
     18  OH       -14.0590   32.6260  -25.7740 O.3    12  TYR12      -0.2866
     19  N        -13.2260   23.5360  -29.7720 N.3    15  GLY15      -0.1210
     20  CA       -13.9470   23.0140  -28.6720 C.3    15  GLY15       0.1956
     21  C        -14.9210   23.9130  -28.0000 C.2    15  GLY15       0.2611
     22  O        -15.4320   23.5760  -27.0040 O.2    15  GLY15      -0.2717
     23  N        -15.1410   25.0650  -28.5800 N.am   16  TYR16      -0.1976
     24  CA       -16.0920   25.9520  -28.0120 C.3    16  TYR16       0.1639
     25  C        -16.8460   26.7650  -29.0740 C.2    16  TYR16       0.2290
     26  O        -17.9550   26.5350  -29.2960 O.2    16  TYR16      -0.2864
     27  CB       -15.4260   26.8670  -26.9760 C.3    16  TYR16       0.0560
     28  CG       -16.3540   27.7560  -26.1830 C.ar   16  TYR16      -0.0198
     29  CD1      -17.4150   27.2620  -25.5170 C.ar   16  TYR16      -0.0009
     30  CD2      -16.1370   29.1020  -26.1350 C.ar   16  TYR16      -0.0009
     31  CE1      -18.2520   28.0680  -24.8010 C.ar   16  TYR16       0.0417
     32  CE2      -16.9520   29.9010  -25.4320 C.ar   16  TYR16       0.0417
     33  CZ       -17.9960   29.3940  -24.7550 C.ar   16  TYR16       0.1957
     34  OH       -18.8140   30.2120  -24.0570 O.3    16  TYR16      -0.2866
     35  N        -19.9390   14.9860  -25.5830 N.3    81  ARG81      -0.1231
     36  CA       -18.6000   15.4040  -25.9450 C.3    81  ARG81       0.1694
     37  C        -17.5500   14.4640  -25.3500 C.2    81  ARG81       0.2591
     38  O        -17.3840   14.4500  -24.2120 O.2    81  ARG81      -0.2718
     39  CB       -18.3510   16.7920  -25.4240 C.3    81  ARG81       0.0321
     40  CG       -19.2970   17.7840  -26.0200 C.3    81  ARG81       0.0489
     41  CD       -18.7900   18.2430  -27.3880 C.3    81  ARG81       0.2205
     42  NE       -17.4800   18.7840  -27.2240 N.pl3  81  ARG81      -0.0865
     43  CZ       -16.4260   18.5380  -27.9460 C.cat  81  ARG81       0.5346
     44  NH1      -16.4330   17.8390  -29.0650 N.pl3  81  ARG81       0.1354
     45  NH2      -15.3800   19.1080  -27.5840 N.pl3  81  ARG81       0.1354
     46  N        -16.8620   13.7350  -26.1910 N.am   82  ALA82      -0.1980
     47  CA       -15.7350   12.9530  -25.7380 C.3    82  ALA82       0.1597
     48  C        -16.0660   12.0160  -24.6200 C.2    82  ALA82       0.2287
     49  O        -15.3030   11.8200  -23.7490 O.2    82  ALA82      -0.2864
     50  CB       -14.5390   13.8580  -25.3560 C.3    82  ALA82       0.0319
     51  N        -18.4480   12.4330  -22.4130 N.3    84  VAL84      -0.1245
     52  CA       -19.2580   13.0640  -21.4020 C.3    84  VAL84       0.1561
     53  C        -20.6470   13.3010  -21.9890 C.2    84  VAL84       0.2260
     54  O        -20.7830   14.0470  -22.8630 O.2    84  VAL84      -0.2867
     55  CB       -18.6050   14.3900  -20.9740 C.3    84  VAL84       0.0252
     56  CG1      -19.4050   15.0610  -19.9550 C.3    84  VAL84       0.0019
     57  CG2      -17.1630   14.0870  -20.4870 C.3    84  VAL84       0.0019
     58  N        -22.7800   17.1960  -21.9230 N.3    87  ARG87      -0.1231
     59  CA       -21.9640   18.2550  -21.4520 C.3    87  ARG87       0.1694
     60  C        -22.6770   19.5650  -21.7330 C.2    87  ARG87       0.2592
     61  O        -23.2000   19.7580  -22.7740 O.2    87  ARG87      -0.2718
     62  CB       -20.6420   18.2240  -22.2010 C.3    87  ARG87       0.0321
     63  CG       -19.6950   19.3260  -21.8230 C.3    87  ARG87       0.0489
     64  CD       -18.2950   19.1330  -22.2640 C.3    87  ARG87       0.2205
     65  NE       -17.5180   20.3530  -22.1030 N.pl3  87  ARG87      -0.0865
     66  CZ       -16.2560   20.5060  -22.4640 C.cat  87  ARG87       0.5346
     67  NH1      -15.5690   19.5020  -22.9430 N.pl3  87  ARG87       0.1354
     68  NH2      -15.6950   21.6780  -22.3450 N.pl3  87  ARG87       0.1354
     69  N        -22.6200   20.4470  -20.7710 N.am   88  ALA88      -0.1966
     70  CA       -23.4080   21.6550  -20.8000 C.3    88  ALA88       0.1728
     71  C        -22.6060   22.8960  -21.1190 C.2    88  ALA88       0.2616
     72  O        -21.6260   23.1470  -20.5710 O.2    88  ALA88      -0.2715
     73  CB       -24.1560   21.8260  -19.4970 C.3    88  ALA88       0.0334
     74  N        -23.1150   23.6520  -22.0870 N.am   89  TYR89      -0.1960
     75  CA       -22.4910   24.8880  -22.4870 C.3    89  TYR89       0.1771
     76  C        -23.4550   26.0250  -22.2170 C.2    89  TYR89       0.2620
     77  O        -24.5430   26.0300  -22.6400 O.2    89  TYR89      -0.2715
     78  CB       -22.1130   24.8560  -23.9920 C.3    89  TYR89       0.0574
     79  CG       -21.0830   23.7880  -24.3360 C.ar   89  TYR89      -0.0198
     80  CD1      -21.4590   22.5020  -24.5820 C.ar   89  TYR89      -0.0009
     81  CD2      -19.7750   24.0790  -24.4120 C.ar   89  TYR89      -0.0009
     82  CE1      -20.5710   21.5810  -24.8390 C.ar   89  TYR89       0.0417
     83  CE2      -18.8360   23.1190  -24.7160 C.ar   89  TYR89       0.0417
     84  CZ       -19.2560   21.8500  -24.9200 C.ar   89  TYR89       0.1957
     85  OH       -18.3440   20.8770  -25.2250 O.3    89  TYR89      -0.2866
     86  N        -22.9830   26.9760  -21.4420 N.am   90  SER90      -0.1950
     87  CA       -23.8000   27.9940  -20.8750 C.3    90  SER90       0.1924
     88  C        -23.1540   29.3800  -21.0300 C.2    90  SER90       0.2314
     89  O        -21.9740   29.4810  -21.0170 O.2    90  SER90      -0.2863
     90  CB       -23.9910   27.6750  -19.3910 C.3    90  SER90       0.2116
     91  OG       -24.9770   28.4950  -18.8630 O.3    90  SER90      -0.2180
     92  N        -18.3110   37.3280  -21.6570 N.3   109  GLU109     -0.1245
     93  CA       -17.3950   36.4910  -20.8940 C.3   109  GLU109      0.1567
     94  C        -15.9420   36.7690  -21.2450 C.2   109  GLU109      0.2260
     95  O        -15.6710   37.3980  -22.1880 O.2   109  GLU109     -0.2867
     96  CB       -17.6770   35.0100  -21.1260 C.3   109  GLU109      0.0388
     97  CG       -17.6710   34.6390  -22.5980 C.3   109  GLU109      0.1160
     98  CD       -18.3550   33.3080  -22.8550 C.2   109  GLU109      0.3649
     99  OE1      -19.4960   33.2050  -22.5260 O.co2 109  GLU109     -0.2457
    100  OE2      -17.6870   32.4110  -23.3300 O.co2 109  GLU109     -0.2457
    101  N        -11.3300   32.1360  -21.7070 N.3   112  THR112     -0.1204
    102  CA       -10.8150   31.3390  -20.6110 C.3   112  THR112      0.1979
    103  C         -9.3320   30.9080  -20.7700 C.2   112  THR112      0.2459
    104  O         -8.6540   30.8250  -19.8360 O.2   112  THR112     -0.2732
    105  CB       -11.7300   30.1100  -20.2210 C.3   112  THR112      0.1783
    106  OG1      -13.0780   30.5160  -20.0890 O.3   112  THR112     -0.2211
    107  CG2      -11.3200   29.6490  -18.8020 C.3   112  THR112      0.0376
    108  N         -8.8730   30.6990  -21.9890 N.am  113  PRO113     -0.2728
    109  CA        -7.4570   30.2780  -22.1840 C.3   113  PRO113      0.1401
    110  C         -6.4280   31.2630  -21.6980 C.2   113  PRO113      0.2269
    111  O         -5.3460   30.8670  -21.4270 O.2   113  PRO113     -0.2865
    112  CB        -7.3260   30.0570  -23.6750 C.3   113  PRO113      0.0296
    113  CG        -8.7490   29.6390  -24.0870 C.3   113  PRO113      0.0237
    114  CD        -9.6410   30.5130  -23.2390 C.3   113  PRO113      0.0939
    115  N         -5.0580   29.9940  -18.5530 N.3   116  THR116     -0.1218
    116  CA        -3.9640   29.0510  -18.6910 C.3   116  THR116      0.1862
    117  C         -2.6140   29.7760  -18.8450 C.2   116  THR116      0.2287
    118  O         -1.6710   29.4080  -18.2140 O.2   116  THR116     -0.2866
    119  CB        -4.2310   28.1300  -19.8820 C.3   116  THR116      0.1770
    120  OG1       -5.3820   27.3730  -19.5660 O.3   116  THR116     -0.2211
    121  CG2       -3.0230   27.1530  -20.0890 C.3   116  THR116      0.0375
@<TRIPOS>BOND
     1    19    20    1
     2     1     2    1
     3     9    10    2
     4     9     8    1
     5    26    25    2
     6    25    24    1
     7    44    43    1
     8     2     3    1
     9     2     5    1
    10    20    21    1
    11    23    24    1
    12    23    21   am
    13     3     4    2
    14     3     7   am
    15     7     8    1
    16     8    11    1
    17    14    16   ar
    18    14    12   ar
    19    24    27    1
    20    21    22    2
    21    43    45    1
    22    43    42    2
    23    11    12    1
    24    16    17   ar
    25    41    42    1
    26    41    40    1
    27     5     6    1
    28    12    13   ar
    29    27    28    1
    30    17    18    1
    31    17    15   ar
    32    46    47    1
    33    46    37   am
    34    28    30   ar
    35    28    29   ar
    36    30    32   ar
    37    13    15   ar
    38    40    39    1
    39    36    35    1
    40    36    39    1
    41    36    37    1
    42    47    50    1
    43    47    48    1
    44    29    31   ar
    45    32    33   ar
    46    37    38    2
    47    85    84    1
    48    84    82   ar
    49    84    83   ar
    50    82    80   ar
    51    31    33   ar
    52    33    34    1
    53    83    81   ar
    54    48    49    2
    55    80    79   ar
    56    81    79   ar
    57    79    78    1
    58   113   112    1
    59   113   114    1
    60    78    75    1
    61   112   109    1
    62   100    98   ar
    63   114   108    1
    64    67    66    1
    65    54    53    2
    66    98    97    1
    67    98    99   ar
    68    61    60    2
    69    77    76    2
    70    97    96    1
    71    75    76    1
    72    75    74    1
    73    66    68    1
    74    66    65    2
    75    51    52    1
    76    64    65    1
    77    64    63    1
    78    76    86   am
    79    62    63    1
    80    62    59    1
    81    95    94    2
    82   109   108    1
    83   109   110    1
    84    74    71   am
    85    53    52    1
    86   108   103   am
    87    58    59    1
    88    60    59    1
    89    60    69   am
    90   101   102    1
    91   110   111    2
    92    92    93    1
    93    86    87    1
    94    52    55    1
    95    94    93    1
    96    96    93    1
    97    71    70    1
    98    71    72    2
    99    88    89    2
   100    88    87    1
   101    55    57    1
   102    55    56    1
   103    87    90    1
   104    70    69    1
   105    70    73    1
   106   103   102    1
   107   103   104    2
   108   102   105    1
   109   105   106    1
   110   105   107    1
   111   121   119    1
   112   119   120    1
   113   119   116    1
   114    90    91    1
   115   117   116    1
   116   117   118    2
   117   116   115    1
