@<TRIPOS>MOLECULE
tmp/5grnA00.pdb
 232 220 0 0 0
SMALL
GASTEIGER

@<TRIPOS>ATOM
      1  N        -12.2990  -11.2780  -18.6230 N.3    15  ARG15      -0.1245
      2  CA       -11.2480  -10.6310  -19.3990 C.3    15  ARG15       0.1563
      3  C        -10.7380   -9.3690  -18.7230 C.2    15  ARG15       0.2260
      4  O        -11.4820   -8.6690  -18.0450 O.2    15  ARG15      -0.2867
      5  CB       -11.7750  -10.2600  -20.7830 C.3    15  ARG15       0.0307
      6  CG       -12.8930   -9.2350  -20.7330 C.3    15  ARG15       0.0489
      7  CD       -13.2090   -8.6480  -22.0990 C.3    15  ARG15       0.2205
      8  NE       -14.3080   -7.6930  -22.0120 N.pl3  15  ARG15      -0.0865
      9  CZ       -14.2370   -6.4290  -22.4100 C.cat  15  ARG15       0.5346
     10  NH1      -15.2880   -5.6360  -22.2830 N.pl3  15  ARG15       0.1354
     11  NH2      -13.1190   -5.9590  -22.9390 N.pl3  15  ARG15       0.1354
     12  N         -9.6570   -5.6910  -18.2050 N.3    17  LEU17      -0.1245
     13  CA       -10.0420   -4.3760  -18.7060 C.3    17  LEU17       0.1561
     14  C         -8.9190   -3.3520  -18.5990 C.2    17  LEU17       0.2260
     15  O         -8.9120   -2.3780  -19.3570 O.2    17  LEU17      -0.2867
     16  CB       -11.2770   -3.8580  -17.9530 C.3    17  LEU17       0.0270
     17  CG       -12.5360   -4.7400  -17.9950 C.3    17  LEU17       0.0019
     18  CD1      -13.6080   -4.2160  -17.0410 C.3    17  LEU17       0.0001
     19  CD2      -13.0870   -4.8300  -19.4090 C.3    17  LEU17       0.0001
     20  N         -7.7490   -4.6150  -13.4220 N.3    25  VAL25      -0.1245
     21  CA        -9.1890   -4.6180  -13.3280 C.3    25  VAL25       0.1561
     22  C         -9.6910   -5.6140  -14.3570 C.2    25  VAL25       0.2260
     23  O         -9.2560   -5.5950  -15.4730 O.2    25  VAL25      -0.2867
     24  CB        -9.8190   -3.2610  -13.6280 C.3    25  VAL25       0.0252
     25  CG1      -11.3200   -3.3860  -13.6250 C.3    25  VAL25       0.0019
     26  CG2       -9.3660   -2.2290  -12.6160 C.3    25  VAL25       0.0019
     27  N        -17.1910   -5.0740  -12.6400 N.3    43  ALA43      -0.1231
     28  CA       -15.7850   -4.8610  -12.8450 C.3    43  ALA43       0.1694
     29  C        -15.1240   -5.1280  -11.4840 C.2    43  ALA43       0.2592
     30  O        -15.6660   -4.7490  -10.4650 O.2    43  ALA43      -0.2718
     31  CB       -15.5070   -3.4570  -13.3100 C.3    43  ALA43       0.0304
     32  N        -13.9810   -5.7950  -11.4880 N.am   44  VAL44      -0.1966
     33  CA       -13.2900   -6.1120  -10.2530 C.3    44  VAL44       0.1727
     34  C        -11.8200   -5.6970  -10.2660 C.2    44  VAL44       0.2616
     35  O        -11.1020   -6.0050  -11.1810 O.2    44  VAL44      -0.2715
     36  CB       -13.4060   -7.6180   -9.9710 C.3    44  VAL44       0.0290
     37  CG1      -12.8660   -7.9820   -8.5970 C.3    44  VAL44       0.0023
     38  CG2      -14.8390   -8.0760  -10.1450 C.3    44  VAL44       0.0023
     39  N        -11.4110   -5.0050   -9.2160 N.am   45  LYS45      -0.1977
     40  CA       -10.0480   -4.5300   -9.0830 C.3    45  LYS45       0.1596
     41  C         -9.3110   -5.4020   -8.0870 C.2    45  LYS45       0.2287
     42  O         -9.8390   -5.7650   -7.0700 O.2    45  LYS45      -0.2864
     43  CB       -10.0050   -3.0720   -8.6250 C.3    45  LYS45       0.0298
     44  CG        -8.7440   -2.3200   -8.9990 C.3    45  LYS45       0.0038
     45  CD        -8.8350   -0.8700   -8.5590 C.3    45  LYS45       0.0206
     46  CE        -7.9440    0.0610   -9.3460 C.3    45  LYS45       0.1093
     47  NZ        -8.2020    1.4990   -9.1140 N.3    45  LYS45      -0.1314
     48  N         -8.1000    2.8710   -0.9720 N.3    62  GLU62      -0.1245
     49  CA        -9.0520    3.2400   -2.0090 C.3    62  GLU62       0.1567
     50  C        -10.4450    2.7290   -1.6710 C.2    62  GLU62       0.2260
     51  O        -11.4370    3.4520   -1.8360 O.2    62  GLU62      -0.2867
     52  CB        -8.5850    2.6980   -3.3630 C.3    62  GLU62       0.0388
     53  CG        -9.5510    2.9720   -4.5050 C.3    62  GLU62       0.1160
     54  CD        -8.8720    2.8200   -5.8500 C.2    62  GLU62       0.3649
     55  OE1       -7.8050    3.4380   -6.0310 O.co2  62  GLU62      -0.2457
     56  OE2       -9.3810    2.0670   -6.7080 O.co2  62  GLU62      -0.2457
     57  N        -11.9410    5.0330    0.9460 N.3    65  ILE65      -0.1231
     58  CA       -12.3980    6.3180    0.4140 C.3    65  ILE65       0.1692
     59  C        -13.6920    6.1490   -0.3690 C.2    65  ILE65       0.2591
     60  O        -14.6070    6.9740   -0.2700 O.2    65  ILE65      -0.2718
     61  CB       -11.3040    6.9650   -0.4490 C.3    65  ILE65       0.0266
     62  CG1      -10.0830    7.2710    0.4170 C.3    65  ILE65       0.0019
     63  CG2      -11.8570    8.2410   -1.1370 C.3    65  ILE65       0.0020
     64  CD1       -8.9060    7.7600   -0.3580 C.3    65  ILE65       0.0001
     65  N        -13.8040    5.0680   -1.1230 N.am   66  MET66      -0.1979
     66  CA       -15.0020    4.8380   -1.8830 C.3    66  MET66       0.1605
     67  C        -16.2190    4.6930   -0.9650 C.2    66  MET66       0.2287
     68  O        -17.2490    5.2320   -1.2300 O.2    66  MET66      -0.2864
     69  CB       -14.8370    3.6260   -2.7970 C.3    66  MET66       0.0413
     70  CG       -13.7700    3.8290   -3.8430 C.3    66  MET66       0.0598
     71  SD       -13.4010    2.3130   -4.7570 S.3    66  MET66      -0.1393
     72  CE       -14.8400    2.2360   -5.7870 C.3    66  MET66       0.0692
     73  N        -17.0680    8.2460    0.5980 N.3    69  LEU69      -0.1245
     74  CA       -17.6720    9.1980   -0.3110 C.3    69  LEU69       0.1561
     75  C        -19.1730    9.0280   -0.4870 C.2    69  LEU69       0.2260
     76  O        -19.8930    9.9850   -0.5880 O.2    69  LEU69      -0.2867
     77  CB       -17.0240    9.1260   -1.6960 C.3    69  LEU69       0.0270
     78  CG       -15.5870    9.5590   -1.9060 C.3    69  LEU69       0.0019
     79  CD1      -15.1110    9.0780   -3.2610 C.3    69  LEU69       0.0001
     80  CD2      -15.4710   11.0680   -1.8000 C.3    69  LEU69       0.0001
     81  N        -19.8930    8.9770  -10.5720 N.3    75  ILE75      -0.1231
     82  CA       -18.7290    8.3910   -9.9800 C.3    75  ILE75       0.1692
     83  C        -18.8890    6.8870  -10.0700 C.2    75  ILE75       0.2591
     84  O        -19.9300    6.3960   -9.7730 O.2    75  ILE75      -0.2718
     85  CB       -18.6470    8.7870   -8.5070 C.3    75  ILE75       0.0266
     86  CG1      -18.5430   10.2970   -8.3380 C.3    75  ILE75       0.0019
     87  CG2      -17.5240    8.0690   -7.8270 C.3    75  ILE75       0.0020
     88  CD1      -17.2910   10.8860   -8.8950 C.3    75  ILE75       0.0001
     89  N        -17.8480    6.1710  -10.4430 N.am   76  VAL76      -0.1980
     90  CA       -17.9930    4.7450  -10.6810 C.3    76  VAL76       0.1595
     91  C        -18.4970    4.1170   -9.3840 C.2    76  VAL76       0.2287
     92  O        -17.9880    4.4060   -8.3620 O.2    76  VAL76      -0.2864
     93  CB       -16.6580    4.1270  -11.0850 C.3    76  VAL76       0.0276
     94  CG1      -15.6410    4.3130   -9.9840 C.3    76  VAL76       0.0022
     95  CG2      -16.8280    2.6920  -11.5100 C.3    76  VAL76       0.0022
     96  N        -12.0690   -5.1660   -5.0700 N.3    90  ILE90      -0.1245
     97  CA       -13.0840   -4.1140   -5.0480 C.3    90  ILE90       0.1561
     98  C        -13.9830   -4.3100   -6.2610 C.2    90  ILE90       0.2260
     99  O        -13.4910   -4.4100   -7.3920 O.2    90  ILE90      -0.2867
    100  CB       -12.4550   -2.7070   -5.0560 C.3    90  ILE90       0.0252
    101  CG1      -11.4960   -2.5210   -3.8740 C.3    90  ILE90       0.0019
    102  CG2      -13.5440   -1.6300   -5.0440 C.3    90  ILE90       0.0019
    103  CD1      -10.7760   -1.1630   -3.9200 C.3    90  ILE90       0.0001
    104  N        -17.1410   -2.9880   -8.6470 N.3    92  THR92      -0.1203
    105  CA       -17.9750   -1.8680   -9.0670 C.3    92  THR92       0.1994
    106  C        -18.8950   -2.2850  -10.2050 C.2    92  THR92       0.2618
    107  O        -18.7820   -3.3730  -10.7780 O.2    92  THR92      -0.2717
    108  CB       -17.1470   -0.6510   -9.5290 C.3    92  THR92       0.1784
    109  OG1      -16.4690   -0.9420  -10.7680 O.3    92  THR92      -0.2211
    110  CG2      -16.1520   -0.2280   -8.4640 C.3    92  THR92       0.0376
    111  N        -19.7930   -1.3710  -10.5570 N.am   93  GLU93      -0.1965
    112  CA       -20.5580   -1.5210  -11.7810 C.3    93  GLU93       0.1733
    113  C        -19.6160   -1.6520  -12.9750 C.2    93  GLU93       0.2616
    114  O        -18.4710   -1.1820  -12.9570 O.2    93  GLU93      -0.2715
    115  CB       -21.4760   -0.3180  -11.9690 C.3    93  GLU93       0.0429
    116  CG       -20.6920    0.9690  -12.1950 C.3    93  GLU93       0.1163
    117  CD       -21.5850    2.1870  -12.3240 C.2    93  GLU93       0.3649
    118  OE1      -21.2580    3.2180  -11.7020 O.co2  93  GLU93      -0.2457
    119  OE2      -22.6090    2.1050  -13.0430 O.co2  93  GLU93      -0.2457
    120  N        -20.0990   -2.3310  -14.0050 N.am   94  TYR94      -0.1960
    121  CA       -19.4320   -2.4010  -15.2970 C.3    94  TYR94       0.1771
    122  C        -20.0570   -1.3690  -16.2210 C.2    94  TYR94       0.2619
    123  O        -21.2760   -1.1630  -16.1960 O.2    94  TYR94      -0.2715
    124  CB       -19.5740   -3.8080  -15.8870 C.3    94  TYR94       0.0574
    125  CG       -19.0480   -3.9500  -17.2970 C.ar   94  TYR94      -0.0198
    126  CD1      -17.7070   -4.2180  -17.5340 C.ar   94  TYR94      -0.0009
    127  CD2      -19.8990   -3.8390  -18.3910 C.ar   94  TYR94      -0.0009
    128  CE1      -17.2170   -4.3560  -18.8250 C.ar   94  TYR94       0.0417
    129  CE2      -19.4240   -3.9840  -19.6800 C.ar   94  TYR94       0.0417
    130  CZ       -18.0850   -4.2460  -19.8950 C.ar   94  TYR94       0.1957
    131  OH       -17.6110   -4.3800  -21.1850 O.3    94  TYR94      -0.2866
    132  N        -19.2180   -0.6800  -16.9850 N.am   95  CYS95      -0.1968
    133  CA       -19.6870    0.3800  -17.8590 C.3    95  CYS95       0.1712
    134  C        -19.5480   -0.0730  -19.3010 C.2    95  CYS95       0.2296
    135  O        -18.4590   -0.3970  -19.7600 O.2    95  CYS95      -0.2864
    136  CB       -18.8870    1.6590  -17.6140 C.3    95  CYS95       0.0983
    137  SG       -19.0020    2.2870  -15.9210 S.3    95  CYS95      -0.0798
    138  N        -16.8480    1.3690  -21.9280 N.3    98  GLY98      -0.1210
    139  CA       -15.4710    1.4940  -21.5820 C.3    98  GLY98       0.1956
    140  C        -15.0490    2.9280  -21.3940 C.2    98  GLY98       0.2611
    141  O        -15.8210    3.7540  -21.0520 O.2    98  GLY98      -0.2717
    142  N        -13.7810    3.1990  -21.5850 N.am   99  ASP99      -0.1973
    143  CA       -13.2240    4.5170  -21.3110 C.3    99  ASP99       0.1709
    144  C        -13.5980    5.5250  -22.3920 C.2    99  ASP99       0.2293
    145  O        -13.7940    5.1830  -23.5620 O.2    99  ASP99      -0.2864
    146  CB       -11.7020    4.4480  -21.1970 C.3    99  ASP99       0.1436
    147  CG       -11.0470    4.2380  -22.5330 C.2    99  ASP99       0.3671
    148  OD1      -10.9440    3.0670  -22.9590 O.co2  99  ASP99      -0.2456
    149  OD2      -10.6600    5.2430  -23.1620 O.co2  99  ASP99      -0.2456
    150  N        -17.1080   15.3430   -5.8300 N.3   137  LEU137     -0.1245
    151  CA       -15.8270   15.0630   -5.1830 C.3   137  LEU137      0.1561
    152  C        -15.3250   16.2790   -4.4110 C.2   137  LEU137      0.2260
    153  O        -14.8690   16.1600   -3.2680 O.2   137  LEU137     -0.2867
    154  CB       -14.7970   14.6270   -6.2230 C.3   137  LEU137      0.0270
    155  CG       -15.0510   13.2690   -6.8640 C.3   137  LEU137      0.0019
    156  CD1      -13.8400   12.8870   -7.7220 C.3   137  LEU137      0.0001
    157  CD2      -15.3180   12.2240   -5.7750 C.3   137  LEU137      0.0001
    158  N        -12.3410   15.7630   -1.7970 N.3   142  CYS142     -0.1221
    159  CA       -11.6050   14.6890   -2.4470 C.3   142  CYS142      0.1808
    160  C        -10.9520   15.2630   -3.6980 C.2   142  CYS142      0.2601
    161  O        -11.6450   15.6820   -4.6340 O.2   142  CYS142     -0.2717
    162  CB       -12.5450   13.5280   -2.7710 C.3   142  CYS142      0.0970
    163  SG       -11.7570   12.1390   -3.5730 S.3   142  CYS142     -0.0800
    164  N         -9.6210   15.2910   -3.7010 N.am  143  VAL143     -0.1965
    165  CA        -8.8220   15.8070   -4.8090 C.3   143  VAL143      0.1727
    166  C         -8.3990   14.6370   -5.6840 C.2   143  VAL143      0.2616
    167  O         -7.8040   13.6660   -5.1980 O.2   143  VAL143     -0.2715
    168  CB        -7.6090   16.5910   -4.2870 C.3   143  VAL143      0.0290
    169  CG1       -6.7000   17.0500   -5.4400 C.3   143  VAL143      0.0023
    170  CG2       -8.0790   17.7910   -3.4630 C.3   143  VAL143      0.0023
    171  N         -8.7060   14.7250   -6.9810 N.am  144  HIS144     -0.1959
    172  CA        -8.5820   13.5490   -7.8370 C.3   144  HIS144      0.1787
    173  C         -7.1310   13.2650   -8.2190 C.2   144  HIS144      0.2620
    174  O         -6.6690   12.1230   -8.1060 O.2   144  HIS144     -0.2715
    175  CB        -9.4500   13.7240   -9.0880 C.3   144  HIS144      0.0785
    176  CG        -9.5610   12.4860   -9.9240 C.ar  144  HIS144      0.0821
    177  ND1       -8.4970   11.9620  -10.6260 N.ar  144  HIS144     -0.2267
    178  CD2      -10.6110   11.6690  -10.1700 C.ar  144  HIS144      0.1154
    179  CE1       -8.8870   10.8720  -11.2690 C.ar  144  HIS144      0.1986
    180  NE2      -10.1670   10.6710  -11.0090 N.ar  144  HIS144     -0.2212
    181  N         -6.4140   14.2850   -8.7040 N.am  145  ARG145     -0.1977
    182  CA        -4.9990   14.3260   -9.0740 C.3   145  ARG145      0.1597
    183  C         -4.6870   13.6650  -10.4230 C.2   145  ARG145      0.2287
    184  O         -3.5480   13.7550  -10.8670 O.2   145  ARG145     -0.2864
    185  CB        -4.0660   13.7030   -8.0130 C.3   145  ARG145      0.0334
    186  CG        -4.2700   14.2770   -6.6230 C.3   145  ARG145      0.0492
    187  CD        -3.2290   13.7460   -5.6470 C.3   145  ARG145      0.2205
    188  NE        -3.4010   14.3740   -4.3400 N.pl3 145  ARG145     -0.0865
    189  CZ        -2.4030   14.7640   -3.5560 C.cat 145  ARG145      0.5346
    190  NH1       -1.1460   14.5990   -3.9430 N.pl3 145  ARG145      0.1354
    191  NH2       -2.6700   15.3320   -2.3840 N.pl3 145  ARG145      0.1354
    192  N        -15.2460    6.6320  -17.5150 N.3   153  LEU153     -0.1245
    193  CA       -15.9500    5.5190  -18.1380 C.3   153  LEU153      0.1561
    194  C        -17.3320    5.9660  -18.5820 C.2   153  LEU153      0.2260
    195  O        -17.8950    6.9290  -18.0510 O.2   153  LEU153     -0.2867
    196  CB       -16.0790    4.3420  -17.1650 C.3   153  LEU153      0.0270
    197  CG       -14.7570    3.9320  -16.5330 C.3   153  LEU153      0.0019
    198  CD1      -15.0360    3.0030  -15.3640 C.3   153  LEU153      0.0001
    199  CD2      -13.8910    3.2320  -17.5820 C.3   153  LEU153      0.0001
    200  N        -16.6640    8.8670  -13.3650 N.3   162  ILE162     -0.1231
    201  CA       -15.2690    9.1730  -13.0720 C.3   162  ILE162      0.1692
    202  C        -14.6660    8.0470  -12.2430 C.2   162  ILE162      0.2592
    203  O        -15.3170    7.5000  -11.3430 O.2   162  ILE162     -0.2718
    204  CB       -15.1740   10.5220  -12.3490 C.3   162  ILE162      0.0266
    205  CG1      -15.8190   11.6040  -13.2260 C.3   162  ILE162      0.0019
    206  CG2      -13.7150   10.8580  -12.0050 C.3   162  ILE162      0.0020
    207  CD1      -16.0090   12.9490  -12.5150 C.3   162  ILE162      0.0001
    208  N        -13.4200    7.6890  -12.5510 N.am  163  CYS163     -0.1956
    209  CA       -12.6700    6.6890  -11.7960 C.3   163  CYS163      0.1843
    210  C        -11.2060    7.1210  -11.7440 C.2   163  CYS163      0.2625
    211  O        -10.8410    8.2040  -12.2040 O.2   163  CYS163     -0.2714
    212  CB       -12.8290    5.3030  -12.4340 C.3   163  CYS163      0.0997
    213  SG       -12.0360    5.1640  -14.0500 S.3   163  CYS163     -0.0797
    214  N        -10.3510    6.2590  -11.2030 N.am  164  ASP164     -0.1957
    215  CA        -8.9050    6.4310  -11.3430 C.3   164  ASP164      0.1840
    216  C         -8.2980    5.0320  -11.4160 C.2   164  ASP164      0.2622
    217  O         -8.2780    4.3230  -10.4010 O.2   164  ASP164     -0.2715
    218  CB        -8.3390    7.2430  -10.1770 C.3   164  ASP164      0.1450
    219  CG        -6.8310    7.4900  -10.2900 C.2   164  ASP164      0.3671
    220  OD1       -6.1800    6.9560  -11.2050 O.co2 164  ASP164     -0.2456
    221  OD2       -6.2850    8.2020   -9.4220 O.co2 164  ASP164     -0.2456
    222  N         -7.8520    4.6200  -12.6100 N.am  165  PHE165     -0.1974
    223  CA        -7.3030    3.2700  -12.7590 C.3   165  PHE165      0.1639
    224  C         -6.1780    3.0220  -11.7650 C.2   165  PHE165      0.2290
    225  O         -6.0360    1.9120  -11.2410 O.2   165  PHE165     -0.2864
    226  CB        -6.7860    3.0350  -14.1840 C.3   165  PHE165      0.0560
    227  CG        -7.8560    2.7400  -15.2070 C.ar  165  PHE165     -0.0200
    228  CD1       -8.8900    3.6360  -15.4450 C.ar  165  PHE165     -0.0042
    229  CD2       -7.7900    1.5880  -15.9830 C.ar  165  PHE165     -0.0042
    230  CE1       -9.8560    3.3720  -16.4220 C.ar  165  PHE165     -0.0003
    231  CE2       -8.7540    1.3160  -16.9580 C.ar  165  PHE165     -0.0003
    232  CZ        -9.7830    2.2010  -17.1750 C.ar  165  PHE165     -0.0000
@<TRIPOS>BOND
     1   145   144    2
     2   149   147   ar
     3   148   147   ar
     4    11     9    1
     5   147   146    1
     6     9    10    1
     7     9     8    2
     8   144   143    1
     9     7     8    1
    10     7     6    1
    11   138   139    1
    12   142   140   am
    13   142   143    1
    14   139   140    1
    15   140   141    2
    16   143   146    1
    17   131   130    1
    18     5     6    1
    19     5     2    1
    20   130   129   ar
    21   130   128   ar
    22   135   134    2
    23   129   127   ar
    24    19    17    1
    25     2     3    1
    26     2     1    1
    27    15    14    2
    28   134   133    1
    29   128   126   ar
    30     3     4    2
    31    13    14    1
    32    13    12    1
    33    13    16    1
    34   194   193    1
    35   194   195    2
    36   127   125   ar
    37   193   192    1
    38   193   196    1
    39    17    16    1
    40    17    18    1
    41   133   136    1
    42   133   132    1
    43   136   137    1
    44   199   197    1
    45   126   125   ar
    46   125   124    1
    47   232   231   ar
    48   232   230   ar
    49   196   197    1
    50   132   122   am
    51   231   229   ar
    52   197   198    1
    53   230   228   ar
    54   122   123    2
    55   122   121    1
    56   229   227   ar
    57   124   121    1
    58    23    22    2
    59   228   227   ar
    60   121   120    1
    61   227   226    1
    62    22    21    1
    63   226   223    1
    64   213   212    1
    65   120   113   am
    66    24    25    1
    67    24    21    1
    68    24    26    1
    69    20    21    1
    70   200   201    1
    71    31    28    1
    72   205   207    1
    73   205   204    1
    74   201   204    1
    75   201   202    1
    76   119   117   ar
    77   113   114    2
    78   113   112    1
    79    28    27    1
    80    28    29    1
    81   223   222    1
    82   223   224    1
    83   222   216   am
    84   208   202   am
    85   208   209    1
    86   212   209    1
    87   204   206    1
    88   117   116    1
    89   117   118   ar
    90   202   203    2
    91   211   210    2
    92   116   115    1
    93   115   112    1
    94   209   210    1
    95   112   111    1
    96   224   225    2
    97   210   214   am
    98    95    93    1
    99    32    29   am
   100    32    33    1
   101    29    30    2
   102   216   215    1
   103   216   217    2
   104   215   214    1
   105   215   218    1
   106   179   180   ar
   107   179   177   ar
   108   220   219   ar
   109    35    34    2
   110    93    90    1
   111    93    94    1
   112   180   178   ar
   113   184   183    2
   114   107   106    2
   115   109   108    1
   116    90    89    1
   117    90    91    1
   118   177   176   ar
   119    81    82    1
   120   111   106   am
   121    89    83   am
   122   183   182    1
   123   219   218    1
   124   219   221   ar
   125    34    33    1
   126    34    39   am
   127    33    36    1
   128   106   105    1
   129   178   176   ar
   130    38    36    1
   131    83    82    1
   132    83    84    2
   133    82    85    1
   134    36    37    1
   135   176   175    1
   136   108   105    1
   137   108   110    1
   138    91    92    2
   139    46    47    1
   140    46    45    1
   141    39    40    1
   142   175   172    1
   143    40    43    1
   144    40    41    1
   145   182   181    1
   146   182   185    1
   147   105   104    1
   148    44    43    1
   149    44    45    1
   150    88    86    1
   151   181   173   am
   152    85    86    1
   153    85    87    1
   154   173   174    2
   155   173   172    1
   156    41    42    2
   157   185   186    1
   158   172   171    1
   159   156   155    1
   160    99    98    2
   161   171   166   am
   162   155   154    1
   163   155   157    1
   164    56    54   ar
   165   186   187    1
   166    98    97    1
   167   154   151    1
   168    55    54   ar
   169    54    53    1
   170   150   151    1
   171    72    71    1
   172   166   167    2
   173   166   165    1
   174   187   188    1
   175   169   168    1
   176   151   152    1
   177    96    97    1
   178   100    97    1
   179   100   102    1
   180   100   101    1
   181   165   168    1
   182   165   164    1
   183    71    70    1
   184   161   160    2
   185    53    52    1
   186   152   153    2
   187   188   189    2
   188   168   170    1
   189   190   189    1
   190   103   101    1
   191    70    69    1
   192   164   160   am
   193   160   159    1
   194   163   162    1
   195   189   191    1
   196    52    49    1
   197    79    78    1
   198    69    66    1
   199   162   159    1
   200   159   158    1
   201    49    50    1
   202    49    48    1
   203    78    80    1
   204    78    77    1
   205    66    65    1
   206    66    67    1
   207    51    50    2
   208    77    74    1
   209    68    67    2
   210    63    61    1
   211    65    59   am
   212    76    75    2
   213    75    74    1
   214    61    58    1
   215    61    62    1
   216    59    60    2
   217    59    58    1
   218    64    62    1
   219    74    73    1
   220    58    57    1
