@<TRIPOS>MOLECULE
tmp/5grtA01.pdb
 146 138 0 0 0
SMALL
GASTEIGER

@<TRIPOS>ATOM
      1  N         56.0270   47.4690   21.2950 N.3    12  GLY12      -0.1210
      2  CA        57.3950   47.4120   20.8160 C.3    12  GLY12       0.1956
      3  C         58.1790   46.4650   21.7110 C.2    12  GLY12       0.2612
      4  O         57.5900   45.5580   22.2980 O.2    12  GLY12      -0.2717
      5  N         59.4870   46.6720   21.8430 N.am   13  SER13      -0.1952
      6  CA        60.3260   45.8250   22.6950 C.3    13  SER13       0.1924
      7  C         59.9090   45.7970   24.1790 C.2    13  SER13       0.2314
      8  O         59.8230   44.7190   24.7940 O.2    13  SER13      -0.2863
      9  CB        61.7870   46.2920   22.6380 C.3    13  SER13       0.2116
     10  OG        62.3060   46.2700   21.3150 O.3    13  SER13      -0.2180
     11  N         55.7340   44.7680   24.8010 N.3    16  LEU16      -0.1231
     12  CA        55.4940   43.3480   24.5970 C.3    16  LEU16       0.1693
     13  C         56.0780   42.4320   25.6830 C.2    16  LEU16       0.2591
     14  O         55.3660   41.5820   26.2050 O.2    16  LEU16      -0.2718
     15  CB        55.9970   42.9100   23.2280 C.3    16  LEU16       0.0284
     16  CG        55.2150   43.4650   22.0410 C.3    16  LEU16       0.0019
     17  CD1       55.4620   42.6340   20.7800 C.3    16  LEU16       0.0001
     18  CD2       53.7560   43.4780   22.3680 C.3    16  LEU16       0.0001
     19  N         57.3510   42.6180   26.0410 N.am   17  GLU17      -0.1979
     20  CA        58.0060   41.7730   27.0540 C.3    17  GLU17       0.1602
     21  C         57.3560   41.8900   28.4220 C.2    17  GLU17       0.2287
     22  O         57.1940   40.8970   29.1320 O.2    17  GLU17      -0.2864
     23  CB        59.5140   42.0880   27.1290 C.3    17  GLU17       0.0415
     24  CG        60.2830   41.4760   28.3340 C.3    17  GLU17       0.1163
     25  CD        60.6690   39.9720   28.2040 C.2    17  GLU17       0.3649
     26  OE1       60.5200   39.3610   27.1100 O.co2  17  GLU17      -0.2457
     27  OE2       61.1570   39.4080   29.2220 O.co2  17  GLU17      -0.2457
     28  N         54.0150   40.0570   28.2430 N.3    20  TRP20      -0.1241
     29  CA        54.2890   38.6170   28.2750 C.3    20  TRP20       0.1605
     30  C         54.6320   38.1410   29.6700 C.2    20  TRP20       0.2264
     31  O         54.0910   37.1450   30.1250 O.2    20  TRP20      -0.2867
     32  CB        55.4160   38.2030   27.3010 C.3    20  TRP20       0.0550
     33  CG        54.9580   38.0010   25.8640 C.ar   20  TRP20       0.0003
     34  CD1       53.7440   37.5140   25.4470 C.ar   20  TRP20       0.0946
     35  CD2       55.6680   38.3680   24.6630 C.ar   20  TRP20       0.0152
     36  NE1       53.6500   37.5760   24.0720 N.ar   20  TRP20      -0.2442
     37  CE2       54.8140   38.0920   23.5690 C.ar   20  TRP20       0.0810
     38  CE3       56.9310   38.9110   24.4120 C.ar   20  TRP20       0.0012
     39  CZ2       55.1850   38.3420   22.2420 C.ar   20  TRP20       0.0191
     40  CZ3       57.3000   39.1610   23.0830 C.ar   20  TRP20       0.0001
     41  CH2       56.4240   38.8750   22.0180 C.ar   20  TRP20       0.0015
     42  N         56.0900   44.6430   17.3400 N.3    38  GLY38      -0.1225
     43  CA        57.5110   44.4020   17.2090 C.3    38  GLY38       0.1811
     44  C         58.2010   45.7520   17.3890 C.2    38  GLY38       0.2280
     45  O         59.3950   45.7980   17.6580 O.2    38  GLY38      -0.2866
     46  N         62.4120   48.3790   16.6310 N.3    41  CYS41      -0.1221
     47  CA        63.4300   47.3650   16.3880 C.3    41  CYS41       0.1808
     48  C         63.1820   46.3620   15.2370 C.2    41  CYS41       0.2601
     49  O         64.0530   46.1450   14.3990 O.2    41  CYS41      -0.2717
     50  CB        63.6710   46.6270   17.6870 C.3    41  CYS41       0.0970
     51  SG        64.9070   45.3250   17.5940 S.3    41  CYS41      -0.0800
     52  N         61.9980   45.7680   15.1990 N.am   42  VAL42      -0.1979
     53  CA        61.6310   44.7970   14.1820 C.3    42  VAL42       0.1595
     54  C         61.2640   45.4560   12.8540 C.2    42  VAL42       0.2287
     55  O         61.6500   44.9860   11.7810 O.2    42  VAL42      -0.2864
     56  CB        60.3880   44.0060   14.6110 C.3    42  VAL42       0.0276
     57  CG1       60.0340   42.9640   13.5570 C.3    42  VAL42       0.0022
     58  CG2       60.5900   43.3730   15.9600 C.3    42  VAL42       0.0022
     59  N         66.3750   44.4730   13.4270 N.3    47  VAL47      -0.1245
     60  CA        66.1660   43.4640   12.3900 C.3    47  VAL47       0.1561
     61  C         66.5690   43.9330   10.9840 C.2    47  VAL47       0.2260
     62  O         67.5940   43.4860   10.4820 O.2    47  VAL47      -0.2867
     63  CB        64.7490   42.8470   12.4770 C.3    47  VAL47       0.0252
     64  CG1       64.5270   41.8170   11.3800 C.3    47  VAL47       0.0019
     65  CG2       64.5750   42.2030   13.8310 C.3    47  VAL47       0.0019
     66  N         60.9150   39.0270    5.6370 N.3    89  TYR89      -0.1241
     67  CA        61.3470   38.5090    6.9260 C.3    89  TYR89       0.1605
     68  C         60.6690   39.2660    8.0460 C.2    89  TYR89       0.2264
     69  O         60.2930   38.6890    9.0640 O.2    89  TYR89      -0.2867
     70  CB        62.8720   38.6050    7.0390 C.3    89  TYR89       0.0534
     71  CG        63.4260   38.1470    8.3690 C.ar   89  TYR89      -0.0201
     72  CD1       62.9790   36.9650    8.9720 C.ar   89  TYR89      -0.0009
     73  CD2       64.4430   38.8730    9.0100 C.ar   89  TYR89      -0.0009
     74  CE1       63.5330   36.5060   10.1800 C.ar   89  TYR89       0.0417
     75  CE2       65.0040   38.4240   10.2170 C.ar   89  TYR89       0.0417
     76  CZ        64.5490   37.2410   10.7950 C.ar   89  TYR89       0.1957
     77  OH        65.1130   36.7900   11.9750 O.3    89  TYR89      -0.2866
     78  N         58.0010   37.8630   10.9820 N.3    93  LEU93      -0.1245
     79  CA        58.1660   38.1370   12.4010 C.3    93  LEU93       0.1561
     80  C         56.9440   38.7780   13.0010 C.2    93  LEU93       0.2260
     81  O         56.6380   38.5420   14.1630 O.2    93  LEU93      -0.2867
     82  CB        59.3320   39.0900   12.6230 C.3    93  LEU93       0.0270
     83  CG        60.7680   38.6860   12.3660 C.3    93  LEU93       0.0019
     84  CD1       61.5840   39.9510   12.2060 C.3    93  LEU93       0.0001
     85  CD2       61.2430   37.8540   13.5310 C.3    93  LEU93       0.0001
     86  N         54.5110   36.2360   13.6990 N.3    96  ILE96      -0.1231
     87  CA        54.9880   35.5010   14.8590 C.3    96  ILE96       0.1692
     88  C         54.6450   36.2300   16.1520 C.2    96  ILE96       0.2592
     89  O         54.1800   35.6300   17.1170 O.2    96  ILE96      -0.2718
     90  CB        56.5300   35.3100   14.7600 C.3    96  ILE96       0.0266
     91  CG1       56.8540   34.2380   13.7390 C.3    96  ILE96       0.0019
     92  CG2       57.1390   34.9560   16.1070 C.3    96  ILE96       0.0020
     93  CD1       58.3040   34.0830   13.4930 C.3    96  ILE96       0.0001
     94  N         54.9020   37.5280   16.1800 N.am   97  TYR97      -0.1976
     95  CA        54.6370   38.3130   17.3680 C.3    97  TYR97       0.1639
     96  C         53.1540   38.4020   17.6740 C.2    97  TYR97       0.2290
     97  O         52.7770   38.5290   18.8430 O.2    97  TYR97      -0.2864
     98  CB        55.2820   39.6890   17.2420 C.3    97  TYR97       0.0560
     99  CG        56.7980   39.6600   17.3430 C.ar   97  TYR97      -0.0198
    100  CD1       57.5230   38.4940   17.0930 C.ar   97  TYR97      -0.0009
    101  CD2       57.5040   40.7870   17.7500 C.ar   97  TYR97      -0.0009
    102  CE1       58.9160   38.4580   17.2530 C.ar   97  TYR97       0.0417
    103  CE2       58.8860   40.7560   17.9160 C.ar   97  TYR97       0.0417
    104  CZ        59.5810   39.5920   17.6700 C.ar   97  TYR97       0.1957
    105  OH        60.9360   39.5740   17.8610 O.3    97  TYR97      -0.2866
    106  N         52.1430   34.9280   19.2870 N.3   100  ASN100     -0.1240
    107  CA        52.5840   34.8180   20.6790 C.3   100  ASN100      0.1653
    108  C         51.6440   35.5080   21.6340 C.2   100  ASN100      0.2266
    109  O         51.3190   34.9650   22.6810 O.2   100  ASN100     -0.2867
    110  CB        53.9720   35.4350   20.8630 C.3   100  ASN100      0.1155
    111  CG        55.0760   34.5830   20.2780 C.2   100  ASN100      0.2627
    112  OD1       54.8420   33.4530   19.8410 O.2   100  ASN100     -0.2716
    113  ND2       56.2970   35.1240   20.2630 N.am  100  ASN100     -0.0877
    114  N         66.9640   48.0360   22.5160 N.3   322  THR322     -0.1204
    115  CA        65.9150   47.0440   22.6800 C.3   322  THR322      0.1979
    116  C         66.0780   46.2000   23.9580 C.2   322  THR322      0.2459
    117  O         65.1390   46.0990   24.7560 O.2   322  THR322     -0.2732
    118  CB        65.8220   46.1450   21.4480 C.3   322  THR322      0.1783
    119  OG1       65.1380   46.8200   20.3880 O.3   322  THR322     -0.2211
    120  CG2       65.0810   44.9230   21.7740 C.3   322  THR322      0.0376
    121  N         67.2500   45.5600   24.1670 N.am  323  PRO323     -0.2728
    122  CA        67.3390   44.7700   25.4090 C.3   323  PRO323      0.1401
    123  C         67.2530   45.5280   26.7600 C.2   323  PRO323      0.2269
    124  O         67.0890   44.9020   27.8050 O.2   323  PRO323     -0.2865
    125  CB        68.6250   43.9510   25.2220 C.3   323  PRO323      0.0296
    126  CG        69.3840   44.6730   24.1490 C.3   323  PRO323      0.0237
    127  CD        68.3360   45.2060   23.2350 C.3   323  PRO323      0.0939
    128  N         63.3400   45.8050   27.0240 N.3   326  ILE326     -0.1245
    129  CA        62.8890   44.4780   27.4360 C.3   326  ILE326      0.1561
    130  C         63.1780   44.2700   28.9310 C.2   326  ILE326      0.2260
    131  O         62.2660   44.1290   29.7450 O.2   326  ILE326     -0.2867
    132  CB        63.6330   43.4090   26.6100 C.3   326  ILE326      0.0252
    133  CG1       63.1150   43.3860   25.1810 C.3   326  ILE326      0.0019
    134  CG2       63.5620   42.0270   27.2430 C.3   326  ILE326      0.0019
    135  CD1       63.9550   42.5410   24.3260 C.3   326  ILE326      0.0001
    136  N         60.3240   43.4860   31.8570 N.3   330  ARG330     -0.1245
    137  CA        60.3820   42.1910   32.5070 C.3   330  ARG330      0.1563
    138  C         60.5610   42.3950   34.0060 C.2   330  ARG330      0.2260
    139  O         59.8930   41.7490   34.8040 O.2   330  ARG330     -0.2867
    140  CB        61.5760   41.4320   31.9440 C.3   330  ARG330      0.0307
    141  CG        62.1150   40.2930   32.7780 C.3   330  ARG330      0.0489
    142  CD        63.5610   39.9720   32.3620 C.3   330  ARG330      0.2205
    143  NE        63.6540   39.8100   30.9090 N.pl3 330  ARG330     -0.0865
    144  CZ        64.7660   39.5440   30.2280 C.cat 330  ARG330      0.5346
    145  NH1       65.9400   39.4050   30.8500 N.pl3 330  ARG330      0.1354
    146  NH2       64.6820   39.3680   28.9130 N.pl3 330  ARG330      0.1354
@<TRIPOS>BOND
     1    66    67    1
     2    67    70    1
     3    67    68    1
     4    70    71    1
     5    68    69    2
     6    71    72   ar
     7    71    73   ar
     8    72    74   ar
     9    73    75   ar
    10    74    76   ar
    11    75    76   ar
    12    62    61    2
    13    76    77    1
    14    78    79    1
    15    61    60    1
    16    64    63    1
    17    55    54    2
    18    84    83    1
    19    83    82    1
    20    83    85    1
    21    60    63    1
    22    60    59    1
    23    79    82    1
    24    79    80    1
    25    63    65    1
    26    54    53    1
    27    80    81    2
    28    93    91    1
    29    57    56    1
    30    86    87    1
    31    91    90    1
    32    53    56    1
    33    53    52    1
    34    49    48    2
    35    56    58    1
    36    90    87    1
    37    90    92    1
    38    87    88    1
    39    52    48   am
    40    48    47    1
    41    88    94   am
    42    88    89    2
    43    94    95    1
    44    47    46    1
    45    47    50    1
    46   100   102   ar
    47   100    99   ar
    48    43    42    1
    49    43    44    1
    50    98    99    1
    51    98    95    1
    52   102   104   ar
    53    99   101   ar
    54    95    96    1
    55    44    45    2
    56    51    50    1
    57   104   105    1
    58   104   103   ar
    59    96    97    2
    60   101   103   ar
    61   106   107    1
    62   112   111    2
    63   113   111   am
    64   111   110    1
    65   119   118    1
    66   107   110    1
    67   107   108    1
    68    17    16    1
    69     2     1    1
    70     2     3    1
    71    10     9    1
    72   118   120    1
    73   118   115    1
    74   108   109    2
    75     3     5   am
    76     3     4    2
    77     5     6    1
    78    41    39   ar
    79    41    40   ar
    80    16    18    1
    81    16    15    1
    82    39    37   ar
    83   114   115    1
    84     9     6    1
    85   115   116    1
    86     6     7    1
    87    40    38   ar
    88    15    12    1
    89   127   126    1
    90   127   121    1
    91    37    36   ar
    92    37    35   ar
    93   116   121   am
    94   116   117    2
    95    36    34   ar
    96   126   125    1
    97   121   122    1
    98     7     8    2
    99   135   133    1
   100    38    35   ar
   101    12    11    1
   102    12    13    1
   103    35    33   ar
   104   133   132    1
   105   125   122    1
   106   122   123    1
   107    34    33   ar
   108    13    19   am
   109    13    14    2
   110    33    32    1
   111    19    20    1
   112   132   134    1
   113   132   129    1
   114   123   124    2
   115   128   129    1
   116    20    23    1
   117    20    21    1
   118    26    25   ar
   119    23    24    1
   120    32    29    1
   121   129   130    1
   122    25    24    1
   123    25    27   ar
   124    28    29    1
   125    29    30    1
   126    21    22    2
   127   146   144    1
   128   130   131    2
   129    30    31    2
   130   144   145    1
   131   144   143    2
   132   143   142    1
   133   136   137    1
   134   140   137    1
   135   140   141    1
   136   142   141    1
   137   137   138    1
   138   138   139    2
