@<TRIPOS>MOLECULE
tmp/5gs0D07.pdb
 100 91 0 0 0
SMALL
GASTEIGER

@<TRIPOS>ATOM
      1  N        -27.0950  -24.6500   -7.1950 N.3   335  GLU335     -0.1245
      2  CA       -27.0570  -23.7650   -8.3450 C.3   335  GLU335      0.1567
      3  C        -26.6190  -22.3320   -7.9920 C.2   335  GLU335      0.2260
      4  O        -26.5590  -21.9140   -6.8250 O.2   335  GLU335     -0.2867
      5  CB       -28.3990  -23.7820   -9.0850 C.3   335  GLU335      0.0388
      6  CG       -29.6200  -23.5010   -8.2710 C.3   335  GLU335      0.1160
      7  CD       -30.9170  -23.6890   -9.0770 C.2   335  GLU335      0.3649
      8  OE1      -31.1600  -24.8010   -9.6240 O.co2 335  GLU335     -0.2457
      9  OE2      -31.6880  -22.7020   -9.1750 O.co2 335  GLU335     -0.2457
     10  N        -31.5380  -36.2970   -7.2240 N.3   355  TYR355     -0.1241
     11  CA       -31.6100  -35.0650   -7.9980 C.3   355  TYR355      0.1605
     12  C        -30.4300  -34.2010   -7.6130 C.2   355  TYR355      0.2264
     13  O        -30.2680  -33.8820   -6.4360 O.2   355  TYR355     -0.2867
     14  CB       -32.9210  -34.3190   -7.7310 C.3   355  TYR355      0.0534
     15  CG       -32.9950  -32.9010   -8.2730 C.ar  355  TYR355     -0.0201
     16  CD1      -32.3660  -31.8530   -7.6150 C.ar  355  TYR355     -0.0009
     17  CD2      -33.7370  -32.6040   -9.4120 C.ar  355  TYR355     -0.0009
     18  CE1      -32.4410  -30.5540   -8.0960 C.ar  355  TYR355      0.0417
     19  CE2      -33.8190  -31.3040   -9.9070 C.ar  355  TYR355      0.0417
     20  CZ       -33.1680  -30.2790   -9.2380 C.ar  355  TYR355      0.1957
     21  OH       -33.2120  -28.9630   -9.6710 O.3   355  TYR355     -0.2866
     22  N        -28.7810  -30.5440   -8.9970 N.3   357  SER357     -0.1217
     23  CA       -28.7980  -29.3960   -9.8980 C.3   357  SER357      0.1889
     24  C        -27.4920  -28.6410   -9.7580 C.2   357  SER357      0.2288
     25  O        -27.1970  -28.0990   -8.6880 O.2   357  SER357     -0.2866
     26  CB       -29.9600  -28.4460   -9.6070 C.3   357  SER357      0.2089
     27  OG       -29.9500  -27.3030  -10.4660 O.3   357  SER357     -0.2183
     28  N        -26.5940  -25.9960  -11.9220 N.3   359  SER359     -0.1217
     29  CA       -26.6870  -24.8540  -12.8240 C.3   359  SER359      0.1889
     30  C        -25.8450  -23.6790  -12.3560 C.2   359  SER359      0.2288
     31  O        -26.0800  -23.1170  -11.2870 O.2   359  SER359     -0.2866
     32  CB       -28.1330  -24.4190  -12.9490 C.3   359  SER359      0.2089
     33  OG       -28.2450  -23.2090  -13.6790 O.3   359  SER359     -0.2183
     34  N        -31.5660  -37.3040  -12.1120 N.3   383  ILE383     -0.1245
     35  CA       -31.6340  -35.9730  -12.7130 C.3   383  ILE383      0.1561
     36  C        -30.3300  -35.2500  -12.4500 C.2   383  ILE383      0.2260
     37  O        -29.9320  -35.0770  -11.2910 O.2   383  ILE383     -0.2867
     38  CB       -32.8130  -35.1600  -12.1670 C.3   383  ILE383      0.0252
     39  CG1      -34.0840  -35.9290  -12.4160 C.3   383  ILE383      0.0019
     40  CG2      -32.8840  -33.7850  -12.7870 C.3   383  ILE383      0.0019
     41  CD1      -35.2570  -35.2010  -12.0390 C.3   383  ILE383      0.0001
     42  N        -28.5210  -31.7010  -13.7130 N.3   385  ASN385     -0.1240
     43  CA       -28.6000  -30.4580  -14.4480 C.3   385  ASN385      0.1653
     44  C        -27.2470  -29.7600  -14.4750 C.2   385  ASN385      0.2266
     45  O        -26.6550  -29.5240  -13.4130 O.2   385  ASN385     -0.2867
     46  CB       -29.6280  -29.5420  -13.8460 C.3   385  ASN385      0.1155
     47  CG       -29.5150  -28.1870  -14.4120 C.2   385  ASN385      0.2627
     48  OD1      -29.5870  -27.2150  -13.6880 O.2   385  ASN385     -0.2716
     49  ND2      -29.3340  -28.0920  -15.7130 N.am  385  ASN385     -0.0877
     50  N        -26.6070  -26.8360  -16.6560 N.3   387  THR387     -0.1203
     51  CA       -26.7310  -25.6050  -17.4440 C.3   387  THR387      0.1994
     52  C        -25.8850  -24.4420  -16.9030 C.2   387  THR387      0.2617
     53  O        -25.5400  -24.3640  -15.7240 O.2   387  THR387     -0.2717
     54  CB       -28.1910  -25.1490  -17.5320 C.3   387  THR387      0.1784
     55  OG1      -28.8160  -25.1250  -16.2360 O.3   387  THR387     -0.2211
     56  CG2      -28.9880  -26.0210  -18.5130 C.3   387  THR387      0.0376
     57  N        -25.6160  -23.4900  -17.7930 N.am  388  LYS388     -0.1979
     58  CA       -25.0010  -22.2130  -17.4310 C.3   388  LYS388      0.1596
     59  C        -23.6240  -22.3930  -16.7940 C.2   388  LYS388      0.2287
     60  O        -23.2180  -21.6440  -15.8950 O.2   388  LYS388     -0.2864
     61  CB       -25.9370  -21.3920  -16.5410 C.3   388  LYS388      0.0298
     62  CG       -27.2550  -21.0130  -17.2620 C.3   388  LYS388      0.0038
     63  CD       -28.1380  -20.0030  -16.4750 C.3   388  LYS388      0.0206
     64  CE       -28.6190  -20.5570  -15.1150 C.3   388  LYS388      0.1093
     65  NZ       -29.4560  -19.6660  -14.2120 N.3   388  LYS388     -0.1314
     66  N        -32.6670  -37.9230  -16.8480 N.3   407  VAL407     -0.1245
     67  CA       -32.7190  -36.5700  -17.4000 C.3   407  VAL407      0.1561
     68  C        -31.3530  -35.9320  -17.2340 C.2   407  VAL407      0.2260
     69  O        -30.8030  -35.9280  -16.1290 O.2   407  VAL407     -0.2867
     70  CB       -33.7610  -35.6880  -16.6980 C.3   407  VAL407      0.0252
     71  CG1      -33.8470  -34.3800  -17.4050 C.3   407  VAL407      0.0019
     72  CG2      -35.0940  -36.3570  -16.6670 C.3   407  VAL407      0.0019
     73  N        -29.3720  -32.2790  -18.4350 N.3   409  ASP409     -0.1239
     74  CA       -29.5270  -30.9890  -19.0870 C.3   409  ASP409      0.1674
     75  C        -28.1620  -30.3420  -19.3100 C.2   409  ASP409      0.2266
     76  O        -27.5270  -29.8630  -18.3640 O.2   409  ASP409     -0.2867
     77  CB       -30.4520  -30.1080  -18.2670 C.3   409  ASP409      0.1410
     78  CG       -30.8820  -28.8700  -19.0060 C.2   409  ASP409      0.3668
     79  OD1      -30.1880  -28.4540  -19.9800 O.co2 409  ASP409     -0.2456
     80  OD2      -31.9270  -28.3080  -18.5920 O.co2 409  ASP409     -0.2456
     81  N        -27.6660  -24.2520  -22.5430 N.3   412  LEU412     -0.1245
     82  CA       -27.0860  -22.9730  -22.1240 C.3   412  LEU412      0.1561
     83  C        -25.6070  -23.1040  -21.7540 C.2   412  LEU412      0.2260
     84  O        -25.1650  -22.6550  -20.6900 O.2   412  LEU412     -0.2867
     85  CB       -27.8730  -22.3700  -20.9690 C.3   412  LEU412      0.0270
     86  CG       -29.3480  -22.2160  -21.3130 C.3   412  LEU412      0.0019
     87  CD1      -30.0570  -21.8840  -20.0540 C.3   412  LEU412      0.0001
     88  CD2      -29.6090  -21.1570  -22.3690 C.3   412  LEU412      0.0001
     89  N        -31.0960  -32.4860  -22.9840 N.3   434  TYR434     -0.1241
     90  CA       -31.2670  -31.1160  -23.4510 C.3   434  TYR434      0.1605
     91  C        -29.9190  -30.5660  -23.8380 C.2   434  TYR434      0.2264
     92  O        -29.0650  -30.3600  -22.9720 O.2   434  TYR434     -0.2867
     93  CB       -31.8870  -30.2430  -22.3900 C.3   434  TYR434      0.0534
     94  CG       -33.2190  -30.7110  -21.9050 C.ar  434  TYR434     -0.0201
     95  CD1      -33.3090  -31.7640  -21.0000 C.ar  434  TYR434     -0.0009
     96  CD2      -34.3730  -30.0220  -22.2250 C.ar  434  TYR434     -0.0009
     97  CE1      -34.5170  -32.1760  -20.4930 C.ar  434  TYR434      0.0417
     98  CE2      -35.5930  -30.4250  -21.7010 C.ar  434  TYR434      0.0417
     99  CZ       -35.6490  -31.5010  -20.8340 C.ar  434  TYR434      0.1957
    100  OH       -36.8360  -31.9270  -20.3130 O.3   434  TYR434     -0.2866
@<TRIPOS>BOND
     1    91    90    1
     2    91    92    2
     3    90    89    1
     4    90    93    1
     5    81    82    1
     6    93    94    1
     7    88    86    1
     8    96    94   ar
     9    96    98   ar
    10    82    83    1
    11    82    85    1
    12    94    95   ar
    13    83    84    2
    14    98    99   ar
    15    86    85    1
    16    86    87    1
    17    95    97   ar
    18    99    97   ar
    19    99   100    1
    20    79    78   ar
    21    75    74    1
    22    75    76    2
    23    74    73    1
    24    74    77    1
    25    78    80   ar
    26    78    77    1
    27    56    54    1
    28    57    58    1
    29    57    52   am
    30    54    51    1
    31    54    55    1
    32    51    52    1
    33    51    50    1
    34    58    59    1
    35    58    61    1
    36    71    70    1
    37    67    68    1
    38    67    66    1
    39    67    70    1
    40    62    61    1
    41    62    63    1
    42    68    69    2
    43    52    53    2
    44    59    60    2
    45    70    72    1
    46    63    64    1
    47    49    47   am
    48    64    65    1
    49    44    43    1
    50    44    45    2
    51    43    46    1
    52    43    42    1
    53    47    46    1
    54    47    48    2
    55    33    32    1
    56    32    29    1
    57    29    30    1
    58    29    28    1
    59    40    38    1
    60    35    36    1
    61    35    38    1
    62    35    34    1
    63    36    37    2
    64    39    38    1
    65    39    41    1
    66    30    31    2
    67    27    26    1
    68    19    17   ar
    69    19    20   ar
    70    23    24    1
    71    23    26    1
    72    23    22    1
    73    24    25    2
    74    21    20    1
    75     8     7   ar
    76    17    15   ar
    77    20    18   ar
    78     9     7   ar
    79     5     2    1
    80     5     6    1
    81     7     6    1
    82     2     3    1
    83     2     1    1
    84    15    14    1
    85    15    16   ar
    86    18    16   ar
    87    11    14    1
    88    11    12    1
    89    11    10    1
    90     3     4    2
    91    12    13    2
