@<TRIPOS>MOLECULE
tmp/5gs4A00.pdb
 125 116 0 0 0
SMALL
GASTEIGER

@<TRIPOS>ATOM
      1  N        -19.1060  -16.3120   16.2960 N.3    44  VAL44      -0.1245
      2  CA       -18.6640  -16.6830   17.6430 C.3    44  VAL44       0.1561
      3  C        -17.1490  -16.8520   17.6630 C.2    44  VAL44       0.2260
      4  O        -16.4590  -16.3450   18.5550 O.2    44  VAL44      -0.2867
      5  CB       -19.3900  -17.9670   18.1180 C.3    44  VAL44       0.0252
      6  CG1      -18.7700  -18.5490   19.3910 C.3    44  VAL44       0.0019
      7  CG2      -20.8750  -17.7020   18.3400 C.3    44  VAL44       0.0019
      8  N        -15.0010  -13.5670   17.0880 N.3    47  ILE47      -0.1231
      9  CA       -14.7990  -12.8060   18.3250 C.3    47  ILE47       0.1692
     10  C        -13.6000  -13.3390   19.1030 C.2    47  ILE47       0.2592
     11  O        -12.7270  -12.5770   19.5320 O.2    47  ILE47      -0.2718
     12  CB       -16.0750  -12.8280   19.1830 C.3    47  ILE47       0.0266
     13  CG1      -17.2220  -12.0840   18.4750 C.3    47  ILE47       0.0019
     14  CG2      -15.7960  -12.2470   20.5590 C.3    47  ILE47       0.0020
     15  CD1      -18.5740  -12.2250   19.1590 C.3    47  ILE47       0.0001
     16  N        -13.5420  -14.6540   19.3130 N.am   48  ASN48      -0.1974
     17  CA       -12.3640  -15.2260   19.9600 C.3    48  ASN48       0.1688
     18  C        -11.0970  -14.8520   19.2110 C.2    48  ASN48       0.2292
     19  O        -10.0500  -14.6040   19.8220 O.2    48  ASN48      -0.2864
     20  CB       -12.4620  -16.7520   20.0420 C.3    48  ASN48       0.1181
     21  CG       -13.6620  -17.2260   20.8250 C.2    48  ASN48       0.2629
     22  OD1      -14.1540  -16.5380   21.7250 O.2    48  ASN48      -0.2716
     23  ND2      -14.1420  -18.4210   20.4860 N.am   48  ASN48      -0.0877
     24  N         -9.8700  -10.9830   19.6220 N.3    51  LYS51      -0.1245
     25  CA        -9.1940  -10.8000   20.9040 C.3    51  LYS51       0.1561
     26  C         -7.7300  -11.2110   20.8210 C.2    51  LYS51       0.2260
     27  O         -6.8820  -10.6390   21.5170 O.2    51  LYS51      -0.2867
     28  CB        -9.8940  -11.6140   21.9930 C.3    51  LYS51       0.0271
     29  CG       -11.3360  -11.2610   22.2450 C.3    51  LYS51       0.0035
     30  CD       -11.9640  -12.3290   23.1160 C.3    51  LYS51       0.0206
     31  CE       -12.7840  -11.7350   24.2520 C.3    51  LYS51       0.1093
     32  NZ       -13.4100  -12.8220   25.0420 N.3    51  LYS51      -0.1314
     33  N         -5.6700   -5.4630   19.7460 N.3    56  PHE56      -0.1241
     34  CA        -7.1230   -5.4010   19.7570 C.3    56  PHE56       0.1605
     35  C         -7.6650   -5.2750   21.1740 C.2    56  PHE56       0.2264
     36  O         -8.5680   -4.4720   21.4310 O.2    56  PHE56      -0.2867
     37  CB        -7.7190   -6.6190   19.0630 C.3    56  PHE56       0.0534
     38  CG        -9.2090   -6.5510   18.9490 C.ar   56  PHE56      -0.0203
     39  CD1       -9.8040   -5.8410   17.9120 C.ar   56  PHE56      -0.0042
     40  CD2      -10.0200   -7.1650   19.8890 C.ar   56  PHE56      -0.0042
     41  CE1      -11.1790   -5.7670   17.7940 C.ar   56  PHE56      -0.0003
     42  CE2      -11.4120   -7.0990   19.7710 C.ar   56  PHE56      -0.0003
     43  CZ       -11.9830   -6.3950   18.7250 C.ar   56  PHE56      -0.0000
     44  N        -13.8320   -1.5810   25.0970 N.3    61  LEU61      -0.1245
     45  CA       -14.8610   -2.5270   24.6740 C.3    61  LEU61       0.1561
     46  C        -15.7700   -1.9140   23.6110 C.2    61  LEU61       0.2260
     47  O        -16.0910   -2.5610   22.6050 O.2    61  LEU61      -0.2867
     48  CB       -15.6770   -2.9900   25.8840 C.3    61  LEU61       0.0270
     49  CG       -16.9580   -3.7990   25.6450 C.3    61  LEU61       0.0019
     50  CD1      -16.6500   -5.1880   25.0680 C.3    61  LEU61       0.0001
     51  CD2      -17.7940   -3.9130   26.9100 C.3    61  LEU61       0.0001
     52  N        -13.9070   -2.1470   20.4920 N.3    64  GLN64      -0.1231
     53  CA       -13.8840   -3.5210   20.0150 C.3    64  GLN64       0.1698
     54  C        -15.1960   -3.8550   19.3200 C.2    64  GLN64       0.2592
     55  O        -15.2100   -4.3280   18.1780 O.2    64  GLN64      -0.2718
     56  CB       -13.6090   -4.4620   21.1850 C.3    64  GLN64       0.0381
     57  CG       -12.2060   -4.3190   21.7320 C.3    64  GLN64       0.0905
     58  CD       -11.9740   -5.1690   22.9530 C.2    64  GLN64       0.2608
     59  OE1      -12.7490   -6.0790   23.2380 O.2    64  GLN64      -0.2717
     60  NE2      -10.9020   -4.8800   23.6900 N.am   64  GLN64      -0.0878
     61  N        -16.3110   -3.5570   19.9830 N.am   65  VAL65      -0.1980
     62  CA       -17.6210   -3.7820   19.3910 C.3    65  VAL65       0.1595
     63  C        -17.7550   -3.0260   18.0760 C.2    65  VAL65       0.2287
     64  O        -18.3600   -3.5260   17.1230 O.2    65  VAL65      -0.2864
     65  CB       -18.7240   -3.3830   20.3840 C.3    65  VAL65       0.0276
     66  CG1      -20.0370   -3.2140   19.6480 C.3    65  VAL65       0.0022
     67  CG2      -18.8380   -4.4250   21.5050 C.3    65  VAL65       0.0022
     68  N        -15.5130   -4.7910   15.0790 N.3    68  LEU68      -0.1231
     69  CA       -16.1010   -6.0490   14.6300 C.3    68  LEU68       0.1693
     70  C        -17.4030   -5.8160   13.8690 C.2    68  LEU68       0.2591
     71  O        -17.6500   -6.4530   12.8420 O.2    68  LEU68      -0.2718
     72  CB       -16.3150   -6.9750   15.8340 C.3    68  LEU68       0.0284
     73  CG       -15.0590   -7.7580   16.2550 C.3    68  LEU68       0.0019
     74  CD1      -15.1490   -8.2820   17.7110 C.3    68  LEU68       0.0001
     75  CD2      -14.7430   -8.9030   15.2410 C.3    68  LEU68       0.0001
     76  N        -18.2310   -4.8890   14.3450 N.am   69  GLU69      -0.1979
     77  CA       -19.4660   -4.5490   13.6470 C.3    69  GLU69       0.1602
     78  C        -19.2020   -4.0240   12.2400 C.2    69  GLU69       0.2287
     79  O        -19.9840   -4.2850   11.3180 O.2    69  GLU69      -0.2864
     80  CB       -20.2490   -3.5110   14.4510 C.3    69  GLU69       0.0415
     81  CG       -21.0070   -4.0720   15.6220 C.3    69  GLU69       0.1163
     82  CD       -21.6730   -2.9840   16.4590 C.2    69  GLU69       0.3649
     83  OE1      -21.5170   -1.7800   16.1410 O.co2  69  GLU69      -0.2457
     84  OE2      -22.3550   -3.3310   17.4440 O.co2  69  GLU69      -0.2457
     85  N        -29.2100  -15.0150   16.5680 N.3   227  ASP227     -0.1225
     86  CA       -29.2110  -13.8070   17.4000 C.3   227  ASP227      0.1805
     87  C        -27.9700  -12.9580   17.1860 C.2   227  ASP227      0.2597
     88  O        -28.0640  -11.7220   17.1480 O.2   227  ASP227     -0.2718
     89  CB       -29.3200  -14.1710   18.8810 C.3   227  ASP227      0.1424
     90  CG       -30.7450  -14.4530   19.3180 C.2   227  ASP227      0.3668
     91  OD1      -31.6990  -13.9210   18.7030 O.co2 227  ASP227     -0.2456
     92  OD2      -30.9040  -15.2150   20.2910 O.co2 227  ASP227     -0.2456
     93  N        -26.7940  -13.5990   17.0760 N.am  228  LEU228     -0.1979
     94  CA       -25.5510  -12.8470   16.9050 C.3   228  LEU228      0.1596
     95  C        -25.4590  -12.2420   15.5110 C.2   228  LEU228      0.2287
     96  O        -25.0450  -11.0820   15.3600 O.2   228  LEU228     -0.2864
     97  CB       -24.3360  -13.7360   17.1820 C.3   228  LEU228      0.0297
     98  CG       -22.9600  -13.0670   16.9930 C.3   228  LEU228      0.0022
     99  CD1      -22.7900  -11.8100   17.8570 C.3   228  LEU228      0.0001
    100  CD2      -21.8350  -14.0590   17.2560 C.3   228  LEU228      0.0001
    101  N        -27.6450   -9.3210   15.3210 N.3   231  GLU231     -0.1231
    102  CA       -26.9840   -8.2770   16.0990 C.3   231  GLU231      0.1699
    103  C        -25.9720   -7.5190   15.2470 C.2   231  GLU231      0.2592
    104  O        -25.9750   -6.2850   15.2070 O.2   231  GLU231     -0.2718
    105  CB       -26.3050   -8.9210   17.3110 C.3   231  GLU231      0.0402
    106  CG       -26.3670   -8.1790   18.6310 C.3   231  GLU231      0.1161
    107  CD       -25.8180   -9.0220   19.7800 C.2   231  GLU231      0.3649
    108  OE1      -26.5850   -9.8190   20.3730 O.co2 231  GLU231     -0.2457
    109  OE2      -24.6110   -8.9070   20.0720 O.co2 231  GLU231     -0.2457
    110  N        -25.0890   -8.2430   14.5590 N.am  232  MET232     -0.1979
    111  CA       -24.1590   -7.5870   13.6430 C.3   232  MET232      0.1605
    112  C        -24.9080   -6.8470   12.5400 C.2   232  MET232      0.2287
    113  O        -24.6340   -5.6730   12.2640 O.2   232  MET232     -0.2864
    114  CB       -23.2130   -8.6110   13.0280 C.3   232  MET232      0.0413
    115  CG       -22.4970   -9.4550   14.0350 C.3   232  MET232      0.0598
    116  SD       -21.3310   -8.4710   14.9660 S.3   232  MET232     -0.1393
    117  CE       -20.0710   -9.7130   15.2270 C.3   232  MET232      0.0692
    118  N        -27.7990   -5.5660   12.3850 N.3   234  ASP234     -0.1239
    119  CA       -28.5860   -4.4010   12.7890 C.3   234  ASP234      0.1674
    120  C        -27.7400   -3.2360   13.2980 C.2   234  ASP234      0.2266
    121  O        -28.3030   -2.2220   13.7240 O.2   234  ASP234     -0.2867
    122  CB       -29.6330   -4.8050   13.8340 C.3   234  ASP234      0.1410
    123  CG       -30.8090   -5.5580   13.2070 C.2   234  ASP234      0.3668
    124  OD1      -31.2080   -5.1800   12.0750 O.co2 234  ASP234     -0.2456
    125  OD2      -31.3180   -6.5320   13.8230 O.co2 234  ASP234     -0.2456
@<TRIPOS>BOND
     1    79    78    2
     2   124   123   ar
     3    78    77    1
     4   113   112    2
     5   118   119    1
     6   112   111    1
     7   119   120    1
     8   119   122    1
     9    71    70    2
    10   114   111    1
    11   114   115    1
    12   123   125   ar
    13   123   122    1
    14   120   121    2
    15   111   110    1
    16    77    76    1
    17    77    80    1
    18    70    76   am
    19    70    69    1
    20   115   116    1
    21    80    81    1
    22   110   103   am
    23    69    68    1
    24    69    72    1
    25   116   117    1
    26   104   103    2
    27    75    73    1
    28   103   102    1
    29   101   102    1
    30    96    95    2
    31    95    94    1
    32    81    82    1
    33    72    73    1
    34   102   105    1
    35    83    82   ar
    36    73    74    1
    37     1     2    1
    38    82    84   ar
    39    85    86    1
    40    94    93    1
    41    94    97    1
    42    98    97    1
    43    98   100    1
    44    98    99    1
    45    93    87   am
    46     8     9    1
    47    64    63    2
    48    88    87    2
    49    87    86    1
    50   105   106    1
    51    86    89    1
    52     2     3    1
    53     2     5    1
    54     3     4    2
    55    41    39   ar
    56    41    43   ar
    57    39    38   ar
    58    63    62    1
    59     5     7    1
    60     5     6    1
    61    55    54    2
    62     9    10    1
    63     9    12    1
    64    13    15    1
    65    13    12    1
    66   106   107    1
    67    91    90   ar
    68    43    42   ar
    69    89    90    1
    70    38    37    1
    71    38    40   ar
    72    37    34    1
    73    10    16   am
    74    10    11    2
    75    12    14    1
    76    18    19    2
    77    18    17    1
    78    16    17    1
    79    90    92   ar
    80    54    61   am
    81    54    53    1
    82    62    61    1
    83    62    65    1
    84    24    25    1
    85    66    65    1
    86    33    34    1
    87    34    35    1
    88    42    40   ar
    89   107   109   ar
    90   107   108   ar
    91    17    20    1
    92    53    52    1
    93    53    56    1
    94    20    21    1
    95    65    67    1
    96    23    21   am
    97    26    25    1
    98    26    27    2
    99    21    22    2
   100    25    28    1
   101    35    36    2
   102    56    57    1
   103    57    58    1
   104    28    29    1
   105    29    30    1
   106    47    46    2
   107    58    59    2
   108    58    60   am
   109    30    31    1
   110    46    45    1
   111    31    32    1
   112    45    44    1
   113    45    48    1
   114    50    49    1
   115    49    48    1
   116    49    51    1
