@<TRIPOS>MOLECULE
tmp/5gsmA05.pdb
 85 78 0 0 0
SMALL
GASTEIGER

@<TRIPOS>ATOM
      1  N         66.3720    3.6580  121.2410 N.3    43  ARG43      -0.1231
      2  CA        67.2640    3.2470  122.3590 C.3    43  ARG43       0.1694
      3  C         68.7130    2.9070  121.8340 C.2    43  ARG43       0.2591
      4  O         69.6680    3.2660  122.4320 O.2    43  ARG43      -0.2718
      5  CB        66.7100    2.0690  123.0890 C.3    43  ARG43       0.0321
      6  CG        67.5790    1.5110  124.1980 C.3    43  ARG43       0.0489
      7  CD        67.0220    0.1860  124.8040 C.3    43  ARG43       0.2205
      8  NE        65.8030    0.4680  125.5290 N.pl3  43  ARG43      -0.0865
      9  CZ        65.1110   -0.4850  126.1260 C.cat  43  ARG43       0.5346
     10  NH1       65.4790   -1.7610  126.0330 N.pl3  43  ARG43       0.1354
     11  NH2       64.0670   -0.1730  126.8440 N.pl3  43  ARG43       0.1354
     12  N         68.7610    2.1500  120.7100 N.am   44  GLU44      -0.1979
     13  CA        69.9910    1.7120  120.0730 C.3    44  GLU44       0.1602
     14  C         70.8150    2.9560  119.6670 C.2    44  GLU44       0.2287
     15  O         72.0370    2.9680  119.7120 O.2    44  GLU44      -0.2864
     16  CB        69.7460    0.7870  118.9060 C.3    44  GLU44       0.0415
     17  CG        71.0430    0.3950  118.1400 C.3    44  GLU44       0.1163
     18  CD        72.1390   -0.3080  118.9480 C.2    44  GLU44       0.3649
     19  OE1       71.8340   -0.9940  119.9710 O.co2  44  GLU44      -0.2457
     20  OE2       73.2950   -0.0990  118.5160 O.co2  44  GLU44      -0.2457
     21  N         70.9610    5.6680  121.2800 N.3    46  GLY46      -0.1225
     22  CA        71.4080    6.4540  122.4270 C.3    46  GLY46       0.1811
     23  C         70.4910    7.5650  122.8200 C.2    46  GLY46       0.2280
     24  O         70.8590    8.4350  123.6100 O.2    46  GLY46      -0.2866
     25  N         73.7200    8.3870  116.5970 N.3   418  LYS418     -0.1197
     26  CA        74.1140    7.4180  117.6690 C.3   418  LYS418      0.1778
     27  C         75.4520    7.8660  118.2470 C.2   418  LYS418      0.2305
     28  O         75.5990    7.9230  119.4820 O.2   418  LYS418     -0.2863
     29  CB        74.2310    6.0720  117.0950 C.2   418  LYS418     -0.0042
     30  CG        74.6650    4.9790  118.0500 C.2   418  LYS418     -0.0273
     31  CD        74.6370    3.6010  117.4940 C.3   418  LYS418      0.0462
     32  CE        75.1490    2.4870  118.4710 C.3   418  LYS418      0.1140
     33  NZ        75.3930    1.2360  117.8540 N.3   418  LYS418     -0.1310
     34  N         75.8620    9.4190  122.1840 N.3   422  GLU422     -0.1245
     35  CA        76.6250    8.6790  123.1740 C.3   422  GLU422      0.1567
     36  C         77.6080    9.6540  123.8580 C.2   422  GLU422      0.2260
     37  O         77.7530    9.6980  125.1130 O.2   422  GLU422     -0.2867
     38  CB        77.2760    7.4360  122.5140 C.3   422  GLU422      0.0388
     39  CG        76.1280    6.3530  122.0350 C.3   422  GLU422      0.1160
     40  CD        76.5420    4.9970  121.2850 C.2   422  GLU422      0.3649
     41  OE1       75.6730    4.0460  121.4210 O.co2 422  GLU422     -0.2457
     42  OE2       77.5570    5.0230  120.5460 O.co2 422  GLU422     -0.2457
     43  N         84.7980    9.9090  124.7930 N.3   727  VAL727     -0.1231
     44  CA        83.4120    9.6350  124.7560 C.3   727  VAL727      0.1692
     45  C         82.8880    9.3880  126.1820 C.2   727  VAL727      0.2591
     46  O         81.8250    9.8960  126.5240 O.2   727  VAL727     -0.2718
     47  CB        83.1460    8.4240  123.8550 C.3   727  VAL727      0.0266
     48  CG1       81.6690    7.9900  123.9370 C.3   727  VAL727      0.0020
     49  CG2       83.5940    8.5880  122.4540 C.3   727  VAL727      0.0020
     50  N         83.6340    8.6370  126.9620 N.am  728  MET728     -0.1979
     51  CA        83.2020    8.3870  128.3180 C.3   728  MET728      0.1605
     52  C         84.3860    7.8710  129.1180 C.2   728  MET728      0.2287
     53  O         85.3530    7.3390  128.5440 O.2   728  MET728     -0.2864
     54  CB        82.0360    7.4320  128.3190 C.3   728  MET728      0.0413
     55  CG        82.4160    6.0130  128.1910 C.3   728  MET728      0.0598
     56  SD        80.9230    5.0430  128.2030 S.3   728  MET728     -0.1393
     57  CE        81.5680    3.6560  127.2600 C.3   728  MET728      0.0692
     58  N         87.0850    5.5640  127.0490 N.3   735  THR735     -0.1218
     59  CA        86.6900    5.2710  125.6770 C.3   735  THR735      0.1862
     60  C         86.9010    6.4790  124.7960 C.2   735  THR735      0.2287
     61  O         86.3290    7.5390  125.0780 O.2   735  THR735     -0.2866
     62  CB        85.2460    4.7750  125.6140 C.3   735  THR735      0.1770
     63  OG1       85.1030    3.5710  126.3690 O.3   735  THR735     -0.2211
     64  CG2       84.8950    4.4210  124.1960 C.3   735  THR735      0.0375
     65  N         86.9800    3.5170  117.4040 N.3   780  TYR780     -0.1241
     66  CA        86.8900    3.4920  118.8730 C.3   780  TYR780      0.1605
     67  C         88.1220    2.7270  119.4060 C.2   780  TYR780      0.2264
     68  O         88.4670    1.6580  118.8650 O.2   780  TYR780     -0.2867
     69  CB        85.5790    2.8590  119.3960 C.3   780  TYR780      0.0534
     70  CG        84.3490    3.6820  119.1110 C.ar  780  TYR780     -0.0201
     71  CD1       84.0070    4.7330  119.9540 C.ar  780  TYR780     -0.0009
     72  CD2       83.5830    3.4180  117.9940 C.ar  780  TYR780     -0.0009
     73  CE1       82.8730    5.4960  119.6930 C.ar  780  TYR780      0.0417
     74  CE2       82.4220    4.2080  117.7630 C.ar  780  TYR780      0.0417
     75  CZ        82.1060    5.2010  118.5900 C.ar  780  TYR780      0.1957
     76  OH        80.9310    5.9420  118.3820 O.3   780  TYR780     -0.2866
     77  N         89.9970    1.9330  123.6200 N.3   782  GLU782     -0.1301
     78  CA        89.9300    2.0720  125.0760 C.3   782  GLU782      0.1252
     79  C         91.2590    2.1040  125.7110 C.3   782  GLU782      0.2009
     80  O         92.2100    1.3630  125.2470 O.3   782  GLU782     -0.2188
     81  CB        89.0350    0.9800  125.7290 C.3   782  GLU782      0.0335
     82  CG        87.6630    0.8100  125.1340 C.3   782  GLU782      0.1156
     83  CD        87.7230    0.0640  123.7610 C.2   782  GLU782      0.3649
     84  OE1       88.3790   -1.0300  123.6230 O.co2 782  GLU782     -0.2457
     85  OE2       87.0960    0.5190  122.7900 O.co2 782  GLU782     -0.2457
@<TRIPOS>BOND
     1    25    26    1
     2    29    26    1
     3    29    30    2
     4    65    66    1
     5    31    30    1
     6    31    32    1
     7    26    27    1
     8    74    72   ar
     9    74    75   ar
    10    33    32    1
    11    72    70   ar
    12    17    16    1
    13    17    18    1
    14    27    28    2
    15    76    75    1
    16    20    18   ar
    17    75    73   ar
    18    68    67    2
    19    66    69    1
    20    66    67    1
    21    16    13    1
    22    18    19   ar
    23    70    69    1
    24    70    71   ar
    25    14    15    2
    26    14    13    1
    27    73    71   ar
    28    13    12    1
    29    42    40   ar
    30    12     3   am
    31     1     2    1
    32    21    22    1
    33    40    41   ar
    34    40    39    1
    35     3     2    1
    36     3     4    2
    37    39    38    1
    38    34    35    1
    39     2     5    1
    40    22    23    1
    41    49    47    1
    42    38    35    1
    43    85    83   ar
    44    23    24    2
    45     5     6    1
    46    35    36    1
    47    77    78    1
    48    84    83   ar
    49    83    82    1
    50    47    48    1
    51    47    44    1
    52    36    37    2
    53    64    62    1
    54     6     7    1
    55    44    43    1
    56    44    45    1
    57    60    61    2
    58    60    59    1
    59     7     8    1
    60    78    79    1
    61    78    81    1
    62    82    81    1
    63    80    79    1
    64     8     9    2
    65    62    59    1
    66    62    63    1
    67    59    58    1
    68    10     9    1
    69     9    11    1
    70    45    46    2
    71    45    50   am
    72    50    51    1
    73    57    56    1
    74    55    56    1
    75    55    54    1
    76    51    54    1
    77    51    52    1
    78    53    52    2
