@<TRIPOS>MOLECULE
tmp/5gsmA00.pdb
 127 121 0 0 0
SMALL
GASTEIGER

@<TRIPOS>ATOM
      1  N         54.0560   15.6080  118.4010 N.3    53  TYR53      -0.1241
      2  CA        52.8260   16.4000  118.3920 C.3    53  TYR53       0.1605
      3  C         51.6730   15.4990  118.8310 C.2    53  TYR53       0.2264
      4  O         51.6940   14.2620  118.7640 O.2    53  TYR53      -0.2867
      5  CB        52.5250   16.9050  117.0240 C.3    53  TYR53       0.0534
      6  CG        53.4930   17.8770  116.4660 C.ar   53  TYR53      -0.0201
      7  CD1       53.7610   19.0670  117.1190 C.ar   53  TYR53      -0.0009
      8  CD2       54.1180   17.6850  115.2640 C.ar   53  TYR53      -0.0009
      9  CE1       54.6050   20.0520  116.6530 C.ar   53  TYR53       0.0417
     10  CE2       55.0660   18.6390  114.7900 C.ar   53  TYR53       0.0417
     11  CZ        55.3440   19.7700  115.4810 C.ar   53  TYR53       0.1957
     12  OH        56.2460   20.7830  114.9900 O.3    53  TYR53      -0.2866
     13  N         51.9720   22.6060  112.5820 N.3   101  CYS101     -0.1221
     14  CA        52.7300   22.5920  111.3220 C.3   101  CYS101      0.1808
     15  C         52.7760   21.1590  110.8120 C.2   101  CYS101      0.2602
     16  O         51.7610   20.5750  110.4670 O.2   101  CYS101     -0.2717
     17  CB        54.0720   23.3000  111.5360 C.3   101  CYS101      0.0970
     18  SG        55.0620   23.6060  110.1010 S.3   101  CYS101     -0.0800
     19  N         53.9770   20.5630  110.7080 N.am  102  GLY102     -0.1942
     20  CA        54.1390   19.2040  110.5100 C.3   102  GLY102      0.2014
     21  C         53.8490   18.6510  109.1590 C.2   102  GLY102      0.2638
     22  O         53.7700   17.4440  108.9740 O.2   102  GLY102     -0.2714
     23  N         53.6840   19.5670  108.2040 N.am  103  GLU103     -0.1977
     24  CA        53.3820   19.1510  106.8040 C.3   103  GLU103      0.1602
     25  C         52.1090   18.2950  106.8200 C.2   103  GLU103      0.2287
     26  O         51.8790   17.5060  105.9390 O.2   103  GLU103     -0.2864
     27  CB        54.5260   18.4230  106.1720 C.3   103  GLU103      0.0415
     28  CG        55.6380   19.3600  105.7450 C.3   103  GLU103      0.1163
     29  CD        56.5430   19.9020  106.8160 C.2   103  GLU103      0.3649
     30  OE1       56.7650   19.2040  107.8620 O.co2 103  GLU103     -0.2457
     31  OE2       57.2470   20.9020  106.5250 O.co2 103  GLU103     -0.2457
     32  N         53.0670   25.9960  117.6640 N.3   178  ASP178     -0.1225
     33  CA        54.2620   25.5870  116.9300 C.3   178  ASP178      0.1805
     34  C         54.7500   26.7930  116.1760 C.2   178  ASP178      0.2597
     35  O         54.1210   27.3490  115.2780 O.2   178  ASP178     -0.2718
     36  CB        53.9830   24.4330  115.9100 C.3   178  ASP178      0.1424
     37  CG        55.2950   23.8110  115.3620 C.2   178  ASP178      0.3668
     38  OD1       55.9620   23.1440  116.2100 O.co2 178  ASP178     -0.2456
     39  OD2       55.6450   24.0540  114.2350 O.co2 178  ASP178     -0.2456
     40  N         55.9010   27.2860  116.6330 N.am  179  GLU179     -0.1979
     41  CA        56.5790   28.4090  115.9900 C.3   179  GLU179      0.1602
     42  C         55.6730   29.5010  115.4660 C.2   179  GLU179      0.2287
     43  O         55.6560   29.8670  114.2910 O.2   179  GLU179     -0.2864
     44  CB        57.5860   27.9730  114.9200 C.3   179  GLU179      0.0415
     45  CG        56.9810   27.2640  113.7430 C.3   179  GLU179      0.1163
     46  CD        57.9000   26.2960  112.9860 C.2   179  GLU179      0.3649
     47  OE1       58.9740   25.8260  113.5080 O.co2 179  GLU179     -0.2457
     48  OE2       57.5770   25.9140  111.8330 O.co2 179  GLU179     -0.2457
     49  N         58.6960   26.6860  120.5040 N.3   278  LEU278     -0.1245
     50  CA        59.6950   26.6460  119.4190 C.3   278  LEU278      0.1561
     51  C         59.6250   27.9650  118.6350 C.2   278  LEU278      0.2260
     52  O         58.5500   28.4450  118.2970 O.2   278  LEU278     -0.2867
     53  CB        59.3640   25.5300  118.5080 C.3   278  LEU278      0.0270
     54  CG        60.1320   25.4340  117.1860 C.3   278  LEU278      0.0019
     55  CD1       61.6360   25.3450  117.4070 C.3   278  LEU278      0.0001
     56  CD2       59.6410   24.2620  116.4020 C.3   278  LEU278      0.0001
     57  N         58.9000   32.5620  113.7960 N.3   282  LEU282     -0.1245
     58  CA        59.7870   32.1200  112.7660 C.3   282  LEU282      0.1561
     59  C         60.8230   33.2130  112.4280 C.2   282  LEU282      0.2260
     60  O         61.3460   33.2840  111.3070 O.2   282  LEU282     -0.2867
     61  CB        59.0460   31.5740  111.5310 C.3   282  LEU282      0.0270
     62  CG        58.5240   30.1440  111.6440 C.3   282  LEU282      0.0019
     63  CD1       57.7350   29.8140  110.4140 C.3   282  LEU282      0.0001
     64  CD2       59.5380   29.1150  111.9220 C.3   282  LEU282      0.0001
     65  N         65.4520   25.5170  116.4570 N.3   306  GLU306     -0.1245
     66  CA        65.4560   24.4850  115.3860 C.3   306  GLU306      0.1567
     67  C         66.5190   24.8290  114.3270 C.2   306  GLU306      0.2260
     68  O         66.8640   26.0370  114.1780 O.2   306  GLU306     -0.2867
     69  CB        64.0970   24.3070  114.7480 C.3   306  GLU306      0.0388
     70  CG        63.6020   25.5820  114.1140 C.3   306  GLU306      0.1160
     71  CD        62.2010   25.4370  113.5740 C.2   306  GLU306      0.3649
     72  OE1       61.7350   24.3810  113.2760 O.co2 306  GLU306     -0.2457
     73  OE2       61.4070   26.3740  113.9050 O.co2 306  GLU306     -0.2457
     74  N         67.1500   23.9580  110.2630 N.3   308  TRP308     -0.1241
     75  CA        66.7060   23.3850  109.0020 C.3   308  TRP308      0.1605
     76  C         67.4400   24.1360  107.8900 C.2   308  TRP308      0.2264
     77  O         67.4150   25.3980  107.8590 O.2   308  TRP308     -0.2867
     78  CB        65.2220   23.6540  108.7900 C.3   308  TRP308      0.0550
     79  CG        64.3390   22.7780  109.7260 C.ar  308  TRP308      0.0003
     80  CD1       63.8550   23.1650  110.9750 C.ar  308  TRP308      0.0946
     81  CD2       63.9320   21.4440  109.5260 C.ar  308  TRP308      0.0152
     82  NE1       63.0960   22.0950  111.4810 N.ar  308  TRP308     -0.2442
     83  CE2       63.1390   21.0480  110.6100 C.ar  308  TRP308      0.0810
     84  CE3       64.0460   20.5420  108.4440 C.ar  308  TRP308      0.0012
     85  CZ2       62.5870   19.7280  110.6730 C.ar  308  TRP308      0.0191
     86  CZ3       63.4950   19.2800  108.5430 C.ar  308  TRP308      0.0001
     87  CH2       62.8420   18.8930  109.6530 C.ar  308  TRP308      0.0015
     88  N         65.5020   21.7420  101.7580 N.3   311  PHE311     -0.1241
     89  CA        64.1910   21.1430  101.5620 C.3   311  PHE311      0.1605
     90  C         63.9950   20.6110  100.1910 C.2   311  PHE311      0.2264
     91  O         64.0910   21.3710   99.2300 O.2   311  PHE311     -0.2867
     92  CB        63.1040   22.2180  101.8980 C.3   311  PHE311      0.0534
     93  CG        62.9940   22.5640  103.3870 C.ar  311  PHE311     -0.0203
     94  CD1       62.2850   21.6810  104.1880 C.ar  311  PHE311     -0.0042
     95  CD2       63.5980   23.5860  103.9250 C.ar  311  PHE311     -0.0042
     96  CE1       62.1480   21.9100  105.5470 C.ar  311  PHE311     -0.0003
     97  CE2       63.4940   23.7960  105.3220 C.ar  311  PHE311     -0.0003
     98  CZ        62.7380   22.9820  106.0750 C.ar  311  PHE311     -0.0000
     99  N         64.0010   20.7340  117.0540 N.3   347  GLU347     -0.1245
    100  CA        63.9330   20.1460  115.7030 C.3   347  GLU347      0.1567
    101  C         65.3030   20.3620  114.9950 C.2   347  GLU347      0.2260
    102  O         65.5900   21.4800  114.6180 O.2   347  GLU347     -0.2867
    103  CB        62.8380   20.7520  114.8280 C.3   347  GLU347      0.0388
    104  CG        61.4550   20.5360  115.4240 C.3   347  GLU347      0.1160
    105  CD        60.3700   21.0340  114.5510 C.2   347  GLU347      0.3649
    106  OE1       60.6360   21.3260  113.3630 O.co2 347  GLU347     -0.2457
    107  OE2       59.2070   21.1540  115.0850 O.co2 347  GLU347     -0.2457
    108  N         63.4770   15.3660  105.2020 N.3   352  LEU352     -0.1245
    109  CA        62.9960   16.3910  104.2830 C.3   352  LEU352      0.1561
    110  C         64.0160   16.9290  103.2940 C.2   352  LEU352      0.2260
    111  O         63.6720   17.6910  102.3970 O.2   352  LEU352     -0.2867
    112  CB        62.2410   17.5460  104.9460 C.3   352  LEU352      0.0270
    113  CG        61.0180   17.0680  105.7140 C.3   352  LEU352      0.0019
    114  CD1       60.3310   18.2500  106.4050 C.3   352  LEU352      0.0001
    115  CD2       59.9460   16.3750  104.9820 C.3   352  LEU352      0.0001
    116  N         64.6520   15.6590  114.2070 N.3   379  TYR379     -0.1241
    117  CA        63.3460   15.6580  113.5750 C.3   379  TYR379      0.1605
    118  C         63.4700   15.5750  112.1150 C.2   379  TYR379      0.2264
    119  O         64.1970   16.4220  111.5750 O.2   379  TYR379     -0.2867
    120  CB        62.6070   16.9500  113.9930 C.3   379  TYR379      0.0534
    121  CG        61.1580   17.1050  113.5030 C.ar  379  TYR379     -0.0201
    122  CD1       60.8420   17.1660  112.1630 C.ar  379  TYR379     -0.0009
    123  CD2       60.1330   17.2680  114.4070 C.ar  379  TYR379     -0.0009
    124  CE1       59.5770   17.3500  111.7230 C.ar  379  TYR379      0.0417
    125  CE2       58.8330   17.4700  113.9420 C.ar  379  TYR379      0.0417
    126  CZ        58.5640   17.5380  112.6030 C.ar  379  TYR379      0.1957
    127  OH        57.2460   17.7450  112.1980 O.3   379  TYR379     -0.2866
@<TRIPOS>BOND
     1    91    90    2
     2    90    89    1
     3    89    88    1
     4    89    92    1
     5    92    93    1
     6   111   110    2
     7   110   109    1
     8    93    95   ar
     9    93    94   ar
    10    95    97   ar
    11    94    96   ar
    12   109   112    1
    13   109   108    1
    14   112   113    1
    15   115   113    1
    16    97    98   ar
    17    96    98   ar
    18   113   114    1
    19    28    27    1
    20    28    29    1
    21    26    25    2
    22    27    24    1
    23    31    29   ar
    24    24    25    1
    25    24    23    1
    26    29    30   ar
    27    77    76    2
    28    76    75    1
    29    23    21   am
    30    84    86   ar
    31    84    81   ar
    32    86    87   ar
    33    78    75    1
    34    78    79    1
    35    22    21    2
    36    75    74    1
    37    21    20    1
    38    81    79   ar
    39    81    83   ar
    40    87    85   ar
    41    79    80   ar
    42    18    17    1
    43    63    62    1
    44    16    15    2
    45    20    19    1
    46    83    85   ar
    47    83    82   ar
    48    19    15   am
    49    15    14    1
    50    80    82   ar
    51    60    59    2
    52    14    17    1
    53    14    13    1
    54    61    62    1
    55    61    58    1
    56   119   118    2
    57    62    64    1
    58   124   122   ar
    59   124   126   ar
    60    48    46   ar
    61   118   117    1
    62   122   121   ar
    63   127   126    1
    64    59    58    1
    65   126   125   ar
    66    58    57    1
    67    46    47   ar
    68    46    45    1
    69    72    71   ar
    70   106   105   ar
    71   121   120    1
    72   121   123   ar
    73    71    73   ar
    74    71    70    1
    75   117   120    1
    76   117   116    1
    77    45    44    1
    78   125   123   ar
    79    70    69    1
    80    68    67    2
    81    39    37   ar
    82    43    42    2
    83    67    66    1
    84   105   107   ar
    85   105   104    1
    86   102   101    2
    87    69    66    1
    88    10     8   ar
    89    10    11   ar
    90   103   104    1
    91   103   100    1
    92    44    41    1
    93    12    11    1
    94   101   100    1
    95     8     6   ar
    96    35    34    2
    97    37    36    1
    98    37    38   ar
    99    66    65    1
   100    42    41    1
   101    11     9   ar
   102   100    99    1
   103    36    33    1
   104    41    40    1
   105    34    40   am
   106    34    33    1
   107    56    54    1
   108     6     5    1
   109     6     7   ar
   110     9     7   ar
   111    33    32    1
   112     5     2    1
   113    54    55    1
   114    54    53    1
   115    52    51    2
   116     2     1    1
   117     2     3    1
   118    53    50    1
   119    51    50    1
   120     4     3    2
   121    50    49    1
