@<TRIPOS>MOLECULE
tmp/5gsnC02.pdb
 87 82 0 0 0
SMALL
GASTEIGER

@<TRIPOS>ATOM
      1  N         37.7440   27.2740  -23.9060 N.3    45  LEU45      -0.1245
      2  CA        37.9560   25.9170  -24.4220 C.3    45  LEU45       0.1561
      3  C         37.4420   24.7680  -23.5190 C.2    45  LEU45       0.2260
      4  O         37.0450   23.7070  -24.0210 O.2    45  LEU45      -0.2867
      5  CB        39.4440   25.6970  -24.7700 C.3    45  LEU45       0.0270
      6  CG        40.0180   26.5810  -25.8910 C.3    45  LEU45       0.0019
      7  CD1       41.5250   26.4230  -26.0090 C.3    45  LEU45       0.0001
      8  CD2       39.3360   26.2850  -27.2170 C.3    45  LEU45       0.0001
      9  N         37.5900   20.8940  -27.5790 N.3    65  MET65      -0.1230
     10  CA        37.8770   19.7110  -26.7570 C.3    65  MET65       0.1702
     11  C         36.9790   18.5620  -27.1860 C.2    65  MET65       0.2592
     12  O         35.8930   18.7690  -27.7220 O.2    65  MET65      -0.2718
     13  CB        37.6790   19.9910  -25.2630 C.3    65  MET65       0.0401
     14  CG        38.4410   21.2040  -24.7590 C.3    65  MET65       0.0596
     15  SD        39.1530   21.0670  -23.0920 S.3    65  MET65      -0.1393
     16  CE        40.2610   22.4820  -23.0380 C.3    65  MET65       0.0692
     17  N         37.4430   17.3480  -26.9610 N.am   66  TYR66      -0.1976
     18  CA        36.6760   16.1710  -27.3000 C.3    66  TYR66       0.1639
     19  C         36.4400   15.3830  -26.0280 C.2    66  TYR66       0.2290
     20  O         36.9840   15.7210  -24.9750 O.2    66  TYR66      -0.2864
     21  CB        37.4630   15.3240  -28.2840 C.3    66  TYR66       0.0560
     22  CG        38.9500   15.3850  -28.0510 C.ar   66  TYR66      -0.0198
     23  CD1       39.7190   16.4000  -28.6150 C.ar   66  TYR66      -0.0009
     24  CD2       39.5910   14.4400  -27.2540 C.ar   66  TYR66      -0.0009
     25  CE1       41.0760   16.4780  -28.3970 C.ar   66  TYR66       0.0417
     26  CE2       40.9650   14.5100  -27.0280 C.ar   66  TYR66       0.0417
     27  CZ        41.6930   15.5300  -27.6080 C.ar   66  TYR66       0.1957
     28  OH        43.0410   15.6100  -27.3990 O.3    66  TYR66      -0.2866
     29  N         39.1470   13.5070  -22.8010 N.3    69  LEU69      -0.1245
     30  CA        40.3410   14.3350  -22.7430 C.3    69  LEU69       0.1561
     31  C         40.7720   14.5550  -21.3100 C.2    69  LEU69       0.2260
     32  O         39.9760   14.9850  -20.4780 O.2    69  LEU69      -0.2867
     33  CB        40.0810   15.6850  -23.4100 C.3    69  LEU69       0.0270
     34  CG        41.1500   16.7770  -23.3330 C.3    69  LEU69       0.0019
     35  CD1       40.9960   17.7390  -24.4950 C.3    69  LEU69       0.0001
     36  CD2       41.0750   17.5190  -22.0180 C.3    69  LEU69       0.0001
     37  N         46.9200   17.6950  -20.5580 N.3    72  ASN72      -0.1240
     38  CA        48.0430   17.2530  -21.3830 C.3    72  ASN72       0.1653
     39  C         49.3690   17.4450  -20.6660 C.2    72  ASN72       0.2266
     40  O         50.3420   16.7590  -20.9440 O.2    72  ASN72      -0.2867
     41  CB        48.0450   17.9220  -22.7650 C.3    72  ASN72       0.1155
     42  CG        48.9640   19.1190  -22.8350 C.2    72  ASN72       0.2627
     43  OD1       48.6360   20.1890  -22.3230 O.2    72  ASN72      -0.2716
     44  ND2       50.1230   18.9490  -23.4780 N.am   72  ASN72      -0.0877
     45  N         42.8430   28.8060  -30.5290 N.3   164  PHE164     -0.1241
     46  CA        42.8320   27.3800  -30.8320 C.3   164  PHE164      0.1605
     47  C         41.4180   26.9290  -31.1740 C.2   164  PHE164      0.2264
     48  O         40.9820   25.8560  -30.7540 O.2   164  PHE164     -0.2867
     49  CB        43.3750   26.5810  -29.6590 C.3   164  PHE164      0.0534
     50  CG        44.8130   26.8480  -29.3720 C.ar  164  PHE164     -0.0203
     51  CD1       45.7350   26.9010  -30.4030 C.ar  164  PHE164     -0.0042
     52  CD2       45.2490   27.0650  -28.0740 C.ar  164  PHE164     -0.0042
     53  CE1       47.0690   27.1490  -30.1430 C.ar  164  PHE164     -0.0003
     54  CE2       46.5820   27.3150  -27.8110 C.ar  164  PHE164     -0.0003
     55  CZ        47.4910   27.3520  -28.8450 C.ar  164  PHE164     -0.0000
     56  N         50.6860   18.4050  -30.6190 N.3   206  SER206     -0.1202
     57  CA        49.9020   17.9910  -29.4630 C.3   206  SER206      0.2020
     58  C         48.6120   17.2770  -29.8190 C.2   206  SER206      0.2619
     59  O         48.2810   16.2540  -29.2040 O.2   206  SER206     -0.2717
     60  CB        49.5850   19.1990  -28.5830 C.3   206  SER206      0.2103
     61  OG        50.7440   19.9940  -28.3880 O.3   206  SER206     -0.2182
     62  N         47.8740   17.8190  -30.7890 N.am  207  SER207     -0.1951
     63  CA        46.5610   17.2760  -31.1290 C.3   207  SER207      0.1924
     64  C         46.6780   15.9120  -31.7890 C.2   207  SER207      0.2314
     65  O         45.9920   14.9820  -31.4190 O.2   207  SER207     -0.2863
     66  CB        45.7720   18.2340  -32.0230 C.3   207  SER207      0.2116
     67  OG        45.4790   19.4330  -31.3400 O.3   207  SER207     -0.2180
     68  N         47.5790   13.3910  -29.0110 N.3   210  ASP210     -0.1239
     69  CA        46.5380   13.0690  -28.0430 C.3   210  ASP210      0.1674
     70  C         45.3130   12.4500  -28.7330 C.2   210  ASP210      0.2266
     71  O         44.7240   11.5040  -28.2030 O.2   210  ASP210     -0.2867
     72  CB        46.1710   14.3150  -27.2190 C.3   210  ASP210      0.1410
     73  CG        45.3980   13.9840  -25.9270 C.2   210  ASP210      0.3668
     74  OD1       45.3100   12.7990  -25.5360 O.co2 210  ASP210     -0.2456
     75  OD2       44.8800   14.9320  -25.2920 O.co2 210  ASP210     -0.2456
     76  N         45.6960   25.6790  -35.9830 N.3   273  TYR273     -0.1241
     77  CA        44.7240   26.7590  -35.9430 C.3   273  TYR273      0.1605
     78  C         45.3320   28.0590  -36.4190 C.2   273  TYR273      0.2264
     79  O         46.5410   28.1720  -36.5770 O.2   273  TYR273     -0.2867
     80  CB        44.2300   26.9460  -34.5080 C.3   273  TYR273      0.0534
     81  CG        43.5120   25.7390  -34.0040 C.ar  273  TYR273     -0.0201
     82  CD1       44.2130   24.6800  -33.4470 C.ar  273  TYR273     -0.0009
     83  CD2       42.1290   25.6440  -34.1120 C.ar  273  TYR273     -0.0009
     84  CE1       43.5520   23.5590  -32.9990 C.ar  273  TYR273      0.0417
     85  CE2       41.4650   24.5280  -33.6690 C.ar  273  TYR273      0.0417
     86  CZ        42.1830   23.4870  -33.1160 C.ar  273  TYR273      0.1957
     87  OH        41.5220   22.3680  -32.6850 O.3   273  TYR273     -0.2866
@<TRIPOS>BOND
     1    79    78    2
     2    78    77    1
     3    76    77    1
     4    77    80    1
     5    80    81    1
     6    83    81   ar
     7    83    85   ar
     8    81    82   ar
     9    85    86   ar
    10    82    84   ar
    11    86    84   ar
    12    86    87    1
    13    66    67    1
    14    66    63    1
    15    64    65    2
    16    64    63    1
    17    47    46    1
    18    47    48    2
    19    63    62    1
    20    46    45    1
    21    46    49    1
    22    62    58   am
    23    56    57    1
    24    51    53   ar
    25    51    50   ar
    26    53    55   ar
    27    58    57    1
    28    58    59    2
    29    49    50    1
    30    57    60    1
    31    50    52   ar
    32    68    69    1
    33    55    54   ar
    34    70    71    2
    35    70    69    1
    36    23    25   ar
    37    23    22   ar
    38    60    61    1
    39    25    27   ar
    40    21    22    1
    41    21    18    1
    42    52    54   ar
    43    22    24   ar
    44    69    72    1
    45    12    11    2
    46    27    28    1
    47    27    26   ar
    48     9    10    1
    49    18    17    1
    50    18    19    1
    51    24    26   ar
    52    72    73    1
    53     8     6    1
    54    11    17   am
    55    11    10    1
    56    10    13    1
    57    19    20    2
    58     7     6    1
    59    73    74   ar
    60    73    75   ar
    61     6     5    1
    62    13    14    1
    63     5     2    1
    64    14    15    1
    65    35    34    1
    66     2     1    1
    67     2     3    1
    68     4     3    2
    69    44    42   am
    70    33    34    1
    71    33    30    1
    72    34    36    1
    73    15    16    1
    74    42    41    1
    75    42    43    2
    76    29    30    1
    77    41    38    1
    78    30    31    1
    79    38    39    1
    80    38    37    1
    81    31    32    2
    82    40    39    2
