@<TRIPOS>MOLECULE
tmp/5gswA00.pdb
 156 153 0 0 0
SMALL
GASTEIGER

@<TRIPOS>ATOM
      1  N         13.3760    6.9940   26.3590 N.3    25  PHE25      -0.1241
      2  CA        12.8350    5.7890   25.7460 C.3    25  PHE25       0.1605
      3  C         13.9320    4.7680   25.6000 C.2    25  PHE25       0.2264
      4  O         15.0890    5.0390   25.9190 O.2    25  PHE25      -0.2867
      5  CB        12.1970    6.0770   24.3830 C.3    25  PHE25       0.0534
      6  CG        11.0450    7.0160   24.4550 C.ar   25  PHE25      -0.0203
      7  CD1       11.2600    8.3720   24.3910 C.ar   25  PHE25      -0.0042
      8  CD2        9.7480    6.5530   24.6190 C.ar   25  PHE25      -0.0042
      9  CE1       10.2130    9.2520   24.4890 C.ar   25  PHE25      -0.0003
     10  CE2        8.6870    7.4420   24.7040 C.ar   25  PHE25      -0.0003
     11  CZ         8.9210    8.7850   24.6410 C.ar   25  PHE25      -0.0000
     12  N          6.4010    5.0960   18.0540 N.3    39  ARG39      -0.1231
     13  CA         6.0620    6.2610   17.2750 C.3    39  ARG39       0.1694
     14  C          5.8630    7.5760   18.0670 C.2    39  ARG39       0.2592
     15  O          6.0330    8.6630   17.5050 O.2    39  ARG39      -0.2718
     16  CB         4.8100    5.9410   16.4850 C.3    39  ARG39       0.0321
     17  CG         4.4330    6.9760   15.4920 C.3    39  ARG39       0.0489
     18  CD         2.9480    7.0120   15.3170 C.3    39  ARG39       0.2205
     19  NE         2.2490    7.3620   16.5530 N.pl3  39  ARG39      -0.0865
     20  CZ         2.2780    8.5720   17.1090 C.cat  39  ARG39       0.5346
     21  NH1        2.9930    9.5490   16.5460 N.pl3  39  ARG39       0.1354
     22  NH2        1.6050    8.8050   18.2320 N.pl3  39  ARG39       0.1354
     23  N          5.5270    7.5120   19.3570 N.am   40  HIS40      -0.1976
     24  CA         5.2270    8.7590   20.0660 C.3    40  HIS40       0.1656
     25  C          6.4510    9.3910   20.7190 C.2    40  HIS40       0.2291
     26  O          6.3790   10.5180   21.2120 O.2    40  HIS40      -0.2864
     27  CB         4.1050    8.5600   21.1050 C.3    40  HIS40       0.0771
     28  CG         4.5060    7.8100   22.3480 C.ar   40  HIS40       0.0820
     29  ND1        4.2550    6.4700   22.5230 N.ar   40  HIS40      -0.2267
     30  CD2        5.0750    8.2370   23.5060 C.ar   40  HIS40       0.1154
     31  CE1        4.6720    6.0880   23.7180 C.ar   40  HIS40       0.1986
     32  NE2        5.1770    7.1460   24.3360 N.ar   40  HIS40      -0.2212
     33  N          2.0230    2.5770   15.9680 N.3    71  GLU71      -0.1245
     34  CA         2.8730    3.1910   16.9430 C.3    71  GLU71       0.1567
     35  C          4.2480    2.6350   16.9450 C.2    71  GLU71       0.2260
     36  O          4.6430    2.0000   17.8700 O.2    71  GLU71      -0.2867
     37  CB         2.2540    3.1630   18.3180 C.3    71  GLU71       0.0388
     38  CG         3.1810    3.7150   19.3630 C.3    71  GLU71       0.1160
     39  CD         2.8940    5.1220   19.7170 C.2    71  GLU71       0.3649
     40  OE1        1.8580    5.6160   19.3750 O.co2  71  GLU71      -0.2457
     41  OE2        3.7020    5.7460   20.3800 O.co2  71  GLU71      -0.2457
     42  N         -5.4350    4.3150   23.0090 N.3   127  LEU127     -0.1231
     43  CA        -4.8470    4.8960   24.2120 C.3   127  LEU127      0.1693
     44  C         -5.1210    6.3930   24.3820 C.2   127  LEU127      0.2592
     45  O         -5.9970    6.7900   25.1800 O.2   127  LEU127     -0.2718
     46  CB        -3.3520    4.6340   24.2230 C.3   127  LEU127      0.0284
     47  CG        -3.1290    3.1720   24.5860 C.3   127  LEU127      0.0019
     48  CD1       -1.6790    2.8960   24.6770 C.3   127  LEU127      0.0001
     49  CD2       -3.8050    2.8220   25.9000 C.3   127  LEU127      0.0001
     50  N         -4.3900    7.2030   23.6150 N.am  128  SER128     -0.1952
     51  CA        -4.3420    8.6460   23.8360 C.3   128  SER128      0.1924
     52  C         -5.4620    9.3660   23.1710 C.2   128  SER128      0.2314
     53  O         -5.6520   10.5690   23.3790 O.2   128  SER128     -0.2863
     54  CB        -3.0400    9.2380   23.3080 C.3   128  SER128      0.2116
     55  OG        -2.9750   10.6310   23.5960 O.3   128  SER128     -0.2180
     56  N         -5.3070    8.7020   19.8700 N.3   130  LYS130     -0.1231
     57  CA        -4.7890    8.0660   18.6750 C.3   130  LYS130      0.1678
     58  C         -4.9580    6.5850   18.8930 C.2   130  LYS130      0.2434
     59  O         -4.5490    6.0630   19.9490 O.2   130  LYS130     -0.2733
     60  CB        -3.3330    8.4150   18.4320 C.3   130  LYS130      0.0284
     61  CG        -3.0230    8.6730   16.9860 C.3   130  LYS130      0.0035
     62  CD        -2.0020    7.7170   16.4240 C.3   130  LYS130      0.0206
     63  CE        -1.6790    8.1320   15.0030 C.3   130  LYS130      0.1093
     64  NZ        -2.9190    8.3590   14.1860 N.3   130  LYS130     -0.1314
     65  N         -5.6330    5.9110   17.9440 N.am  131  PRO131     -0.2718
     66  CA        -5.7520    4.4550   18.0500 C.3   131  PRO131      0.1535
     67  C         -4.4870    3.7660   17.5330 C.2   131  PRO131      0.2599
     68  O         -3.5440    4.4420   17.1000 O.2   131  PRO131     -0.2715
     69  CB        -6.9800    4.1430   17.1900 C.3   131  PRO131      0.0310
     70  CG        -7.7720    5.4290   17.1900 C.3   131  PRO131      0.0237
     71  CD        -6.6880    6.4720   17.0830 C.3   131  PRO131      0.0939
     72  N         -4.4570    2.4420   17.6150 N.am  132  THR132     -0.1951
     73  CA        -3.2610    1.6760   17.2970 C.3   132  THR132      0.1897
     74  C         -3.6630    0.2390   17.0420 C.2   132  THR132      0.2313
     75  O         -4.5160   -0.2940   17.7320 O.2   132  THR132     -0.2863
     76  CB        -2.2370    1.7300   18.4270 C.3   132  THR132      0.1794
     77  OG1       -1.8670    3.0920   18.6730 O.3   132  THR132     -0.2208
     78  CG2       -1.0170    0.9120   18.0610 C.3   132  THR132      0.0378
     79  N          2.7850   -1.3660   34.2860 N.3   142  THR142     -0.1203
     80  CA         3.7190   -0.6020   33.4500 C.3   142  THR142      0.1994
     81  C          3.6170    0.9120   33.6830 C.2   142  THR142      0.2618
     82  O          2.5060    1.4610   33.7370 O.2   142  THR142     -0.2717
     83  CB         3.4470   -0.9740   31.9520 C.3   142  THR142      0.1784
     84  OG1        4.4460   -0.4320   31.1040 O.3   142  THR142     -0.2211
     85  CG2        2.1360   -0.5270   31.5230 C.3   142  THR142      0.0376
     86  N          4.7650    1.5720   33.8550 N.am  143  LYS143     -0.1965
     87  CA         4.8030    2.9910   34.2360 C.3   143  LYS143      0.1728
     88  C          5.4150    3.8670   33.1320 C.2   143  LYS143      0.2616
     89  O          5.8070    3.3560   32.0710 O.2   143  LYS143     -0.2715
     90  CB         5.5780    3.1700   35.5460 C.3   143  LYS143      0.0311
     91  CG         6.9390    2.4470   35.6010 C.3   143  LYS143      0.0038
     92  CD         7.7750    2.8670   36.8340 C.3   143  LYS143      0.0206
     93  CE         7.3580    2.1890   38.1300 C.3   143  LYS143      0.1093
     94  NZ         7.9720    2.9220   39.2540 N.3   143  LYS143     -0.1314
     95  N          5.5080    5.1790   33.3550 N.am  144  ALA144     -0.1963
     96  CA         6.0510    6.0410   32.3180 C.3   144  ALA144      0.1728
     97  C          7.5230    5.7680   32.1720 C.2   144  ALA144      0.2617
     98  O          8.0940    4.9900   32.9360 O.2   144  ALA144     -0.2715
     99  CB         5.8160    7.4580   32.6220 C.3   144  ALA144      0.0334
    100  N          8.1270    6.4050   31.1720 N.am  145  GLY145     -0.1940
    101  CA         9.5310    6.2090   30.8250 C.3   145  GLY145      0.2014
    102  C          9.9900    4.8030   30.4620 C.2   145  GLY145      0.2639
    103  O         11.1740    4.5020   30.5620 O.2   145  GLY145     -0.2714
    104  N          9.0730    3.9410   30.0340 N.am  146  GLN146     -0.1963
    105  CA         9.4090    2.5450   29.7410 C.3   146  GLN146      0.1733
    106  C          9.1980    2.2110   28.2640 C.2   146  GLN146      0.2616
    107  O          9.8840    1.3530   27.6830 O.2   146  GLN146     -0.2715
    108  CB         8.5790    1.6230   30.6140 C.3   146  GLN146      0.0408
    109  CG         9.0320    1.6430   32.0540 C.3   146  GLN146      0.0908
    110  CD         8.3940    0.5530   32.8700 C.2   146  GLN146      0.2608
    111  OE1        7.1730    0.4680   32.9660 O.2   146  GLN146     -0.2717
    112  NE2        9.2120   -0.2980   33.4520 N.am  146  GLN146     -0.0878
    113  N          8.2230    2.9090   27.6920 N.am  147  CYS147     -0.1968
    114  CA         7.9280    2.9460   26.2730 C.3   147  CYS147      0.1712
    115  C          9.1480    2.7570   25.3920 C.2   147  CYS147      0.2296
    116  O         10.0750    3.5460   25.4800 O.2   147  CYS147     -0.2864
    117  CB         7.2100    4.2800   25.9550 C.3   147  CYS147      0.0983
    118  SG         5.4490    4.3790   26.5010 S.3   147  CYS147     -0.0798
    119  N          7.2450   -1.9450   23.8040 N.3   161  HIS161     -0.1226
    120  CA         6.2250   -1.4650   24.7180 C.3   161  HIS161      0.1752
    121  C          5.6050   -0.1530   24.2510 C.2   161  HIS161      0.2596
    122  O          6.2750    0.6160   23.5880 O.2   161  HIS161     -0.2718
    123  CB         6.8130   -1.2820   26.0990 C.3   161  HIS161      0.0759
    124  CG         5.8020   -0.8120   27.0800 C.ar  161  HIS161      0.0818
    125  ND1        4.8200   -1.6500   27.5580 N.ar  161  HIS161     -0.2268
    126  CD2        5.5530    0.4080   27.5790 C.ar  161  HIS161      0.1154
    127  CE1        4.0330   -0.9640   28.3640 C.ar  161  HIS161      0.1986
    128  NE2        4.4500    0.2860   28.4000 N.ar  161  HIS161     -0.2212
    129  N          4.3490    0.1380   24.5730 N.am  162  ILE162     -0.1966
    130  CA         3.8300    1.4300   24.1130 C.3   162  ILE162      0.1727
    131  C          2.8410    2.1390   25.0060 C.2   162  ILE162      0.2617
    132  O          2.9030    3.3060   25.1850 O.2   162  ILE162     -0.2715
    133  CB         3.1470    1.3140   22.7550 C.3   162  ILE162      0.0290
    134  CG1        2.4200   -0.0190   22.6060 C.3   162  ILE162      0.0022
    135  CG2        4.1850    1.4540   21.6410 C.3   162  ILE162      0.0023
    136  CD1        1.5550   -0.1140   21.3370 C.3   162  ILE162      0.0001
    137  N          1.8960    1.4090   25.5500 N.am  163  GLY163     -0.1940
    138  CA         0.9110    1.9610   26.4600 C.3   163  GLY163      0.2014
    139  C          0.8470    1.2790   27.7990 C.2   163  GLY163      0.2639
    140  O          1.6090    0.3600   28.0680 O.2   163  GLY163     -0.2714
    141  N         -0.0770    1.7350   28.6350 N.am  164  GLY164     -0.1939
    142  CA        -0.3500    1.0840   29.8980 C.3   164  GLY164      0.2014
    143  C         -1.5540    1.7720   30.4440 C.2   164  GLY164      0.2639
    144  O         -2.1090    2.6490   29.7970 O.2   164  GLY164     -0.2714
    145  N         -1.9520    1.3810   31.6340 N.am  165  ASN165     -0.1958
    146  CA        -3.1230    1.9720   32.2270 C.3   165  ASN165      0.1819
    147  C         -3.0970    1.7200   33.7020 C.2   165  ASN165      0.2621
    148  O         -4.1320    1.7270   34.3320 O.2   165  ASN165     -0.2715
    149  CB        -4.4110    1.4170   31.6120 C.3   165  ASN165      0.1195
    150  CG        -4.5190   -0.0960   31.7170 C.2   165  ASN165      0.2630
    151  OD1       -3.8810   -0.7390   32.5480 O.2   165  ASN165     -0.2716
    152  ND2       -5.3450   -0.6700   30.8710 N.am  165  ASN165     -0.0877
    153  N         -1.9190    1.4680   34.2560 N.am  166  GLY166     -0.1954
    154  CA        -1.8200    1.3450   35.6940 C.3   166  GLY166      0.1869
    155  C         -1.9980   -0.0580   36.2550 C.2   166  GLY166      0.2309
    156  O         -1.6500   -0.2940   37.4110 O.2   166  GLY166     -0.2863
@<TRIPOS>BOND
     1    64    63    1
     2    63    62    1
     3    18    17    1
     4    18    19    1
     5    17    16    1
     6    33    34    1
     7    62    61    1
     8    16    13    1
     9    21    20    1
    10    19    20    2
    11    34    35    1
    12    34    37    1
    13    35    36    2
    14    61    60    1
    15    74    73    1
    16    74    75    2
    17    71    70    1
    18    71    65    1
    19    68    67    2
    20    20    22    1
    21    69    70    1
    22    69    66    1
    23    13    12    1
    24    13    14    1
    25    73    72    1
    26    73    76    1
    27    15    14    2
    28    67    72   am
    29    67    66    1
    30    65    66    1
    31    65    58   am
    32    78    76    1
    33    14    23   am
    34    37    38    1
    35    76    77    1
    36    60    57    1
    37    57    58    1
    38    57    56    1
    39    58    59    2
    40    23    24    1
    41    38    39    1
    42    40    39   ar
    43    39    41   ar
    44    24    25    1
    45    24    27    1
    46    25    26    2
    47    27    28    1
    48   136   134    1
    49   135   133    1
    50    28    29   ar
    51    28    30   ar
    52    29    31   ar
    53   134   133    1
    54   133   130    1
    55    42    43    1
    56    52    53    2
    57    52    51    1
    58    54    55    1
    59    54    51    1
    60    30    32   ar
    61   122   121    2
    62    50    51    1
    63    50    44   am
    64    31    32   ar
    65   119   120    1
    66   130   129    1
    67   130   131    1
    68    43    46    1
    69    43    44    1
    70    46    47    1
    71   121   129   am
    72   121   120    1
    73    44    45    2
    74     5     6    1
    75     5     2    1
    76     7     6   ar
    77     7     9   ar
    78     6     8   ar
    79     9    11   ar
    80    47    48    1
    81    47    49    1
    82     8    10   ar
    83    11    10   ar
    84   120   123    1
    85   131   132    2
    86   131   137   am
    87   115   116    2
    88   115   114    1
    89   137   138    1
    90     3     2    1
    91     3     4    2
    92     2     1    1
    93   117   114    1
    94   117   118    1
    95   123   124    1
    96   114   113    1
    97   138   139    1
    98   124   125   ar
    99   124   126   ar
   100   125   127   ar
   101   126   128   ar
   102   107   106    2
   103   113   106   am
   104   139   140    2
   105   139   141   am
   106   106   105    1
   107   127   128   ar
   108   141   142    1
   109   105   104    1
   110   105   108    1
   111   144   143    2
   112   142   143    1
   113   104   102   am
   114   143   145   am
   115   102   103    2
   116   102   101    1
   117   108   109    1
   118   101   100    1
   119   152   150   am
   120    84    83    1
   121   100    97   am
   122    85    83    1
   123   149   150    1
   124   149   146    1
   125   145   146    1
   126   150   151    2
   127    83    80    1
   128   109   110    1
   129    89    88    2
   130    97    96    1
   131    97    98    2
   132   146   147    1
   133    96    99    1
   134    96    95    1
   135   110   111    2
   136   110   112   am
   137    88    95   am
   138    88    87    1
   139    80    81    1
   140    80    79    1
   141    81    82    2
   142    81    86   am
   143   147   153   am
   144   147   148    2
   145    86    87    1
   146    87    90    1
   147   153   154    1
   148    90    91    1
   149    91    92    1
   150   154   155    1
   151   155   156    2
   152    92    93    1
   153    93    94    1
