@<TRIPOS>MOLECULE
tmp/5gszA00.pdb
 118 118 0 0 0
SMALL
GASTEIGER

@<TRIPOS>ATOM
      1  N          5.2850   24.9010   16.8430 N.3     7  ARG7       -0.1231
      2  CA         5.6930   25.4760   15.5670 C.3     7  ARG7        0.1694
      3  C          7.1600   25.1820   15.3000 C.2     7  ARG7        0.2592
      4  O          8.0250   25.5290   16.1110 O.2     7  ARG7       -0.2718
      5  CB         5.4690   26.9820   15.5370 C.3     7  ARG7        0.0321
      6  CG         5.6400   27.5920   14.1600 C.3     7  ARG7        0.0489
      7  CD         5.1500   29.0030   14.1840 C.3     7  ARG7        0.2205
      8  NE         5.0730   29.5780   12.8660 N.pl3   7  ARG7       -0.0865
      9  CZ         4.6470   30.8070   12.6340 C.cat   7  ARG7        0.5346
     10  NH1        4.2840   31.5700   13.6500 N.pl3   7  ARG7        0.1354
     11  NH2        4.5970   31.2790   11.3960 N.pl3   7  ARG7        0.1354
     12  N          7.4340   24.5750   14.1460 N.am    8  VAL8       -0.1966
     13  CA         8.7900   24.3780   13.6470 C.3     8  VAL8        0.1727
     14  C          9.1030   25.4870   12.6540 C.2     8  VAL8        0.2616
     15  O          8.4200   25.6280   11.6290 O.2     8  VAL8       -0.2715
     16  CB         8.9400   23.0030   12.9860 C.3     8  VAL8        0.0290
     17  CG1       10.4090   22.7030   12.7800 C.3     8  VAL8        0.0023
     18  CG2        8.2320   21.9170   13.8170 C.3     8  VAL8        0.0023
     19  N         10.1140   26.2830   12.9430 N.am    9  ARG9       -0.1964
     20  CA        10.4780   27.2760   11.9490 C.3     9  ARG9        0.1714
     21  C         11.3180   26.6060   10.8730 C.2     9  ARG9        0.2458
     22  O         11.8920   25.5480   11.1050 O.2     9  ARG9       -0.2730
     23  CB        11.2420   28.4250   12.5900 C.3     9  ARG9        0.0347
     24  CG        12.5330   28.0060   13.2380 C.3     9  ARG9        0.0492
     25  CD        13.3270   29.2370   13.6110 C.3     9  ARG9        0.2205
     26  NE        14.6210   28.9390   14.2190 N.pl3   9  ARG9       -0.0865
     27  CZ        15.6540   28.3970   13.5660 C.cat   9  ARG9        0.5346
     28  NH1       15.5320   28.0520   12.2900 N.pl3   9  ARG9        0.1354
     29  NH2       16.8090   28.1830   14.1880 N.pl3   9  ARG9        0.1354
     30  N         11.3910   27.1780    9.6780 N.am   10  PRO10      -0.2727
     31  CA        12.3290   26.6500    8.6830 C.3    10  PRO10       0.1402
     32  C         13.7550   26.6710    9.2100 C.2    10  PRO10       0.2269
     33  O         14.1220   27.4980   10.0460 O.2    10  PRO10      -0.2865
     34  CB        12.1680   27.6040    7.4950 C.3    10  PRO10       0.0296
     35  CG        10.8250   28.2270    7.7020 C.3    10  PRO10       0.0237
     36  CD        10.6160   28.3170    9.1670 C.3    10  PRO10       0.0939
     37  N          4.7460   23.5630   10.5730 N.3    62  ASP62      -0.1225
     38  CA         6.0910   23.7870   10.0420 C.3    62  ASP62       0.1805
     39  C          6.0240   24.8380    8.9350 C.2    62  ASP62       0.2597
     40  O          4.9950   25.4920    8.7460 O.2    62  ASP62      -0.2718
     41  CB         6.7400   22.4800    9.5610 C.3    62  ASP62       0.1424
     42  CG         6.0340   21.8500    8.3650 C.2    62  ASP62       0.3668
     43  OD1        5.2880   22.5450    7.6290 O.co2  62  ASP62      -0.2456
     44  OD2        6.2530   20.6360    8.1550 O.co2  62  ASP62      -0.2456
     45  N          7.1230   24.9620    8.1710 N.am   63  PHE63      -0.1976
     46  CA         7.2730   26.0420    7.1900 C.3    63  PHE63       0.1639
     47  C          6.1030   26.1470    6.2190 C.2    63  PHE63       0.2290
     48  O          5.9580   27.1710    5.5460 O.2    63  PHE63      -0.2864
     49  CB         8.5550   25.8610    6.3730 C.3    63  PHE63       0.0560
     50  CG         8.5520   24.6290    5.5050 C.ar   63  PHE63      -0.0200
     51  CD1        8.6390   23.3650    6.0770 C.ar   63  PHE63      -0.0042
     52  CD2        8.4330   24.7320    4.1230 C.ar   63  PHE63      -0.0042
     53  CE1        8.6340   22.2280    5.2920 C.ar   63  PHE63      -0.0003
     54  CE2        8.4300   23.5960    3.3280 C.ar   63  PHE63      -0.0003
     55  CZ         8.5320   22.3430    3.9200 C.ar   63  PHE63      -0.0000
     56  N         13.1990   28.3610   22.9540 N.3    95  PRO95      -0.2102
     57  CA        14.5510   28.9270   23.0400 C.3    95  PRO95       0.1504
     58  C         14.7120   30.1000   22.0840 C.2    95  PRO95       0.2576
     59  O         13.9780   30.2370   21.1040 O.2    95  PRO95      -0.2718
     60  CB        15.4520   27.7600   22.6300 C.3    95  PRO95       0.0282
     61  CG        14.5830   26.5590   22.6180 C.3    95  PRO95       0.0208
     62  CD        13.1930   27.0210   22.3550 C.3    95  PRO95       0.0893
     63  N         15.6880   30.9560   22.3830 N.am   96  THR96      -0.1939
     64  CA        15.9730   32.1090   21.5320 C.3    96  THR96       0.2028
     65  C         16.2310   31.7000   20.0840 C.2    96  THR96       0.2643
     66  O         16.8960   30.7010   19.8080 O.2    96  THR96      -0.2714
     67  CB        17.1820   32.8660   22.0780 C.3    96  THR96       0.1808
     68  OG1       16.8990   33.3330   23.4040 O.3    96  THR96      -0.2208
     69  CG2       17.5210   34.0520   21.2040 C.3    96  THR96       0.0379
     70  N         15.6770   32.4670   19.1500 N.am   97  GLY97      -0.1939
     71  CA        15.9170   32.2440   17.7400 C.3    97  GLY97       0.2014
     72  C         15.0160   31.2320   17.0700 C.2    97  GLY97       0.2639
     73  O         15.1770   31.0050   15.8480 O.2    97  GLY97      -0.2714
     74  N         14.0620   30.6370   17.8150 N.am   98  CYS98      -0.1953
     75  CA        13.1530   29.5960   17.3240 C.3    98  CYS98       0.1843
     76  C         11.8170   30.1230   16.8100 C.2    98  CYS98       0.2626
     77  O         11.0280   29.3300   16.2760 O.2    98  CYS98      -0.2714
     78  CB        12.8340   28.5720   18.4190 C.3    98  CYS98       0.0997
     79  SG        14.1650   27.5300   18.9590 S.3    98  CYS98      -0.0797
     80  N         11.5020   31.4050   17.0080 N.am   99  GLY99      -0.1940
     81  CA        10.2900   31.9180   16.4010 C.3    99  GLY99       0.2014
     82  C          9.3460   32.7810   17.2090 C.2    99  GLY99       0.2639
     83  O          8.4330   33.3560   16.6220 O.2    99  GLY99      -0.2714
     84  N          9.5640   32.9280   18.5180 N.am  100  LYS100     -0.1963
     85  CA         8.5880   33.5850   19.3900 C.3   100  LYS100      0.1728
     86  C          8.1560   34.9610   18.8640 C.2   100  LYS100      0.2617
     87  O          6.9760   35.1830   18.5650 O.2   100  LYS100     -0.2715
     88  CB         9.1590   33.6770   20.8070 C.3   100  LYS100      0.0311
     89  CG         9.3340   32.3090   21.4740 C.3   100  LYS100      0.0038
     90  CD         9.7720   32.4270   22.9210 C.3   100  LYS100      0.0206
     91  CE        11.0120   33.3040   23.0660 C.3   100  LYS100      0.1093
     92  NZ        12.2270   32.8010   22.3630 N.3   100  LYS100     -0.1314
     93  N          9.0950   35.9050   18.7410 N.am  101  THR101     -0.1937
     94  CA         8.7080   37.2350   18.2760 C.3   101  THR101      0.2028
     95  C          8.1010   37.1920   16.8710 C.2   101  THR101      0.2642
     96  O          7.1950   37.9690   16.5650 O.2   101  THR101     -0.2714
     97  CB         9.9070   38.1850   18.3300 C.3   101  THR101      0.1808
     98  OG1       10.4860   38.1640   19.6370 O.3   101  THR101     -0.2208
     99  CG2        9.4880   39.6040   18.0360 C.3   101  THR101      0.0379
    100  N          8.5450   36.2670   16.0160 N.am  102  TYR102     -0.1973
    101  CA         7.9360   36.1520   14.6970 C.3   102  TYR102      0.1639
    102  C          6.4710   35.7250   14.7900 C.2   102  TYR102      0.2290
    103  O          5.6110   36.2870   14.1010 O.2   102  TYR102     -0.2864
    104  CB         8.7350   35.1790   13.8220 C.3   102  TYR102      0.0560
    105  CG         8.1760   35.0020   12.4210 C.ar  102  TYR102     -0.0198
    106  CD1        8.5230   35.8770   11.3970 C.ar  102  TYR102     -0.0009
    107  CD2        7.2850   33.9690   12.1270 C.ar  102  TYR102     -0.0009
    108  CE1        8.0160   35.7220   10.1110 C.ar  102  TYR102      0.0417
    109  CE2        6.7680   33.8100   10.8520 C.ar  102  TYR102      0.0417
    110  CZ         7.1420   34.6960    9.8470 C.ar  102  TYR102      0.1957
    111  OH         6.6400   34.5480    8.5820 O.3   102  TYR102     -0.2866
    112  N          6.3160   40.5020   11.0520 N.3   107  THR107     -0.1218
    113  CA         6.9990   41.5740   10.3420 C.3   107  THR107      0.1862
    114  C          5.9790   42.3960    9.5720 C.2   107  THR107      0.2287
    115  O          4.8160   42.0020    9.4160 O.2   107  THR107     -0.2866
    116  CB         8.0470   41.0420    9.3570 C.3   107  THR107      0.1770
    117  OG1        7.3940   40.2710    8.3360 O.3   107  THR107     -0.2211
    118  CG2        9.0630   40.1830   10.0630 C.3   107  THR107      0.0375
@<TRIPOS>BOND
     1    54    55   ar
     2    54    52   ar
     3    55    53   ar
     4    52    50   ar
     5    53    51   ar
     6    50    51   ar
     7    50    49    1
     8    48    47    2
     9    47    46    1
    10    49    46    1
    11    46    45    1
    12    34    35    1
    13    34    31    1
    14    43    42   ar
    15    35    36    1
    16    44    42   ar
    17    45    39   am
    18   117   116    1
    19    42    41    1
    20   111   110    1
    21    31    32    1
    22    31    30    1
    23    40    39    2
    24    39    38    1
    25    36    30    1
    26    32    33    2
    27   116   118    1
    28   116   113    1
    29   115   114    2
    30    41    38    1
    31   114   113    1
    32    30    21   am
    33   110   108   ar
    34   110   109   ar
    35    38    37    1
    36   108   106   ar
    37   113   112    1
    38   109   107   ar
    39    21    22    2
    40    21    20    1
    41    11     9    1
    42   106   105   ar
    43    15    14    2
    44    20    23    1
    45    20    19    1
    46   107   105   ar
    47    28    27    1
    48   105   104    1
    49    23    24    1
    50     9     8    2
    51     9    10    1
    52    14    19   am
    53    14    13    1
    54    17    16    1
    55     8     7    1
    56    16    13    1
    57    16    18    1
    58    24    25    1
    59    27    29    1
    60    27    26    2
    61    25    26    1
    62    13    12    1
    63   104   101    1
    64   103   102    2
    65    12     3   am
    66     6     7    1
    67     6     5    1
    68   101   102    1
    69   101   100    1
    70     3     2    1
    71     3     4    2
    72     5     2    1
    73     2     1    1
    74    73    72    2
    75   100    95   am
    76    77    76    2
    77    81    80    1
    78    81    82    1
    79    96    95    2
    80    83    82    2
    81    76    80   am
    82    76    75    1
    83    95    94    1
    84    72    71    1
    85    72    74   am
    86    82    84   am
    87    75    74    1
    88    75    78    1
    89    71    70    1
    90    99    97    1
    91    94    97    1
    92    94    93    1
    93    97    98    1
    94    78    79    1
    95    84    85    1
    96    87    86    2
    97    93    86   am
    98    86    85    1
    99    70    65   am
   100    85    88    1
   101    66    65    2
   102    65    64    1
   103    88    89    1
   104    59    58    2
   105    69    67    1
   106    89    90    1
   107    64    67    1
   108    64    63    1
   109    67    68    1
   110    58    63   am
   111    58    57    1
   112    62    61    1
   113    62    56    1
   114    92    91    1
   115    61    60    1
   116    60    57    1
   117    90    91    1
   118    56    57    1
