@<TRIPOS>MOLECULE
tmp/5gt7C00.pdb
 146 144 0 0 0
SMALL
GASTEIGER

@<TRIPOS>ATOM
      1  N         50.8590  -28.5290  -89.9600 N.3   105  ALA105     -0.1245
      2  CA        50.1910  -27.2350  -90.0510 C.3   105  ALA105      0.1562
      3  C         50.4430  -26.5770  -91.4040 C.2   105  ALA105      0.2260
      4  O         49.5170  -26.0440  -92.0280 O.2   105  ALA105     -0.2867
      5  CB        50.6570  -26.3200  -88.9190 C.3   105  ALA105      0.0290
      6  N         46.8910  -29.6120  -92.5520 N.3   109  VAL109     -0.1231
      7  CA        46.3170  -30.7610  -91.8580 C.3   109  VAL109      0.1692
      8  C         45.9950  -30.3240  -90.4350 C.2   109  VAL109      0.2593
      9  O         46.8980  -30.0360  -89.6410 O.2   109  VAL109     -0.2718
     10  CB        47.2630  -31.9680  -91.8710 C.3   109  VAL109      0.0266
     11  CG1       46.6560  -33.1260  -91.0790 C.3   109  VAL109      0.0020
     12  CG2       47.5630  -32.3910  -93.3040 C.3   109  VAL109      0.0020
     13  N         44.7070  -30.2790  -90.1080 N.am  110  SER110     -0.1938
     14  CA        44.2650  -29.9290  -88.7650 C.3   110  SER110      0.2055
     15  C         44.4180  -31.1270  -87.8320 C.2   110  SER110      0.2643
     16  O         44.1110  -32.2630  -88.2060 O.2   110  SER110     -0.2714
     17  CB        42.8090  -29.4660  -88.8000 C.3   110  SER110      0.2130
     18  OG        42.3650  -29.0610  -87.5190 O.3   110  SER110     -0.2179
     19  N         44.9030  -30.8720  -86.6120 N.am  111  VAL111     -0.1963
     20  CA        45.1770  -31.9350  -85.6510 C.3   111  VAL111      0.1727
     21  C         44.4120  -31.6890  -84.3540 C.2   111  VAL111      0.2616
     22  O         43.9340  -30.5870  -84.0730 O.2   111  VAL111     -0.2715
     23  CB        46.6860  -32.0820  -85.3520 C.3   111  VAL111      0.0290
     24  CG1       47.4840  -32.2420  -86.6360 C.3   111  VAL111      0.0023
     25  CG2       47.2040  -30.8970  -84.5380 C.3   111  VAL111      0.0023
     26  N         44.2970  -32.7560  -83.5640 N.am  112  LEU112     -0.1977
     27  CA        43.9290  -32.6790  -82.1550 C.3   112  LEU112      0.1596
     28  C         45.0010  -33.4090  -81.3580 C.2   112  LEU112      0.2287
     29  O         45.4640  -34.4710  -81.7720 O.2   112  LEU112     -0.2864
     30  CB        42.5570  -33.3060  -81.8830 C.3   112  LEU112      0.0297
     31  CG        41.3250  -32.5890  -82.4330 C.3   112  LEU112      0.0022
     32  CD1       40.1280  -33.5200  -82.3740 C.3   112  LEU112      0.0001
     33  CD2       41.0460  -31.3130  -81.6520 C.3   112  LEU112      0.0001
     34  N         37.8090  -23.1510  -80.5860 N.3   267  LEU267     -0.1231
     35  CA        38.7900  -23.3410  -81.6450 C.3   267  LEU267      0.1693
     36  C         38.2810  -24.1870  -82.8030 C.2   267  LEU267      0.2593
     37  O         38.9130  -24.1950  -83.8650 O.2   267  LEU267     -0.2718
     38  CB        40.0480  -23.9840  -81.0570 C.3   267  LEU267      0.0284
     39  CG        40.7010  -23.1920  -79.9230 C.3   267  LEU267      0.0019
     40  CD1       41.8820  -23.9580  -79.3560 C.3   267  LEU267      0.0001
     41  CD2       41.1320  -21.8010  -80.3940 C.3   267  LEU267      0.0001
     42  N         37.1720  -24.8940  -82.6360 N.am  268  GLY268     -0.1942
     43  CA        36.7280  -25.7070  -83.7360 C.3   268  GLY268      0.2014
     44  C         37.7320  -26.8080  -84.0420 C.2   268  GLY268      0.2638
     45  O         38.6050  -27.1490  -83.2400 O.2   268  GLY268     -0.2714
     46  N         37.5870  -27.3720  -85.2420 N.am  269  PHE269     -0.1973
     47  CA        38.3850  -28.5190  -85.6530 C.3   269  PHE269      0.1639
     48  C         39.0350  -28.3260  -87.0160 C.2   269  PHE269      0.2290
     49  O         39.6660  -29.2590  -87.5280 O.2   269  PHE269     -0.2864
     50  CB        37.4970  -29.7660  -85.6550 C.3   269  PHE269      0.0560
     51  CG        36.8100  -29.9980  -84.3450 C.ar  269  PHE269     -0.0200
     52  CD1       37.4550  -30.6620  -83.3170 C.ar  269  PHE269     -0.0042
     53  CD2       35.5350  -29.5060  -84.1230 C.ar  269  PHE269     -0.0042
     54  CE1       36.8270  -30.8590  -82.1030 C.ar  269  PHE269     -0.0003
     55  CE2       34.9030  -29.6990  -82.9110 C.ar  269  PHE269     -0.0003
     56  CZ        35.5510  -30.3720  -81.8990 C.ar  269  PHE269     -0.0000
     57  N         40.7790  -25.0430  -88.0680 N.3   271  GLU271     -0.1231
     58  CA        41.9230  -24.1410  -88.0920 C.3   271  GLU271      0.1699
     59  C         43.2060  -24.8950  -87.7640 C.2   271  GLU271      0.2592
     60  O         43.2670  -25.6470  -86.7860 O.2   271  GLU271     -0.2718
     61  CB        41.7340  -22.9980  -87.0960 C.3   271  GLU271      0.0402
     62  CG        42.8910  -22.0040  -87.1110 C.3   271  GLU271      0.1161
     63  CD        42.7360  -20.8890  -86.0990 C.2   271  GLU271      0.3649
     64  OE1       41.6030  -20.6550  -85.6260 O.co2 271  GLU271     -0.2457
     65  OE2       43.7580  -20.2450  -85.7740 O.co2 271  GLU271     -0.2457
     66  N         44.2370  -24.6730  -88.5710 N.am  272  CYS272     -0.1956
     67  CA        45.5470  -25.2690  -88.3580 C.3   272  CYS272      0.1843
     68  C         46.4960  -24.2490  -87.7360 C.2   272  CYS272      0.2626
     69  O         46.2300  -23.0450  -87.7180 O.2   272  CYS272     -0.2714
     70  CB        46.1250  -25.7850  -89.6790 C.3   272  CYS272      0.0997
     71  SG        45.0490  -26.9390  -90.5560 S.3   272  CYS272     -0.0797
     72  N         47.6090  -24.7550  -87.2080 N.am  273  GLY273     -0.1940
     73  CA        48.6810  -23.9170  -86.7050 C.3   273  GLY273      0.2014
     74  C         48.5490  -23.4510  -85.2710 C.2   273  GLY273      0.2639
     75  O         49.3640  -22.6330  -84.8290 O.2   273  GLY273     -0.2714
     76  N         47.5600  -23.9410  -84.5280 N.am  274  ILE274     -0.1963
     77  CA        47.4140  -23.5610  -83.1240 C.3   274  ILE274      0.1727
     78  C         48.4520  -24.2870  -82.2710 C.2   274  ILE274      0.2616
     79  O         49.2830  -23.6720  -81.5790 O.2   274  ILE274     -0.2715
     80  CB        45.9740  -23.8530  -82.6550 C.3   274  ILE274      0.0290
     81  CG1       44.9780  -23.1430  -83.5860 C.3   274  ILE274      0.0022
     82  CG2       45.7710  -23.4260  -81.2070 C.3   274  ILE274      0.0023
     83  CD1       43.5110  -23.3340  -83.2300 C.3   274  ILE274      0.0001
     84  N         48.4380  -25.6200  -82.3380 N.am  275  VAL275     -0.1963
     85  CA        49.4920  -26.3930  -81.6940 C.3   275  VAL275      0.1727
     86  C         50.8460  -25.8810  -82.1520 C.2   275  VAL275      0.2616
     87  O         51.7530  -25.6860  -81.3440 O.2   275  VAL275     -0.2715
     88  CB        49.3390  -27.8980  -81.9880 C.3   275  VAL275      0.0290
     89  CG1       50.3440  -28.6940  -81.1500 C.3   275  VAL275      0.0023
     90  CG2       47.9170  -28.3790  -81.7210 C.3   275  VAL275      0.0023
     91  N         50.9950  -25.6280  -83.4550 N.am  276  ALA276     -0.1977
     92  CA        52.2880  -25.2020  -83.9840 C.3   276  ALA276      0.1597
     93  C         52.7380  -23.8850  -83.3650 C.2   276  ALA276      0.2287
     94  O         53.9170  -23.7210  -83.0240 O.2   276  ALA276     -0.2864
     95  CB        52.2190  -25.0790  -85.5060 C.3   276  ALA276      0.0319
     96  N         44.0710  -31.3570  -76.3060 N.3   293  SER293     -0.1202
     97  CA        42.9710  -30.6500  -76.9420 C.3   293  SER293      0.2020
     98  C         41.6530  -31.1370  -76.3510 C.2   293  SER293      0.2619
     99  O         41.4500  -32.3440  -76.1880 O.2   293  SER293     -0.2717
    100  CB        42.9800  -30.8840  -78.4540 C.3   293  SER293      0.2103
    101  OG        44.2190  -30.5200  -79.0350 O.3   293  SER293     -0.2182
    102  N         40.7680  -30.2000  -76.0200 N.am  294  THR294     -0.1938
    103  CA        39.3820  -30.5140  -75.7010 C.3   294  THR294      0.2028
    104  C         38.4910  -29.9700  -76.8130 C.2   294  THR294      0.2642
    105  O         38.9670  -29.4080  -77.8040 O.2   294  THR294     -0.2714
    106  CB        38.9760  -29.9570  -74.3310 C.3   294  THR294      0.1808
    107  OG1       38.9670  -28.5240  -74.3660 O.3   294  THR294     -0.2208
    108  CG2       39.9270  -30.4460  -73.2430 C.3   294  THR294      0.0379
    109  N         37.1790  -30.1430  -76.6430 N.am  295  PHE295     -0.1959
    110  CA        36.2500  -29.7920  -77.7140 C.3   295  PHE295      0.1771
    111  C         36.3680  -28.3190  -78.0900 C.2   295  PHE295      0.2620
    112  O         36.2670  -27.9670  -79.2700 O.2   295  PHE295     -0.2715
    113  CB        34.8160  -30.1310  -77.3070 C.3   295  PHE295      0.0574
    114  CG        33.8830  -30.3100  -78.4740 C.ar  295  PHE295     -0.0200
    115  CD1       33.7480  -31.5500  -79.0820 C.ar  295  PHE295     -0.0042
    116  CD2       33.1370  -29.2480  -78.9570 C.ar  295  PHE295     -0.0042
    117  CE1       32.8930  -31.7240  -80.1540 C.ar  295  PHE295     -0.0003
    118  CE2       32.2790  -29.4150  -80.0310 C.ar  295  PHE295     -0.0003
    119  CZ        32.1560  -30.6540  -80.6290 C.ar  295  PHE295     -0.0000
    120  N         36.5990  -27.4460  -77.1070 N.am  296  ASN296     -0.1958
    121  CA        36.5770  -26.0060  -77.3350 C.3   296  ASN296      0.1819
    122  C         37.9380  -25.3300  -77.2640 C.2   296  ASN296      0.2621
    123  O         38.1300  -24.3100  -77.9290 O.2   296  ASN296     -0.2715
    124  CB        35.6560  -25.3200  -76.3170 C.3   296  ASN296      0.1195
    125  CG        34.2170  -25.7750  -76.4310 C.2   296  ASN296      0.2630
    126  OD1       33.5590  -25.5330  -77.4400 O.2   296  ASN296     -0.2716
    127  ND2       33.7160  -26.4240  -75.3880 N.am  296  ASN296     -0.0877
    128  N         38.8890  -25.8540  -76.4920 N.am  297  PHE297     -0.1960
    129  CA        40.1340  -25.1390  -76.2430 C.3   297  PHE297      0.1771
    130  C         41.3050  -26.1110  -76.2610 C.2   297  PHE297      0.2619
    131  O         41.1310  -27.3310  -76.1960 O.2   297  PHE297     -0.2715
    132  CB        40.0940  -24.4010  -74.9000 C.3   297  PHE297      0.0574
    133  CG        38.9960  -23.3840  -74.8030 C.ar  297  PHE297     -0.0200
    134  CD1       39.0900  -22.1780  -75.4760 C.ar  297  PHE297     -0.0042
    135  CD2       37.8790  -23.6270  -74.0220 C.ar  297  PHE297     -0.0042
    136  CE1       38.0780  -21.2400  -75.3880 C.ar  297  PHE297     -0.0003
    137  CE2       36.8650  -22.6920  -73.9280 C.ar  297  PHE297     -0.0003
    138  CZ        36.9660  -21.4960  -74.6090 C.ar  297  PHE297     -0.0000
    139  N         42.5120  -25.5540  -76.3450 N.am  298  ASP298     -0.1971
    140  CA        43.7280  -26.3450  -76.2280 C.3   298  ASP298      0.1709
    141  C         44.3700  -26.0630  -74.8760 C.2   298  ASP298      0.2293
    142  O         44.1320  -25.0230  -74.2620 O.2   298  ASP298     -0.2864
    143  CB        44.7150  -26.0380  -77.3610 C.3   298  ASP298      0.1436
    144  CG        44.4270  -26.8300  -78.6340 C.2   298  ASP298      0.3671
    145  OD1       43.6090  -27.7760  -78.5980 O.co2 298  ASP298     -0.2456
    146  OD2       45.0340  -26.5060  -79.6790 O.co2 298  ASP298     -0.2456
@<TRIPOS>BOND
     1    12    10    1
     2     6     7    1
     3     4     3    2
     4    10     7    1
     5    10    11    1
     6     7     8    1
     7     3     2    1
     8    71    70    1
     9     8    13   am
    10     8     9    2
    11    13    14    1
    12     2     1    1
    13     2     5    1
    14    70    67    1
    15    17    14    1
    16    17    18    1
    17    14    15    1
    18    66    67    1
    19    66    59   am
    20    67    68    1
    21    16    15    2
    22    58    57    1
    23    58    59    1
    24    58    61    1
    25    15    19   am
    26    59    60    2
    27    68    69    2
    28    68    72   am
    29    49    48    2
    30    72    73    1
    31    62    61    1
    32    62    63    1
    33    48    47    1
    34    73    74    1
    35    24    23    1
    36    19    20    1
    37    63    65   ar
    38    63    64   ar
    39    50    47    1
    40    50    51    1
    41    47    46    1
    42    20    23    1
    43    20    21    1
    44    95    92    1
    45    23    25    1
    46    74    75    2
    47    74    76   am
    48    46    44   am
    49    76    77    1
    50    21    22    2
    51    21    26   am
    52    51    53   ar
    53    51    52   ar
    54    53    55   ar
    55    44    43    1
    56    44    45    2
    57    92    91    1
    58    92    93    1
    59    37    36    2
    60    43    42    1
    61    81    83    1
    62    81    80    1
    63    26    27    1
    64    91    86   am
    65    93    94    2
    66    52    54   ar
    67    77    80    1
    68    77    78    1
    69    55    56   ar
    70    36    42   am
    71    36    35    1
    72    80    82    1
    73    31    32    1
    74    31    30    1
    75    31    33    1
    76    84    78   am
    77    84    85    1
    78    78    79    2
    79    27    30    1
    80    27    28    1
    81    86    85    1
    82    86    87    2
    83    54    56   ar
    84    88    90    1
    85    88    85    1
    86    88    89    1
    87    29    28    2
    88    35    38    1
    89    35    34    1
    90    38    39    1
    91   119   117   ar
    92   119   118   ar
    93    41    39    1
    94   117   115   ar
    95   118   116   ar
    96    39    40    1
    97   146   144   ar
    98   112   111    2
    99   115   114   ar
   100   101   100    1
   101   116   114   ar
   102   144   145   ar
   103   144   143    1
   104   114   113    1
   105   100    97    1
   106   111   110    1
   107   111   120   am
   108   123   122    2
   109   105   104    2
   110   110   113    1
   111   110   109    1
   112   126   125    2
   113   143   140    1
   114   121   122    1
   115   121   120    1
   116   121   124    1
   117   122   128   am
   118    97    98    1
   119    97    96    1
   120   104   109   am
   121   104   103    1
   122   128   129    1
   123   125   124    1
   124   125   127   am
   125    98    99    2
   126    98   102   am
   127   139   130   am
   128   139   140    1
   129   130   129    1
   130   130   131    2
   131   129   132    1
   132   140   141    1
   133   102   103    1
   134   103   106    1
   135   134   136   ar
   136   134   133   ar
   137   136   138   ar
   138   132   133    1
   139   141   142    2
   140   133   135   ar
   141   138   137   ar
   142   107   106    1
   143   106   108    1
   144   135   137   ar
