@<TRIPOS>MOLECULE
tmp/5gtdA00.pdb
 95 94 0 0 0
SMALL
GASTEIGER

@<TRIPOS>ATOM
      1  N         48.5970 -140.7840   -4.0020 N.3   178  ASN178     -0.1225
      2  CA        48.6980 -140.7900   -5.4510 C.3   178  ASN178      0.1785
      3  C         47.4060 -141.2700   -6.1120 C.2   178  ASN178      0.2597
      4  O         46.9680 -140.7010   -7.1120 O.2   178  ASN178     -0.2718
      5  CB        49.8770 -141.6600   -5.8850 C.3   178  ASN178      0.1169
      6  CG        50.0590 -141.6890   -7.3860 C.2   178  ASN178      0.2627
      7  OD1       50.0360 -142.7540   -8.0040 O.2   178  ASN178     -0.2716
      8  ND2       50.2310 -140.5150   -7.9860 N.am  178  ASN178     -0.0877
      9  N         46.7930 -142.3040   -5.5420 N.am  179  LEU179     -0.1980
     10  CA        45.5870 -142.8910   -6.1220 C.3   179  LEU179      0.1596
     11  C         44.2940 -142.3460   -5.5120 C.2   179  LEU179      0.2287
     12  O         43.2240 -142.4770   -6.1080 O.2   179  LEU179     -0.2864
     13  CB        45.6110 -144.4130   -5.9690 C.3   179  LEU179      0.0297
     14  CG        46.7800 -145.1610   -6.6090 C.3   179  LEU179      0.0022
     15  CD1       46.6630 -146.6520   -6.3490 C.3   179  LEU179      0.0001
     16  CD2       46.8430 -144.8780   -8.0980 C.3   179  LEU179      0.0001
     17  N         47.5540 -147.9410  -14.4380 N.3   282  PHE282     -0.1241
     18  CA        48.6340 -147.1890  -13.8160 C.3   282  PHE282      0.1605
     19  C         49.9440 -147.9680  -13.9090 C.2   282  PHE282      0.2264
     20  O         50.1760 -148.9020  -13.1430 O.2   282  PHE282     -0.2867
     21  CB        48.3090 -146.8780  -12.3530 C.3   282  PHE282      0.0534
     22  CG        47.2710 -145.8060  -12.1690 C.ar  282  PHE282     -0.0203
     23  CD1       45.9310 -146.0680  -12.4070 C.ar  282  PHE282     -0.0042
     24  CD2       47.6340 -144.5390  -11.7400 C.ar  282  PHE282     -0.0042
     25  CE1       44.9750 -145.0860  -12.2310 C.ar  282  PHE282     -0.0003
     26  CE2       46.6820 -143.5510  -11.5610 C.ar  282  PHE282     -0.0003
     27  CZ        45.3520 -143.8250  -11.8060 C.ar  282  PHE282     -0.0000
     28  N         55.1180 -144.1440  -10.2260 N.3   296  THR296     -0.1203
     29  CA        53.9060 -144.4970  -10.9550 C.3   296  THR296      0.1994
     30  C         53.4500 -143.4510  -11.9780 C.2   296  THR296      0.2618
     31  O         53.8180 -142.3040  -11.8980 O.2   296  THR296     -0.2717
     32  CB        52.7400 -144.8390  -10.0290 C.3   296  THR296      0.1784
     33  OG1       52.0600 -143.6490   -9.6690 O.3   296  THR296     -0.2211
     34  CG2       53.2230 -145.4960   -8.8030 C.3   296  THR296      0.0376
     35  N         52.6580 -143.8830  -12.9520 N.am  297  LEU297     -0.1965
     36  CA        52.2180 -143.0630  -14.0880 C.3   297  LEU297      0.1728
     37  C         50.7160 -143.0620  -14.2770 C.2   297  LEU297      0.2617
     38  O         50.0700 -144.0550  -14.0560 O.2   297  LEU297     -0.2715
     39  CB        52.8220 -143.6280  -15.3470 C.3   297  LEU297      0.0311
     40  CG        52.5730 -142.8920  -16.6310 C.3   297  LEU297      0.0022
     41  CD1       53.3980 -141.6380  -16.5820 C.3   297  LEU297      0.0001
     42  CD2       53.0340 -143.7670  -17.7770 C.3   297  LEU297      0.0001
     43  N         50.1480 -141.9540  -14.7170 N.am  298  SER298     -0.1936
     44  CA        48.6930 -141.8410  -14.7750 C.3   298  SER298      0.2040
     45  C         48.1410 -142.0760  -16.1550 C.2   298  SER298      0.2485
     46  O         48.6520 -141.5710  -17.1320 O.2   298  SER298     -0.2729
     47  CB        48.2210 -140.4810  -14.2550 C.3   298  SER298      0.2129
     48  OG        48.7500 -140.1850  -12.9850 O.3   298  SER298     -0.2179
     49  N         47.0900 -142.8610  -16.2300 N.am  299  PRO299     -0.2715
     50  CA        46.4740 -143.1650  -17.5290 C.3   299  PRO299      0.1536
     51  C         46.3920 -141.9320  -18.4220 C.2   299  PRO299      0.2598
     52  O         46.4190 -142.0390  -19.6490 O.2   299  PRO299     -0.2715
     53  CB        45.0750 -143.6550  -17.1460 C.3   299  PRO299      0.0310
     54  CG        45.2430 -144.2140  -15.7810 C.3   299  PRO299      0.0237
     55  CD        46.2690 -143.3480  -15.1080 C.3   299  PRO299      0.0939
     56  N         46.3550 -140.7630  -17.8020 N.am  300  GLU300     -0.1964
     57  CA        46.3200 -139.5290  -18.5580 C.3   300  GLU300      0.1733
     58  C         47.5890 -139.4810  -19.3910 C.2   300  GLU300      0.2616
     59  O         47.5820 -139.0090  -20.5270 O.2   300  GLU300     -0.2715
     60  CB        46.2530 -138.3230  -17.6210 C.3   300  GLU300      0.0429
     61  CG        45.4570 -138.5690  -16.3490 C.3   300  GLU300      0.1163
     62  CD        45.9550 -137.7400  -15.1820 C.2   300  GLU300      0.3649
     63  OE1       46.8590 -136.9030  -15.3870 O.co2 300  GLU300     -0.2457
     64  OE2       45.4420 -137.9260  -14.0580 O.co2 300  GLU300     -0.2457
     65  N         48.6350 -140.1180  -18.8970 N.am  301  PHE301     -0.1974
     66  CA        49.9250 -140.0160  -19.5370 C.3   301  PHE301      0.1639
     67  C         50.3910 -141.2220  -20.3380 C.2   301  PHE301      0.2290
     68  O         51.4830 -141.1990  -20.9000 O.2   301  PHE301     -0.2864
     69  CB        50.9560 -139.6220  -18.4880 C.3   301  PHE301      0.0560
     70  CG        50.5010 -138.5110  -17.5880 C.ar  301  PHE301     -0.0200
     71  CD1       49.4450 -138.6910  -16.7230 C.ar  301  PHE301     -0.0042
     72  CD2       51.1240 -137.2860  -17.6190 C.ar  301  PHE301     -0.0042
     73  CE1       49.0160 -137.6750  -15.9140 C.ar  301  PHE301     -0.0003
     74  CE2       50.7100 -136.2660  -16.8060 C.ar  301  PHE301     -0.0003
     75  CZ        49.6550 -136.4640  -15.9520 C.ar  301  PHE301     -0.0000
     76  N         56.4540 -140.8460  -12.4090 N.3   311  LYS311     -0.1245
     77  CA        57.2060 -139.9770  -11.5080 C.3   311  LYS311      0.1561
     78  C         57.2200 -140.5670  -10.1000 C.2   311  LYS311      0.2260
     79  O         56.4200 -141.4500   -9.7990 O.2   311  LYS311     -0.2867
     80  CB        56.5980 -138.5730  -11.4990 C.3   311  LYS311      0.0271
     81  CG        56.9470 -137.7330  -12.7110 C.3   311  LYS311      0.0035
     82  CD        56.2830 -136.3750  -12.6200 C.3   311  LYS311      0.0206
     83  CE        56.7820 -135.4350  -13.6970 C.3   311  LYS311      0.1093
     84  NZ        55.9910 -134.1750  -13.7000 N.3   311  LYS311     -0.1314
     85  N         60.0240 -137.6260  -16.2050 N.3   375  PHE375     -0.1241
     86  CA        59.4160 -138.9520  -16.2590 C.3   375  PHE375      0.1605
     87  C         60.4860 -140.0190  -16.4320 C.2   375  PHE375      0.2264
     88  O         61.4510 -139.8290  -17.1740 O.2   375  PHE375     -0.2867
     89  CB        58.3920 -139.0420  -17.3890 C.3   375  PHE375      0.0534
     90  CG        57.1530 -138.2320  -17.1460 C.ar  375  PHE375     -0.0203
     91  CD1       57.0820 -136.9090  -17.5550 C.ar  375  PHE375     -0.0042
     92  CD2       56.0580 -138.7910  -16.5070 C.ar  375  PHE375     -0.0042
     93  CE1       55.9420 -136.1600  -17.3330 C.ar  375  PHE375     -0.0003
     94  CE2       54.9140 -138.0450  -16.2830 C.ar  375  PHE375     -0.0003
     95  CZ        54.8560 -136.7290  -16.6980 C.ar  375  PHE375     -0.0000
@<TRIPOS>BOND
     1    68    67    2
     2    59    58    2
     3    67    66    1
     4    52    51    2
     5    66    65    1
     6    66    69    1
     7    58    65   am
     8    58    57    1
     9    57    56    1
    10    57    60    1
    11    69    70    1
    12    51    56   am
    13    51    50    1
    14    42    40    1
    15    60    61    1
    16    72    70   ar
    17    72    74   ar
    18    70    71   ar
    19    91    93   ar
    20    91    90   ar
    21    50    53    1
    22    50    49    1
    23    89    90    1
    24    89    86    1
    25    93    95   ar
    26    88    87    2
    27    90    92   ar
    28    53    54    1
    29    46    45    2
    30    74    75   ar
    31    71    73   ar
    32    95    94   ar
    33    40    41    1
    34    40    39    1
    35    92    94   ar
    36    87    86    1
    37    61    62    1
    38    86    85    1
    39    49    45   am
    40    49    55    1
    41    45    44    1
    42    75    73   ar
    43    54    55    1
    44    63    62   ar
    45    39    36    1
    46    62    64   ar
    47    44    43    1
    48    44    47    1
    49    43    37   am
    50    17    18    1
    51    37    36    1
    52    37    38    2
    53    47    48    1
    54    36    35    1
    55    19    18    1
    56    19    20    2
    57    18    21    1
    58    84    83    1
    59    83    82    1
    60    35    30   am
    61    81    82    1
    62    81    80    1
    63    76    77    1
    64    23    25   ar
    65    23    22   ar
    66    21    22    1
    67    25    27   ar
    68    22    24   ar
    69    30    31    2
    70    30    29    1
    71    27    26   ar
    72    24    26   ar
    73    77    80    1
    74    77    78    1
    75    29    28    1
    76    29    32    1
    77    78    79    2
    78    32    33    1
    79    32    34    1
    80    16    14    1
    81     7     6    2
    82     8     6   am
    83     6     5    1
    84     4     3    2
    85    14    15    1
    86    14    13    1
    87    10    13    1
    88    10     9    1
    89    10    11    1
    90     3     9   am
    91     3     2    1
    92    12    11    2
    93     5     2    1
    94     2     1    1
