@<TRIPOS>MOLECULE
tmp/5gtdA01.pdb
 167 161 0 0 0
SMALL
GASTEIGER

@<TRIPOS>ATOM
      1  N         65.1880 -161.2270   -2.5880 N.3   151  THR151     -0.1203
      2  CA        65.2740 -160.7690   -3.9660 C.3   151  THR151      0.1994
      3  C         65.3270 -161.9670   -4.9030 C.2   151  THR151      0.2618
      4  O         65.7390 -163.0550   -4.5080 O.2   151  THR151     -0.2717
      5  CB        66.5120 -159.8760   -4.2000 C.3   151  THR151      0.1784
      6  OG1       67.7080 -160.6480   -4.0330 O.3   151  THR151     -0.2211
      7  CG2       66.5230 -158.7130   -3.2240 C.3   151  THR151      0.0376
      8  N         64.9040 -161.7650   -6.1440 N.am  152  SER152     -0.1951
      9  CA        64.8520 -162.8540   -7.1090 C.3   152  SER152      0.1924
     10  C         65.6980 -162.5410   -8.3330 C.2   152  SER152      0.2314
     11  O         65.4420 -163.0560   -9.4200 O.2   152  SER152     -0.2863
     12  CB        63.4080 -163.1290   -7.5270 C.3   152  SER152      0.2116
     13  OG        62.7190 -161.9190   -7.7970 O.3   152  SER152     -0.2180
     14  N         55.1060 -162.2570   -2.4160 N.3   195  HIS195     -0.1241
     15  CA        55.6920 -161.1740   -3.1890 C.3   195  HIS195      0.1621
     16  C         55.1220 -159.8550   -2.6820 C.2   195  HIS195      0.2264
     17  O         53.9940 -159.8050   -2.1860 O.2   195  HIS195     -0.2867
     18  CB        55.4290 -161.3430   -4.6880 C.3   195  HIS195      0.0745
     19  CG        56.1410 -160.3350   -5.5370 C.ar  195  HIS195      0.0817
     20  ND1       55.5650 -159.1410   -5.9180 N.ar  195  HIS195     -0.2268
     21  CD2       57.3900 -160.3320   -6.0590 C.ar  195  HIS195      0.1154
     22  CE1       56.4250 -158.4520   -6.6460 C.ar  195  HIS195      0.1986
     23  NE2       57.5410 -159.1530   -6.7480 N.ar  195  HIS195     -0.2212
     24  N         49.6260 -151.5890  -12.6340 N.3   261  LEU261     -0.1231
     25  CA        50.4600 -152.4750  -13.4330 C.3   261  LEU261      0.1693
     26  C         51.9310 -152.3260  -13.0600 C.2   261  LEU261      0.2593
     27  O         52.4900 -151.2310  -13.1340 O.2   261  LEU261     -0.2718
     28  CB        50.2640 -152.1840  -14.9190 C.3   261  LEU261      0.0284
     29  CG        51.0790 -153.0200  -15.9030 C.3   261  LEU261      0.0019
     30  CD1       50.6280 -154.4690  -15.8600 C.3   261  LEU261      0.0001
     31  CD2       50.9500 -152.4520  -17.3070 C.3   261  LEU261      0.0001
     32  N         52.5590 -153.4270  -12.6600 N.am  262  GLY262     -0.1942
     33  CA        53.9610 -153.3900  -12.2840 C.3   262  GLY262      0.2014
     34  C         54.6800 -154.7070  -12.4870 C.2   262  GLY262      0.2639
     35  O         54.1250 -155.6530  -13.0450 O.2   262  GLY262     -0.2714
     36  N         55.9290 -154.7650  -12.0360 N.am  263  GLY263     -0.1939
     37  CA        56.7080 -155.9860  -12.1000 C.3   263  GLY263      0.2014
     38  C         57.6640 -156.0350  -13.2730 C.2   263  GLY263      0.2639
     39  O         58.6120 -156.8190  -13.2770 O.2   263  GLY263     -0.2714
     40  N         57.4170 -155.1990  -14.2740 N.am  264  GLY264     -0.1940
     41  CA        58.2520 -155.1770  -15.4570 C.3   264  GLY264      0.1998
     42  C         57.6900 -154.3070  -16.5610 C.2   264  GLY264      0.2480
     43  O         56.7180 -153.5790  -16.3540 O.2   264  GLY264     -0.2729
     44  N         58.3000 -154.3820  -17.7520 N.am  265  PRO265     -0.2726
     45  CA        57.8960 -153.5700  -18.9020 C.3   265  PRO265      0.1402
     46  C         56.6020 -154.0610  -19.5370 C.2   265  PRO265      0.2269
     47  O         56.3470 -155.2640  -19.5640 O.2   265  PRO265     -0.2865
     48  CB        59.0700 -153.7350  -19.8680 C.3   265  PRO265      0.0296
     49  CG        59.6010 -155.0920  -19.5610 C.3   265  PRO265      0.0237
     50  CD        59.4280 -155.2760  -18.0760 C.3   265  PRO265      0.0939
     51  N         50.7900 -147.5920  -14.8630 N.3   283  GLN283     -0.1231
     52  CA        52.1300 -148.1550  -14.9530 C.3   283  GLN283      0.1698
     53  C         52.9360 -147.7610  -13.7190 C.2   283  GLN283      0.2593
     54  O         52.8870 -146.6110  -13.2780 O.2   283  GLN283     -0.2718
     55  CB        52.8370 -147.6760  -16.2200 C.3   283  GLN283      0.0381
     56  CG        52.5560 -148.5050  -17.4560 C.3   283  GLN283      0.0905
     57  CD        53.1480 -147.8840  -18.7060 C.2   283  GLN283      0.2608
     58  OE1       52.8100 -146.7580  -19.0760 O.2   283  GLN283     -0.2717
     59  NE2       54.0630 -148.6040  -19.3470 N.am  283  GLN283     -0.0878
     60  N         53.6720 -148.7110  -13.1560 N.am  284  SER284     -0.1938
     61  CA        54.4670 -148.4270  -11.9720 C.3   284  SER284      0.2055
     62  C         55.8480 -149.0640  -12.0390 C.2   284  SER284      0.2643
     63  O         56.0700 -150.0430  -12.7510 O.2   284  SER284     -0.2714
     64  CB        53.7420 -148.9030  -10.7110 C.3   284  SER284      0.2130
     65  OG        54.0690 -150.2490  -10.4100 O.3   284  SER284     -0.2179
     66  N         56.7740 -148.4860  -11.2880 N.am  285  TYR285     -0.1959
     67  CA        58.0970 -149.0550  -11.1190 C.3   285  TYR285      0.1771
     68  C         58.3830 -149.1870   -9.6360 C.2   285  TYR285      0.2620
     69  O         58.1690 -148.2520   -8.8630 O.2   285  TYR285     -0.2715
     70  CB        59.1610 -148.1910  -11.7970 C.3   285  TYR285      0.0574
     71  CG        60.5750 -148.5050  -11.3700 C.ar  285  TYR285     -0.0198
     72  CD1       61.2710 -149.5710  -11.9250 C.ar  285  TYR285     -0.0009
     73  CD2       61.2170 -147.7310  -10.4120 C.ar  285  TYR285     -0.0009
     74  CE1       62.5670 -149.8590  -11.5370 C.ar  285  TYR285      0.0417
     75  CE2       62.5100 -148.0090  -10.0170 C.ar  285  TYR285      0.0417
     76  CZ        63.1820 -149.0730  -10.5820 C.ar  285  TYR285      0.1957
     77  OH        64.4710 -149.3470  -10.1840 O.3   285  TYR285     -0.2866
     78  N         58.8620 -150.3550   -9.2390 N.am  286  GLY286     -0.1940
     79  CA        59.1700 -150.6010   -7.8490 C.3   286  GLY286      0.2014
     80  C         59.8940 -151.9130   -7.7050 C.2   286  GLY286      0.2639
     81  O         60.0200 -152.6750   -8.6640 O.2   286  GLY286     -0.2714
     82  N         60.3800 -152.1750   -6.5010 N.am  287  MET287     -0.1963
     83  CA        61.0530 -153.4290   -6.2240 C.3   287  MET287      0.1736
     84  C         60.7970 -153.8560   -4.7910 C.2   287  MET287      0.2617
     85  O         60.1910 -153.1180   -4.0100 O.2   287  MET287     -0.2715
     86  CB        62.5510 -153.3020   -6.5010 C.3   287  MET287      0.0427
     87  CG        63.1960 -152.0840   -5.8860 C.3   287  MET287      0.0599
     88  SD        64.5750 -151.4570   -6.8650 S.3   287  MET287     -0.1393
     89  CE        65.7070 -152.8440   -6.8260 C.3   287  MET287      0.0692
     90  N         61.2340 -155.0690   -4.4680 N.am  288  THR288     -0.1937
     91  CA        61.1700 -155.5840   -3.1080 C.3   288  THR288      0.2028
     92  C         61.8690 -154.6250   -2.1490 C.2   288  THR288      0.2642
     93  O         61.3810 -154.3520   -1.0530 O.2   288  THR288     -0.2714
     94  CB        61.8150 -156.9700   -3.0200 C.3   288  THR288      0.1808
     95  OG1       61.1790 -157.8420   -3.9620 O.3   288  THR288     -0.2208
     96  CG2       61.6720 -157.5440   -1.6210 C.3   288  THR288      0.0379
     97  N         63.0020 -154.0960   -2.5970 N.am  289  GLU289     -0.1976
     98  CA        63.7760 -153.1370   -1.8240 C.3   289  GLU289      0.1602
     99  C         62.9990 -151.8610   -1.4870 C.2   289  GLU289      0.2287
    100  O         63.2950 -151.1970   -0.4930 O.2   289  GLU289     -0.2864
    101  CB        65.0600 -152.7780   -2.5780 C.3   289  GLU289      0.0415
    102  CG        66.1130 -153.8840   -2.5950 C.3   289  GLU289      0.1163
    103  CD        65.9090 -154.8970   -3.7090 C.2   289  GLU289      0.3649
    104  OE1       64.7840 -154.9840   -4.2460 O.co2 289  GLU289     -0.2457
    105  OE2       66.8820 -155.6080   -4.0480 O.co2 289  GLU289     -0.2457
    106  N         57.6470 -145.0730  -16.7460 N.3   309  ALA309     -0.1245
    107  CA        57.2200 -145.6600  -15.4860 C.3   309  ALA309      0.1562
    108  C         56.5360 -144.6040  -14.6270 C.2   309  ALA309      0.2260
    109  O         55.8970 -144.9230  -13.6250 O.2   309  ALA309     -0.2867
    110  CB        58.4020 -146.2690  -14.7520 C.3   309  ALA309      0.0290
    111  N         69.1280 -151.1030  -11.6890 N.3   366  ASP366     -0.1239
    112  CA        68.3730 -150.8770  -12.9160 C.3   366  ASP366      0.1674
    113  C         68.9580 -149.7220  -13.7200 C.2   366  ASP366      0.2266
    114  O         69.3460 -148.6960  -13.1610 O.2   366  ASP366     -0.2867
    115  CB        66.9030 -150.5900  -12.6030 C.3   366  ASP366      0.1410
    116  CG        66.1770 -151.7940  -12.0440 C.2   366  ASP366      0.3668
    117  OD1       66.3450 -152.9000  -12.6010 O.co2 366  ASP366     -0.2456
    118  OD2       65.4400 -151.6330  -11.0490 O.co2 366  ASP366     -0.2456
    119  N         62.5170 -146.9220  -17.7180 N.3   378  VAL378     -0.1231
    120  CA        63.3540 -148.0360  -17.2960 C.3   378  VAL378      0.1692
    121  C         63.8720 -148.7880  -18.5170 C.2   378  VAL378      0.2592
    122  O         63.1350 -149.0090  -19.4740 O.2   378  VAL378     -0.2718
    123  CB        62.5850 -149.0020  -16.3690 C.3   378  VAL378      0.0266
    124  CG1       63.5260 -150.0390  -15.7840 C.3   378  VAL378      0.0020
    125  CG2       61.8910 -148.2230  -15.2540 C.3   378  VAL378      0.0020
    126  N         65.1420 -149.1720  -18.4870 N.am  379  LEU379     -0.1966
    127  CA        65.7530 -149.8360  -19.6310 C.3   379  LEU379      0.1728
    128  C         65.9200 -151.3350  -19.4060 C.2   379  LEU379      0.2616
    129  O         65.2450 -152.1390  -20.0460 O.2   379  LEU379     -0.2715
    130  CB        67.1040 -149.1980  -19.9540 C.3   379  LEU379      0.0311
    131  CG        67.0080 -147.7750  -20.5090 C.3   379  LEU379      0.0022
    132  CD1       68.3880 -147.1910  -20.7640 C.3   379  LEU379      0.0001
    133  CD2       66.1760 -147.7640  -21.7820 C.3   379  LEU379      0.0001
    134  N         66.8130 -151.7010  -18.4930 N.am  380  ASP380     -0.1957
    135  CA        67.1250 -153.1040  -18.2410 C.3   380  ASP380      0.1840
    136  C         68.0400 -153.2450  -17.0320 C.2   380  ASP380      0.2621
    137  O         68.5400 -152.2500  -16.5060 O.2   380  ASP380     -0.2715
    138  CB        67.7870 -153.7350  -19.4680 C.3   380  ASP380      0.1450
    139  CG        67.4770 -155.2100  -19.6040 C.2   380  ASP380      0.3671
    140  OD1       67.1370 -155.8460  -18.5830 O.co2 380  ASP380     -0.2456
    141  OD2       67.5750 -155.7320  -20.7350 O.co2 380  ASP380     -0.2456
    142  N         68.3190 -154.4670  -16.6200 N.am  381  ARG381     -0.1977
    143  CA        69.2690 -154.6470  -15.5500 C.3   381  ARG381      0.1597
    144  C         70.6440 -154.3350  -16.0600 C.2   381  ARG381      0.2287
    145  O         71.0050 -154.7250  -17.1360 O.2   381  ARG381     -0.2864
    146  CB        69.2460 -156.0620  -14.9890 C.3   381  ARG381      0.0334
    147  CG        67.9680 -156.4760  -14.2940 C.3   381  ARG381      0.0492
    148  CD        67.7240 -155.7040  -13.0220 C.3   381  ARG381      0.2205
    149  NE        68.7360 -155.9680  -12.0290 N.pl3 381  ARG381     -0.0865
    150  CZ        68.7310 -155.4370  -10.8290 C.cat 381  ARG381      0.5346
    151  NH1       69.6810 -155.7090   -9.9790 N.pl3 381  ARG381      0.1354
    152  NH2       67.7730 -154.6280  -10.4880 N.pl3 381  ARG381      0.1354
    153  N         60.7100 -166.8050   -9.8740 N.3   468  SER468     -0.1217
    154  CA        59.8710 -165.6380  -10.1180 C.3   468  SER468      0.1889
    155  C         59.6190 -165.4700  -11.6090 C.2   468  SER468      0.2288
    156  O         59.2330 -164.3940  -12.0660 O.2   468  SER468     -0.2866
    157  CB        60.5150 -164.3780   -9.5410 C.3   468  SER468      0.2089
    158  OG        60.5880 -164.4540   -8.1290 O.3   468  SER468     -0.2183
    159  N         61.5540 -165.0050  -13.8140 N.3   470  LYS470     -0.1245
    160  CA        62.4800 -164.0470  -14.4030 C.3   470  LYS470      0.1561
    161  C         63.5390 -164.7740  -15.2240 C.2   470  LYS470      0.2260
    162  O         64.1000 -165.7790  -14.7860 O.2   470  LYS470     -0.2867
    163  CB        63.1330 -163.1840  -13.3190 C.3   470  LYS470      0.0271
    164  CG        62.1880 -162.1600  -12.6950 C.3   470  LYS470      0.0035
    165  CD        62.9190 -161.2180  -11.7480 C.3   470  LYS470      0.0206
    166  CE        61.9760 -160.1800  -11.1470 C.3   470  LYS470      0.1093
    167  NZ        61.5600 -159.1330  -12.1300 N.3   470  LYS470     -0.1314
@<TRIPOS>BOND
     1   133   131    1
     2   132   131    1
     3   141   139   ar
     4   131   130    1
     5   129   128    2
     6   130   127    1
     7    48    49    1
     8    48    45    1
     9   127   128    1
    10   127   126    1
    11   139   138    1
    12   139   140   ar
    13    47    46    2
    14    49    50    1
    15    46    45    1
    16   122   121    2
    17   138   135    1
    18   128   134   am
    19    59    57   am
    20    58    57    2
    21    45    44    1
    22    57    56    1
    23   121   126   am
    24   121   120    1
    25   134   135    1
    26   135   136    1
    27    50    44    1
    28    44    42   am
    29   119   120    1
    30    56    55    1
    31    31    29    1
    32   120   123    1
    33   145   144    2
    34   136   142   am
    35   136   137    2
    36   106   107    1
    37   142   143    1
    38    42    43    2
    39    42    41    1
    40   123   124    1
    41   123   125    1
    42    55    52    1
    43   144   143    1
    44    29    30    1
    45    29    28    1
    46   143   146    1
    47   107   110    1
    48   107   108    1
    49    41    40    1
    50   161   162    2
    51   161   160    1
    52   146   147    1
    53    52    51    1
    54    52    53    1
    55    28    25    1
    56   108   109    2
    57   160   159    1
    58   160   163    1
    59   147   148    1
    60    40    38   am
    61   113   114    2
    62   113   112    1
    63    53    54    2
    64    53    60   am
    65    25    26    1
    66    25    24    1
    67   163   164    1
    68    39    38    2
    69    38    37    1
    70    60    61    1
    71    27    26    2
    72    26    32   am
    73    35    34    2
    74   148   149    1
    75   112   115    1
    76   112   111    1
    77    63    62    2
    78   164   165    1
    79    32    33    1
    80   115   116    1
    81   117   116   ar
    82    34    33    1
    83    34    36   am
    84   167   166    1
    85    37    36    1
    86   156   155    2
    87   116   118   ar
    88    62    61    1
    89    62    66   am
    90   149   150    2
    91    61    64    1
    92    72    74   ar
    93    72    71   ar
    94    70    71    1
    95    70    67    1
    96   165   166    1
    97   155   154    1
    98    74    76   ar
    99    71    73   ar
   100    66    67    1
   101    67    68    1
   102   150   152    1
   103   150   151    1
   104    64    65    1
   105    76    77    1
   106    76    75   ar
   107    73    75   ar
   108   154   153    1
   109   154   157    1
   110    68    78   am
   111    68    69    2
   112   157   158    1
   113    11    10    2
   114    78    79    1
   115    81    80    2
   116    10     9    1
   117    79    80    1
   118    13    12    1
   119    80    82   am
   120    12     9    1
   121     9     8    1
   122    88    89    1
   123    88    87    1
   124    23    22   ar
   125    23    21   ar
   126    22    20   ar
   127    86    83    1
   128    86    87    1
   129    82    83    1
   130    83    84    1
   131     8     3   am
   132    21    19   ar
   133    20    19   ar
   134    19    18    1
   135     3     4    2
   136     3     2    1
   137    84    90   am
   138    84    85    2
   139    18    15    1
   140    90    91    1
   141   104   103   ar
   142     5     6    1
   143     5     2    1
   144     5     7    1
   145   105   103   ar
   146     2     1    1
   147    95    94    1
   148   103   102    1
   149    15    16    1
   150    15    14    1
   151    91    94    1
   152    91    92    1
   153    94    96    1
   154    16    17    2
   155    97    92   am
   156    97    98    1
   157   102   101    1
   158   101    98    1
   159    92    93    2
   160    98    99    1
   161    99   100    2
