@<TRIPOS>MOLECULE
tmp/5gtdA02.pdb
 130 120 0 0 0
SMALL
GASTEIGER

@<TRIPOS>ATOM
      1  N         47.7480 -161.9010   -7.0080 N.3   191  LEU191     -0.1245
      2  CA        49.1880 -162.1100   -6.9910 C.3   191  LEU191      0.1561
      3  C         49.5780 -162.7710   -5.6730 C.2   191  LEU191      0.2260
      4  O         48.8510 -162.6540   -4.6870 O.2   191  LEU191     -0.2867
      5  CB        49.9160 -160.7740   -7.1740 C.3   191  LEU191      0.0270
      6  CG        49.6470 -160.0290   -8.4830 C.3   191  LEU191      0.0019
      7  CD1       49.9450 -158.5440   -8.3350 C.3   191  LEU191      0.0001
      8  CD2       50.4840 -160.6310   -9.5960 C.3   191  LEU191      0.0001
      9  N         55.1060 -162.2570   -2.4160 N.3   195  HIS195     -0.1226
     10  CA        55.6920 -161.1740   -3.1890 C.3   195  HIS195      0.1752
     11  C         55.1220 -159.8550   -2.6820 C.2   195  HIS195      0.2596
     12  O         53.9940 -159.8050   -2.1860 O.2   195  HIS195     -0.2718
     13  CB        55.4290 -161.3430   -4.6880 C.3   195  HIS195      0.0759
     14  CG        56.1410 -160.3350   -5.5370 C.ar  195  HIS195      0.0818
     15  ND1       55.5650 -159.1410   -5.9180 N.ar  195  HIS195     -0.2268
     16  CD2       57.3900 -160.3320   -6.0590 C.ar  195  HIS195      0.1154
     17  CE1       56.4250 -158.4520   -6.6460 C.ar  195  HIS195      0.1986
     18  NE2       57.5410 -159.1530   -6.7480 N.ar  195  HIS195     -0.2212
     19  N         55.9060 -158.7910   -2.8060 N.am  196  ILE196     -0.1966
     20  CA        55.5550 -157.5120   -2.2110 C.3   196  ILE196      0.1727
     21  C         54.3140 -156.8890   -2.8560 C.2   196  ILE196      0.2616
     22  O         53.5940 -156.1250   -2.2120 O.2   196  ILE196     -0.2715
     23  CB        56.7430 -156.5240   -2.2900 C.3   196  ILE196      0.0290
     24  CG1       56.5020 -155.3310   -1.3700 C.3   196  ILE196      0.0022
     25  CG2       57.0100 -156.0840   -3.7300 C.3   196  ILE196      0.0023
     26  CD1       56.1440 -155.7070    0.0490 C.3   196  ILE196      0.0001
     27  N         54.0500 -157.2300   -4.1140 N.am  197  SER197     -0.1950
     28  CA        52.8720 -156.7130   -4.8050 C.3   197  SER197      0.1924
     29  C         51.5910 -157.1860   -4.1270 C.2   197  SER197      0.2314
     30  O         50.5780 -156.4880   -4.1390 O.2   197  SER197     -0.2863
     31  CB        52.8720 -157.1390   -6.2750 C.3   197  SER197      0.2116
     32  OG        52.6960 -158.5400   -6.4070 O.3   197  SER197     -0.2180
     33  N         51.8070 -156.0720    0.2970 N.3   200  SER200     -0.1217
     34  CA        51.5670 -154.6610    0.6050 C.3   200  SER200      0.1889
     35  C         50.0820 -154.3220    0.7310 C.2   200  SER200      0.2288
     36  O         49.7040 -153.4230    1.4830 O.2   200  SER200     -0.2866
     37  CB        52.2080 -153.7680   -0.4620 C.3   200  SER200      0.2089
     38  OG        51.6150 -153.9780   -1.7310 O.3   200  SER200     -0.2183
     39  N         47.9560 -151.9840    3.2380 N.3   204  LYS204     -0.1245
     40  CA        46.9960 -151.0100    2.7250 C.3   204  LYS204      0.1561
     41  C         45.6370 -151.2510    3.3730 C.2   204  LYS204      0.2260
     42  O         44.9440 -150.3110    3.7490 O.2   204  LYS204     -0.2867
     43  CB        46.8590 -151.0990    1.2000 C.3   204  LYS204      0.0271
     44  CG        48.0430 -150.5950    0.3880 C.3   204  LYS204      0.0035
     45  CD        47.6860 -150.5680   -1.0980 C.3   204  LYS204      0.0206
     46  CE        48.8720 -150.2100   -1.9830 C.3   204  LYS204      0.1093
     47  NZ        49.8480 -151.3290   -2.1270 N.3   204  LYS204     -0.1314
     48  N         45.5730 -155.1320   -8.7010 N.3   236  SER236     -0.1202
     49  CA        46.9930 -155.2020   -9.0240 C.3   236  SER236      0.2020
     50  C         47.2240 -156.2980  -10.0530 C.2   236  SER236      0.2619
     51  O         46.6010 -157.3580   -9.9870 O.2   236  SER236     -0.2717
     52  CB        47.8250 -155.4660   -7.7710 C.3   236  SER236      0.2103
     53  OG        47.7890 -154.3520   -6.8960 O.3   236  SER236     -0.2182
     54  N         48.1150 -156.0440  -11.0040 N.am  237  ALA237     -0.1965
     55  CA        48.3430 -156.9980  -12.0780 C.3   237  ALA237      0.1728
     56  C         49.7270 -156.8730  -12.7000 C.2   237  ALA237      0.2616
     57  O         50.3480 -155.8140  -12.6560 O.2   237  ALA237     -0.2715
     58  CB        47.2740 -156.8320  -13.1540 C.3   237  ALA237      0.0334
     59  N         50.2030 -157.9740  -13.2720 N.am  238  VAL238     -0.1977
     60  CA        51.3760 -157.9470  -14.1350 C.3   238  VAL238      0.1596
     61  C         50.8990 -157.9200  -15.5830 C.2   238  VAL238      0.2287
     62  O         49.7070 -158.0870  -15.8460 O.2   238  VAL238     -0.2864
     63  CB        52.2990 -159.1600  -13.9020 C.3   238  VAL238      0.0276
     64  CG1       52.8590 -159.1370  -12.4910 C.3   238  VAL238      0.0022
     65  CG2       51.5510 -160.4620  -14.1640 C.3   238  VAL238      0.0022
     66  N         46.7090 -151.1770  -11.1260 N.3   260  LEU260     -0.1245
     67  CA        48.1220 -150.9620  -10.8490 C.3   260  LEU260      0.1561
     68  C         48.9540 -152.0140  -11.5710 C.2   260  LEU260      0.2260
     69  O         48.9740 -153.1810  -11.1840 O.2   260  LEU260     -0.2867
     70  CB        48.3980 -150.9930   -9.3460 C.3   260  LEU260      0.0270
     71  CG        49.7970 -150.5400   -8.9190 C.3   260  LEU260      0.0019
     72  CD1       50.0150 -149.0730   -9.2530 C.3   260  LEU260      0.0001
     73  CD2       50.0110 -150.7820   -7.4370 C.3   260  LEU260      0.0001
     74  N         52.5590 -153.4270  -12.6600 N.3   262  GLY262     -0.1210
     75  CA        53.9610 -153.3900  -12.2840 C.3   262  GLY262      0.1956
     76  C         54.6800 -154.7070  -12.4870 C.2   262  GLY262      0.2612
     77  O         54.1250 -155.6530  -13.0450 O.2   262  GLY262     -0.2717
     78  N         55.9290 -154.7650  -12.0360 N.am  263  GLY263     -0.1956
     79  CA        56.7080 -155.9860  -12.1000 C.3   263  GLY263      0.1869
     80  C         57.6640 -156.0350  -13.2730 C.2   263  GLY263      0.2309
     81  O         58.6120 -156.8190  -13.2770 O.2   263  GLY263     -0.2863
     82  N         53.6720 -148.7110  -13.1560 N.3   284  SER284     -0.1217
     83  CA        54.4670 -148.4270  -11.9720 C.3   284  SER284      0.1889
     84  C         55.8480 -149.0640  -12.0390 C.2   284  SER284      0.2288
     85  O         56.0700 -150.0430  -12.7510 O.2   284  SER284     -0.2866
     86  CB        53.7420 -148.9030  -10.7110 C.3   284  SER284      0.2089
     87  OG        54.0690 -150.2490  -10.4100 O.3   284  SER284     -0.2183
     88  N         58.8620 -150.3550   -9.2390 N.3   286  GLY286     -0.1210
     89  CA        59.1700 -150.6010   -7.8490 C.3   286  GLY286      0.1956
     90  C         59.8940 -151.9130   -7.7050 C.2   286  GLY286      0.2612
     91  O         60.0200 -152.6750   -8.6640 O.2   286  GLY286     -0.2717
     92  N         60.3800 -152.1750   -6.5010 N.am  287  MET287     -0.1965
     93  CA        61.0530 -153.4290   -6.2240 C.3   287  MET287      0.1736
     94  C         60.7970 -153.8560   -4.7910 C.2   287  MET287      0.2617
     95  O         60.1910 -153.1180   -4.0100 O.2   287  MET287     -0.2715
     96  CB        62.5510 -153.3020   -6.5010 C.3   287  MET287      0.0427
     97  CG        63.1960 -152.0840   -5.8860 C.3   287  MET287      0.0599
     98  SD        64.5750 -151.4570   -6.8650 S.3   287  MET287     -0.1393
     99  CE        65.7070 -152.8440   -6.8260 C.3   287  MET287      0.0692
    100  N         61.2340 -155.0690   -4.4680 N.am  288  THR288     -0.1951
    101  CA        61.1700 -155.5840   -3.1080 C.3   288  THR288      0.1897
    102  C         61.8690 -154.6250   -2.1490 C.2   288  THR288      0.2313
    103  O         61.3810 -154.3520   -1.0530 O.2   288  THR288     -0.2863
    104  CB        61.8150 -156.9700   -3.0200 C.3   288  THR288      0.1794
    105  OG1       61.1790 -157.8420   -3.9620 O.3   288  THR288     -0.2208
    106  CG2       61.6720 -157.5440   -1.6210 C.3   288  THR288      0.0378
    107  N         57.3810 -152.1140   -2.8000 N.3   292  SER292     -0.1202
    108  CA        56.4000 -152.0180   -3.8780 C.3   292  SER292      0.2020
    109  C         56.6980 -150.8180   -4.7330 C.2   292  SER292      0.2618
    110  O         57.8250 -150.4420   -4.8770 O.2   292  SER292     -0.2717
    111  CB        54.9460 -152.0520   -3.4320 C.3   292  SER292      0.2103
    112  OG        54.7670 -151.2340   -2.3300 O.3   292  SER292     -0.2182
    113  N         55.6730 -150.2410   -5.2980 N.am  293  GLN293     -0.1979
    114  CA        55.8350 -149.1660   -6.2300 C.3   293  GLN293      0.1601
    115  C         56.4580 -147.9770   -5.5790 C.2   293  GLN293      0.2287
    116  O         56.1610 -147.6500   -4.4620 O.2   293  GLN293     -0.2864
    117  CB        54.4840 -148.7610   -6.7290 C.3   293  GLN293      0.0394
    118  CG        53.5330 -148.5820   -5.5970 C.3   293  GLN293      0.0908
    119  CD        52.2600 -147.9740   -6.0060 C.2   293  GLN293      0.2608
    120  OE1       51.2550 -148.2030   -5.3820 O.2   293  GLN293     -0.2717
    121  NE2       52.2920 -147.1650   -7.0330 N.am  293  GLN293     -0.0878
    122  N         61.5540 -165.0050  -13.8140 N.3   470  LYS470     -0.1245
    123  CA        62.4800 -164.0470  -14.4030 C.3   470  LYS470      0.1561
    124  C         63.5390 -164.7740  -15.2240 C.2   470  LYS470      0.2260
    125  O         64.1000 -165.7790  -14.7860 O.2   470  LYS470     -0.2867
    126  CB        63.1330 -163.1840  -13.3190 C.3   470  LYS470      0.0271
    127  CG        62.1880 -162.1600  -12.6950 C.3   470  LYS470      0.0035
    128  CD        62.9190 -161.2180  -11.7480 C.3   470  LYS470      0.0206
    129  CE        61.9760 -160.1800  -11.1470 C.3   470  LYS470      0.1093
    130  NZ        61.5600 -159.1330  -12.1300 N.3   470  LYS470     -0.1314
@<TRIPOS>BOND
     1    62    61    2
     2    61    60    1
     3   124   125    2
     4   124   123    1
     5   123   122    1
     6   123   126    1
     7    65    63    1
     8    60    63    1
     9    60    59    1
    10    63    64    1
    11   126   127    1
    12    81    80    2
    13    80    79    1
    14    59    56   am
    15    82    83    1
    16    58    55    1
    17    77    76    2
    18    85    84    2
    19    56    57    2
    20    56    55    1
    21   127   128    1
    22    74    75    1
    23    76    75    1
    24    76    78   am
    25   130   129    1
    26    79    78    1
    27    55    54    1
    28    84    83    1
    29    83    86    1
    30   128   129    1
    31    68    69    2
    32    68    67    1
    33    66    67    1
    34    54    50   am
    35    67    70    1
    36    86    87    1
    37    50    51    2
    38    50    49    1
    39     8     6    1
    40    70    71    1
    41    72    71    1
    42    88    89    1
    43    49    48    1
    44    49    52    1
    45    71    73    1
    46    91    90    2
    47     6     7    1
    48     6     5    1
    49    89    90    1
    50    52    53    1
    51    90    92   am
    52     5     2    1
    53   121   119   am
    54     1     2    1
    55     2     3    1
    56    98    99    1
    57    98    97    1
    58    18    17   ar
    59    18    16   ar
    60   117   114    1
    61   117   118    1
    62    17    15   ar
    63    92    93    1
    64    96    93    1
    65    96    97    1
    66    32    31    1
    67    31    28    1
    68   114   115    1
    69   114   113    1
    70    93    94    1
    71    16    14   ar
    72   119   118    1
    73   119   120    2
    74    15    14   ar
    75     3     4    2
    76   115   116    2
    77    14    13    1
    78   113   109   am
    79   110   109    2
    80    28    29    1
    81    28    27    1
    82    94   100   am
    83    94    95    2
    84   109   108    1
    85    13    10    1
    86   100   101    1
    87    30    29    2
    88    27    21   am
    89   105   104    1
    90   108   111    1
    91   108   107    1
    92    25    23    1
    93   111   112    1
    94    10    11    1
    95    10     9    1
    96   101   104    1
    97   101   102    1
    98   104   106    1
    99    21    22    2
   100    21    20    1
   101    19    11   am
   102    19    20    1
   103    11    12    2
   104    23    20    1
   105    23    24    1
   106   102   103    2
   107    47    46    1
   108    46    45    1
   109    38    37    1
   110    24    26    1
   111    45    44    1
   112    37    34    1
   113    33    34    1
   114    44    43    1
   115    34    35    1
   116    35    36    2
   117    43    40    1
   118    40    39    1
   119    40    41    1
   120    41    42    2
