@<TRIPOS>MOLECULE
tmp/5gthX18.pdb
 102 100 0 0 0
SMALL
GASTEIGER

@<TRIPOS>ATOM
      1  N        -48.6870  -12.0640   23.9370 N.3    10  TRP10      -0.1227
      2  CA       -47.9420  -13.3080   24.1000 C.3    10  TRP10       0.1737
      3  C        -46.6760  -13.4020   23.2380 C.2    10  TRP10       0.2595
      4  O        -45.6160  -13.7870   23.7330 O.2    10  TRP10      -0.2718
      5  CB       -48.8370  -14.5210   23.8390 C.3    10  TRP10       0.0564
      6  CG       -48.1920  -15.7980   24.2790 C.ar   10  TRP10       0.0003
      7  CD1      -48.2670  -16.3680   25.5170 C.ar   10  TRP10       0.0946
      8  CD2      -47.3470  -16.6510   23.4920 C.ar   10  TRP10       0.0152
      9  NE1      -47.5310  -17.5320   25.5480 N.ar   10  TRP10      -0.2442
     10  CE2      -46.9590  -17.7300   24.3180 C.ar   10  TRP10       0.0810
     11  CE3      -46.8910  -16.6120   22.1710 C.ar   10  TRP10       0.0012
     12  CZ2      -46.1360  -18.7570   23.8650 C.ar   10  TRP10       0.0191
     13  CZ3      -46.0720  -17.6260   21.7240 C.ar   10  TRP10       0.0001
     14  CH2      -45.7030  -18.6880   22.5680 C.ar   10  TRP10       0.0015
     15  N        -46.7820  -13.0560   21.9590 N.am   11  LEU11      -0.1980
     16  CA       -45.6300  -13.1160   21.0560 C.3    11  LEU11       0.1596
     17  C        -44.4740  -12.2210   21.5220 C.2    11  LEU11       0.2287
     18  O        -43.3090  -12.4870   21.2090 O.2    11  LEU11      -0.2864
     19  CB       -46.0400  -12.7650   19.6160 C.3    11  LEU11       0.0297
     20  CG       -46.9120  -13.7950   18.8970 C.3    11  LEU11       0.0022
     21  CD1      -47.5830  -13.1890   17.6880 C.3    11  LEU11       0.0001
     22  CD2      -46.0570  -14.9680   18.4700 C.3    11  LEU11       0.0001
     23  N        -35.7360  -16.7020   24.5520 N.3    17  VAL17      -0.1245
     24  CA       -35.6800  -16.5380   23.1140 C.3    17  VAL17       0.1561
     25  C        -36.8970  -15.7310   22.7170 C.2    17  VAL17       0.2260
     26  O        -38.0420  -16.1620   22.9160 O.2    17  VAL17      -0.2867
     27  CB       -35.6960  -17.8820   22.3620 C.3    17  VAL17       0.0252
     28  CG1      -35.5350  -17.6430   20.8550 C.3    17  VAL17       0.0019
     29  CG2      -34.5980  -18.8030   22.8760 C.3    17  VAL17       0.0019
     30  N        -39.7490  -14.2100   20.5280 N.3    19  VAL19      -0.1245
     31  CA       -40.4980  -14.7360   19.3970 C.3    19  VAL19       0.1561
     32  C        -40.9460  -13.6240   18.4500 C.2    19  VAL19       0.2260
     33  O        -40.4430  -13.5280   17.3370 O.2    19  VAL19      -0.2867
     34  CB       -41.7190  -15.5470   19.8530 C.3    19  VAL19       0.0252
     35  CG1      -42.4720  -16.0970   18.6490 C.3    19  VAL19       0.0019
     36  CG2      -41.2810  -16.6700   20.7710 C.3    19  VAL19       0.0019
     37  N        -41.2840  -14.0570   14.2760 N.3    23  GLY23      -0.1210
     38  CA       -40.8260  -15.4030   14.5740 C.3    23  GLY23       0.1956
     39  C        -41.6380  -16.4970   13.9000 C.2    23  GLY23       0.2611
     40  O        -41.1470  -17.6120   13.6920 O.2    23  GLY23      -0.2717
     41  N        -42.8880  -16.1710   13.5790 N.am   24  ILE24      -0.1979
     42  CA       -43.7950  -17.0800   12.8910 C.3    24  ILE24       0.1595
     43  C        -43.2470  -17.3660   11.5020 C.2    24  ILE24       0.2287
     44  O        -43.3620  -18.4710   10.9830 O.2    24  ILE24      -0.2864
     45  CB       -45.2140  -16.4660   12.7870 C.3    24  ILE24       0.0276
     46  CG1      -45.8030  -16.2300   14.1810 C.3    24  ILE24       0.0022
     47  CG2      -46.1380  -17.3380   11.9700 C.3    24  ILE24       0.0022
     48  CD1      -47.1570  -15.5440   14.1640 C.3    24  ILE24       0.0001
     49  N        -38.7740  -18.6390   12.3330 N.3    27  PHE27      -0.1228
     50  CA       -38.3980  -19.8800   13.0050 C.3    27  PHE27       0.1721
     51  C        -38.6190  -21.1720   12.2180 C.2    27  PHE27       0.2437
     52  O        -37.6920  -21.9780   12.1080 O.2    27  PHE27      -0.2733
     53  CB       -38.9710  -19.9610   14.4330 C.3    27  PHE27       0.0547
     54  CG       -38.2610  -19.0690   15.4100 C.ar   27  PHE27      -0.0202
     55  CD1      -38.9330  -18.0550   16.0670 C.ar   27  PHE27      -0.0042
     56  CD2      -36.9040  -19.2250   15.6440 C.ar   27  PHE27      -0.0042
     57  CE1      -38.2680  -17.2280   16.9530 C.ar   27  PHE27      -0.0003
     58  CE2      -36.2330  -18.3990   16.5260 C.ar   27  PHE27      -0.0003
     59  CZ       -36.9160  -17.4000   17.1800 C.ar   27  PHE27      -0.0000
     60  N        -39.8320  -21.3830   11.6710 N.am   28  PRO28      -0.2729
     61  CA       -39.9570  -22.5860   10.8380 C.3    28  PRO28       0.1401
     62  C        -39.0320  -22.5750    9.6120 C.2    28  PRO28       0.2269
     63  O        -38.4350  -23.5990    9.3140 O.2    28  PRO28      -0.2865
     64  CB       -41.4320  -22.5790   10.4160 C.3    28  PRO28       0.0296
     65  CG       -41.9190  -21.2080   10.7030 C.3    28  PRO28       0.0237
     66  CD       -41.1290  -20.7150   11.8620 C.3    28  PRO28       0.0939
     67  N        -36.0810  -20.9460    8.9970 N.3    30  ALA30      -0.1231
     68  CA       -34.6770  -21.0890    9.3600 C.3    30  ALA30       0.1694
     69  C        -34.3800  -22.5310    9.7860 C.2    30  ALA30       0.2592
     70  O        -33.3470  -23.1080    9.4350 O.2    30  ALA30      -0.2718
     71  CB       -34.3180  -20.1180   10.4860 C.3    30  ALA30       0.0304
     72  N        -35.2900  -23.1120   10.5540 N.am   31  TYR31      -0.1976
     73  CA       -35.0990  -24.4720   11.0040 C.3    31  TYR31       0.1639
     74  C        -35.1370  -25.4420    9.8250 C.2    31  TYR31       0.2290
     75  O        -34.2520  -26.2790    9.6640 O.2    31  TYR31      -0.2864
     76  CB       -36.1640  -24.8350   12.0380 C.3    31  TYR31       0.0560
     77  CG       -35.9830  -26.2010   12.6590 C.ar   31  TYR31      -0.0198
     78  CD1      -34.8830  -26.4740   13.4580 C.ar   31  TYR31      -0.0009
     79  CD2      -36.9290  -27.2030   12.4800 C.ar   31  TYR31      -0.0009
     80  CE1      -34.7240  -27.7090   14.0510 C.ar   31  TYR31       0.0417
     81  CE2      -36.7830  -28.4380   13.0760 C.ar   31  TYR31       0.0417
     82  CZ       -35.6750  -28.6880   13.8510 C.ar   31  TYR31       0.1957
     83  OH       -35.5090  -29.9200   14.4370 O.3    31  TYR31      -0.2866
     84  N        -31.9770  -25.1750    7.7350 N.3    34  LEU34      -0.1245
     85  CA       -30.8020  -25.7590    8.3620 C.3    34  LEU34       0.1561
     86  C        -30.9030  -27.2800    8.4130 C.2    34  LEU34       0.2260
     87  O        -29.9250  -27.9860    8.1730 O.2    34  LEU34      -0.2867
     88  CB       -30.6370  -25.2080    9.7680 C.3    34  LEU34       0.0270
     89  CG       -29.3700  -25.6620   10.4970 C.3    34  LEU34       0.0019
     90  CD1      -28.1260  -24.9760    9.9430 C.3    34  LEU34       0.0001
     91  CD2      -29.5000  -25.4480   11.9980 C.3    34  LEU34       0.0001
     92  N        -35.6360  -12.8600    9.4250 N.3   114  PHE114     -0.1241
     93  CA       -34.6160  -12.3880   10.3440 C.3   114  PHE114      0.1605
     94  C        -34.5680  -10.8730   10.3210 C.2   114  PHE114      0.2264
     95  O        -34.5110  -10.2150   11.3830 O.2   114  PHE114     -0.2867
     96  CB       -33.2420  -12.9660   10.0170 C.3   114  PHE114      0.0534
     97  CG       -32.2110  -12.6920   11.0760 C.ar  114  PHE114     -0.0203
     98  CD1      -31.3880  -11.5770   10.9940 C.ar  114  PHE114     -0.0042
     99  CD2      -32.0880  -13.5320   12.1820 C.ar  114  PHE114     -0.0042
    100  CE1      -30.4460  -11.3110   11.9860 C.ar  114  PHE114     -0.0003
    101  CE2      -31.1460  -13.2720   13.1740 C.ar  114  PHE114     -0.0003
    102  CZ       -30.3210  -12.1530   13.0660 C.ar  114  PHE114     -0.0000
@<TRIPOS>BOND
     1    84    85    1
     2    87    86    2
     3    85    86    1
     4    85    88    1
     5    67    68    1
     6    63    62    2
     7    68    69    1
     8    68    71    1
     9    92    93    1
    10    70    69    2
    11    62    61    1
    12    75    74    2
    13    88    89    1
    14    69    72   am
    15    74    73    1
    16    90    89    1
    17    96    93    1
    18    96    97    1
    19    94    93    1
    20    94    95    2
    21    64    65    1
    22    64    61    1
    23    89    91    1
    24    72    73    1
    25    65    66    1
    26    61    60    1
    27    44    43    2
    28    98    97   ar
    29    98   100   ar
    30    73    76    1
    31    97    99   ar
    32    43    42    1
    33    60    66    1
    34    60    51   am
    35    47    45    1
    36   100   102   ar
    37    76    77    1
    38    52    51    2
    39    99   101   ar
    40    51    50    1
    41    49    50    1
    42    79    77   ar
    43    79    81   ar
    44    77    78   ar
    45    45    42    1
    46    45    46    1
    47    42    41    1
    48    50    53    1
    49   102   101   ar
    50    81    82   ar
    51    78    80   ar
    52    41    39   am
    53    40    39    2
    54    82    80   ar
    55    82    83    1
    56    39    38    1
    57    48    46    1
    58    37    38    1
    59    53    54    1
    60    54    56   ar
    61    54    55   ar
    62    56    58   ar
    63    55    57   ar
    64    58    59   ar
    65    57    59   ar
    66    33    32    2
    67    21    20    1
    68    32    31    1
    69    22    20    1
    70    35    34    1
    71    20    19    1
    72    31    34    1
    73    31    30    1
    74    19    16    1
    75    34    36    1
    76    28    27    1
    77    16    17    1
    78    16    15    1
    79    18    17    2
    80    13    11   ar
    81    13    14   ar
    82    15     3   am
    83    11     8   ar
    84    27    29    1
    85    27    24    1
    86    14    12   ar
    87    25    26    2
    88    25    24    1
    89    24    23    1
    90     3     4    2
    91     3     2    1
    92     8     6   ar
    93     8    10   ar
    94     5     2    1
    95     5     6    1
    96    12    10   ar
    97     1     2    1
    98     6     7   ar
    99    10     9   ar
   100     7     9   ar
