@<TRIPOS>MOLECULE
tmp/5gthX04.pdb
 136 133 0 0 0
SMALL
GASTEIGER

@<TRIPOS>ATOM
      1  N        -32.5990    2.8330   16.8360 N.3   128  ARG128     -0.1245
      2  CA       -32.7220    3.0540   15.4060 C.3   128  ARG128      0.1563
      3  C        -32.4490    1.7330   14.6870 C.2   128  ARG128      0.2260
      4  O        -31.6550    0.9250   15.1630 O.2   128  ARG128     -0.2867
      5  CB       -31.7450    4.1520   14.9710 C.3   128  ARG128      0.0307
      6  CG       -31.7580    5.3810   15.8970 C.3   128  ARG128      0.0489
      7  CD       -30.4840    6.2140   15.7490 C.3   128  ARG128      0.2205
      8  NE       -30.5430    7.1840   14.6570 N.pl3 128  ARG128     -0.0865
      9  CZ       -29.4840    7.6040   13.9700 C.cat 128  ARG128      0.5346
     10  NH1      -28.2750    7.1160   14.2330 N.pl3 128  ARG128      0.1354
     11  NH2      -29.6350    8.4960   13.0000 N.pl3 128  ARG128      0.1354
     12  N        -30.6650    0.4400   12.3260 N.3   130  TYR130     -0.1241
     13  CA       -29.5110    0.3810   11.4420 C.3   130  TYR130      0.1605
     14  C        -28.9470   -1.0200   11.3080 C.2   130  TYR130      0.2264
     15  O        -28.2260   -1.3220   10.3620 O.2   130  TYR130     -0.2867
     16  CB       -28.4290    1.3780   11.8650 C.3   130  TYR130      0.0534
     17  CG       -28.7690    2.8050   11.4870 C.ar  130  TYR130     -0.0201
     18  CD1      -29.5560    3.5860   12.3190 C.ar  130  TYR130     -0.0009
     19  CD2      -28.3190    3.3680   10.2990 C.ar  130  TYR130     -0.0009
     20  CE1      -29.8850    4.8900   11.9900 C.ar  130  TYR130      0.0417
     21  CE2      -28.6510    4.6770    9.9580 C.ar  130  TYR130      0.0417
     22  CZ       -29.4380    5.4280   10.8200 C.ar  130  TYR130      0.1957
     23  OH       -29.7850    6.7230   10.5300 O.3   130  TYR130     -0.2866
     24  N        -30.9500   -2.4900    8.4070 N.3   133  ILE133     -0.1245
     25  CA       -30.4270   -1.8430    7.2180 C.3   133  ILE133      0.1561
     26  C        -29.0820   -2.4560    6.8260 C.2   133  ILE133      0.2260
     27  O        -28.8880   -2.8030    5.6790 O.2   133  ILE133     -0.2867
     28  CB       -30.3330   -0.3150    7.4160 C.3   133  ILE133      0.0252
     29  CG1      -31.7410    0.2810    7.4360 C.3   133  ILE133      0.0019
     30  CG2      -29.4980    0.3370    6.3320 C.3   133  ILE133      0.0019
     31  CD1      -31.7810    1.6350    8.0080 C.3   133  ILE133      0.0001
     32  N        -29.4930   -5.6900    5.0470 N.3   136  SER136     -0.1217
     33  CA       -29.8440   -5.7040    3.6150 C.3   136  SER136      0.1889
     34  C        -28.7390   -6.2540    2.6880 C.2   136  SER136      0.2288
     35  O        -29.0290   -6.7660    1.6020 O.2   136  SER136     -0.2866
     36  CB       -30.2300   -4.3090    3.1220 C.3   136  SER136      0.2089
     37  OG       -29.0860   -3.4830    2.9950 O.3   136  SER136     -0.2183
     38  N        -19.1470    9.0610   16.1000 N.3   254  ARG254     -0.1231
     39  CA       -20.3660    8.7100   15.3830 C.3   254  ARG254      0.1694
     40  C        -20.0720    8.4280   13.9190 C.2   254  ARG254      0.2592
     41  O        -20.5880    7.4660   13.3390 O.2   254  ARG254     -0.2718
     42  CB       -21.4010    9.8210   15.5200 C.3   254  ARG254      0.0321
     43  CG       -21.8330   10.0310   16.9640 C.3   254  ARG254      0.0489
     44  CD       -22.9000   11.0980   17.1280 C.3   254  ARG254      0.2205
     45  NE       -23.5310   10.9840   18.4410 N.pl3 254  ARG254     -0.0865
     46  CZ       -24.7430   11.4400   18.7460 C.cat 254  ARG254      0.5346
     47  NH1      -25.4810   12.0730   17.8410 N.pl3 254  ARG254      0.1354
     48  NH2      -25.2190   11.2580   19.9670 N.pl3 254  ARG254      0.1354
     49  N        -19.2330    9.2760   13.3290 N.am  255  TRP255     -0.1976
     50  CA       -18.7940    9.0820   11.9610 C.3   255  TRP255      0.1640
     51  C        -17.9640    7.8030   11.8270 C.2   255  TRP255      0.2290
     52  O        -18.1460    7.0370   10.8910 O.2   255  TRP255     -0.2864
     53  CB       -18.0170   10.3110   11.4510 C.3   255  TRP255      0.0576
     54  CG       -17.2620   10.0530   10.1810 C.ar  255  TRP255      0.0006
     55  CD1      -15.9120   10.0380   10.0230 C.ar  255  TRP255      0.0946
     56  CD2      -17.8170    9.7120    8.9060 C.ar  255  TRP255      0.0152
     57  NE1      -15.5880    9.7350    8.7220 N.ar  255  TRP255     -0.2442
     58  CE2      -16.7420    9.5330    8.0170 C.ar  255  TRP255      0.0810
     59  CE3      -19.1200    9.5640    8.4260 C.ar  255  TRP255      0.0012
     60  CZ2      -16.9280    9.2120    6.6750 C.ar  255  TRP255      0.0191
     61  CZ3      -19.3050    9.2450    7.1000 C.ar  255  TRP255      0.0001
     62  CH2      -18.2160    9.0700    6.2380 C.ar  255  TRP255      0.0015
     63  N        -20.4140    4.9390   11.9040 N.3   258  PHE258     -0.1241
     64  CA       -21.2270    4.8960   10.7030 C.3   258  PHE258      0.1605
     65  C        -20.4150    4.3640    9.5250 C.2   258  PHE258      0.2264
     66  O        -20.9410    3.6680    8.6680 O.2   258  PHE258     -0.2867
     67  CB       -21.8350    6.2380   10.3200 C.3   258  PHE258      0.0534
     68  CG       -22.5520    6.1810    9.0110 C.ar  258  PHE258     -0.0203
     69  CD1      -23.8500    5.7000    8.9450 C.ar  258  PHE258     -0.0042
     70  CD2      -21.9000    6.5170    7.8310 C.ar  258  PHE258     -0.0042
     71  CE1      -24.5000    5.5960    7.7240 C.ar  258  PHE258     -0.0003
     72  CE2      -22.5450    6.4210    6.5980 C.ar  258  PHE258     -0.0003
     73  CZ       -23.8420    5.9640    6.5440 C.ar  258  PHE258     -0.0000
     74  N        -20.2030    0.8030    9.5340 N.3   261  LEU261     -0.1231
     75  CA       -21.3900    0.2380    8.8750 C.3   261  LEU261      0.1693
     76  C        -21.2750    0.3040    7.3350 C.2   261  LEU261      0.2592
     77  O        -21.5110   -0.6750    6.6190 O.2   261  LEU261     -0.2718
     78  CB       -22.6710    0.9470    9.3260 C.3   261  LEU261      0.0284
     79  CG       -24.0380    0.3840    8.8940 C.3   261  LEU261      0.0019
     80  CD1      -25.1150    0.9770    9.7770 C.3   261  LEU261      0.0001
     81  CD2      -24.4010    0.6440    7.4370 C.3   261  LEU261      0.0001
     82  N        -20.9190    1.4750    6.8440 N.am  262  PHE262     -0.1976
     83  CA       -20.9820    1.8110    5.4350 C.3   262  PHE262      0.1639
     84  C        -20.0520    0.9720    4.5520 C.2   262  PHE262      0.2290
     85  O        -20.4550    0.5410    3.4630 O.2   262  PHE262     -0.2864
     86  CB       -20.6920    3.3150    5.2310 C.3   262  PHE262      0.0560
     87  CG       -20.6360    3.7260    3.7810 C.ar  262  PHE262     -0.0200
     88  CD1      -21.7870    4.1050    3.1140 C.ar  262  PHE262     -0.0042
     89  CD2      -19.4330    3.6940    3.0850 C.ar  262  PHE262     -0.0042
     90  CE1      -21.7440    4.4540    1.7750 C.ar  262  PHE262     -0.0003
     91  CE2      -19.3680    4.0530    1.7520 C.ar  262  PHE262     -0.0003
     92  CZ       -20.5320    4.4280    1.0790 C.ar  262  PHE262     -0.0000
     93  N        -21.0360   -2.9880    3.9540 N.3   265  VAL265     -0.1231
     94  CA       -22.3840   -3.0420    3.4050 C.3   265  VAL265      0.1692
     95  C        -22.3900   -2.6280    1.9250 C.2   265  VAL265      0.2592
     96  O        -23.0150   -3.2760    1.0810 O.2   265  VAL265     -0.2718
     97  CB       -23.3420   -2.1330    4.2040 C.3   265  VAL265      0.0266
     98  CG1      -24.6590   -1.9230    3.4500 C.3   265  VAL265      0.0020
     99  CG2      -23.5900   -2.7170    5.5950 C.3   265  VAL265      0.0020
    100  N        -21.6660   -1.5640    1.6080 N.am  266  THR266     -0.1953
    101  CA       -21.6230   -1.0470    0.2530 C.3   266  THR266      0.1897
    102  C        -20.8820   -2.0070   -0.6480 C.2   266  THR266      0.2313
    103  O        -21.3030   -2.2700   -1.7820 O.2   266  THR266     -0.2863
    104  CB       -20.9460    0.3370    0.2230 C.3   266  THR266      0.1794
    105  OG1      -21.7390    1.2520    0.9830 O.3   266  THR266     -0.2208
    106  CG2      -20.7760    0.8680   -1.2280 C.3   266  THR266      0.0378
    107  N        -23.0090   -4.8620   -1.5680 N.3   269  TRP269     -0.1227
    108  CA       -24.0070   -4.3850   -2.5160 C.3   269  TRP269      0.1737
    109  C        -23.4400   -4.2400   -3.9270 C.2   269  TRP269      0.2595
    110  O        -24.1120   -4.5660   -4.9050 O.2   269  TRP269     -0.2718
    111  CB       -24.6230   -3.0680   -2.0440 C.3   269  TRP269      0.0564
    112  CG       -25.8620   -3.2620   -1.2130 C.ar  269  TRP269      0.0003
    113  CD1      -25.9380   -3.2990    0.1470 C.ar  269  TRP269      0.0946
    114  CD2      -27.2030   -3.4600   -1.6940 C.ar  269  TRP269      0.0152
    115  NE1      -27.2430   -3.5020    0.5490 N.ar  269  TRP269     -0.2442
    116  CE2      -28.0370   -3.6060   -0.5630 C.ar  269  TRP269      0.0810
    117  CE3      -27.7790   -3.5270   -2.9700 C.ar  269  TRP269      0.0012
    118  CZ2      -29.4130   -3.8090   -0.6680 C.ar  269  TRP269      0.0191
    119  CZ3      -29.1510   -3.7330   -3.0680 C.ar  269  TRP269      0.0001
    120  CH2      -29.9500   -3.8660   -1.9270 C.ar  269  TRP269      0.0015
    121  N        -22.1980   -3.7830   -4.0340 N.am  270  MET270     -0.1979
    122  CA       -21.5780   -3.6230   -5.3470 C.3   270  MET270      0.1605
    123  C        -21.3670   -4.9810   -6.0050 C.2   270  MET270      0.2287
    124  O        -21.6790   -5.1620   -7.1790 O.2   270  MET270     -0.2864
    125  CB       -20.2670   -2.8440   -5.2450 C.3   270  MET270      0.0413
    126  CG       -20.4630   -1.3830   -4.8600 C.3   270  MET270      0.0598
    127  SD       -21.5620   -0.4820   -5.9890 S.3   270  MET270     -0.1393
    128  CE       -23.0660   -0.4580   -5.0170 C.3   270  MET270      0.0692
    129  N        -24.4420   -6.4470   -7.6510 N.3   273  ILE273     -0.1245
    130  CA       -24.7720   -5.8470   -8.9320 C.3   273  ILE273      0.1561
    131  C        -24.0060   -6.5360  -10.0740 C.2   273  ILE273      0.2260
    132  O        -24.5670   -6.8150  -11.1480 O.2   273  ILE273     -0.2867
    133  CB       -24.5160   -4.3210   -8.8860 C.3   273  ILE273      0.0252
    134  CG1      -25.5540   -3.6610   -7.9670 C.3   273  ILE273      0.0019
    135  CG2      -24.5710   -3.7050  -10.2560 C.3   273  ILE273      0.0019
    136  CD1      -25.1790   -2.2540   -7.4980 C.3   273  ILE273      0.0001
@<TRIPOS>BOND
     1   132   131    2
     2   135   133    1
     3   131   130    1
     4   130   133    1
     5   130   129    1
     6   133   134    1
     7   134   136    1
     8   124   123    2
     9   123   122    1
    10   127   128    1
    11   127   126    1
    12   122   125    1
    13   122   121    1
    14   125   126    1
    15   110   109    2
    16   121   109   am
    17   109   108    1
    18   119   117   ar
    19   119   120   ar
    20   117   114   ar
    21   108   111    1
    22   108   107    1
    23   111   112    1
    24   120   118   ar
    25   103   102    2
    26   114   112   ar
    27   114   116   ar
    28   106   104    1
    29   112   113   ar
    30   118   116   ar
    31   102   101    1
    32   116   115   ar
    33   113   115   ar
    34   104   101    1
    35   104   105    1
    36   101   100    1
    37    92    91   ar
    38    92    90   ar
    39    96    95    2
    40    35    34    2
    41   100    95   am
    42    91    89   ar
    43    90    88   ar
    44    95    94    1
    45    34    33    1
    46    37    36    1
    47    89    87   ar
    48    88    87   ar
    49    36    33    1
    50    94    93    1
    51    94    97    1
    52    98    97    1
    53    85    84    2
    54    33    32    1
    55    87    86    1
    56    97    99    1
    57    84    83    1
    58    86    83    1
    59    83    82    1
    60    27    26    2
    61    62    60   ar
    62    62    61   ar
    63    30    28    1
    64    73    72   ar
    65    73    71   ar
    66    72    70   ar
    67    77    76    2
    68    60    58   ar
    69    26    25    1
    70    82    76   am
    71    61    59   ar
    72    25    28    1
    73    25    24    1
    74    76    75    1
    75    28    29    1
    76    29    31    1
    77    81    79    1
    78    71    69   ar
    79    70    68   ar
    80    58    57   ar
    81    58    56   ar
    82    59    56   ar
    83    66    65    2
    84    57    55   ar
    85    75    78    1
    86    75    74    1
    87    79    78    1
    88    79    80    1
    89    56    54   ar
    90    69    68   ar
    91    68    67    1
    92    65    64    1
    93    21    19   ar
    94    21    22   ar
    95    55    54   ar
    96    54    53    1
    97    19    17   ar
    98    67    64    1
    99    15    14    2
   100    23    22    1
   101    64    63    1
   102    22    20   ar
   103    52    51    2
   104    14    13    1
   105    13    16    1
   106    13    12    1
   107    53    50    1
   108    17    16    1
   109    17    18   ar
   110    51    50    1
   111    50    49    1
   112    20    18   ar
   113    11     9    1
   114    49    40   am
   115    41    40    2
   116    40    39    1
   117     9    10    1
   118     9     8    2
   119     8     7    1
   120     3     4    2
   121     3     2    1
   122     5     2    1
   123     5     6    1
   124    39    42    1
   125    39    38    1
   126     2     1    1
   127    42    43    1
   128     7     6    1
   129    43    44    1
   130    44    45    1
   131    47    46    1
   132    45    46    2
   133    46    48    1
