@<TRIPOS>MOLECULE
tmp/5gthX20.pdb
 86 79 0 0 0
SMALL
GASTEIGER

@<TRIPOS>ATOM
      1  N        -42.6370  -16.3590   10.8960 N.3    25  LEU25      -0.1245
      2  CA       -42.0100  -16.5630    9.6040 C.3    25  LEU25       0.1561
      3  C        -40.5970  -17.1350    9.7770 C.2    25  LEU25       0.2260
      4  O        -40.2380  -18.1280    9.1510 O.2    25  LEU25      -0.2867
      5  CB       -41.9760  -15.2600    8.8040 C.3    25  LEU25       0.0270
      6  CG       -41.3170  -15.4300    7.4230 C.3    25  LEU25       0.0019
      7  CD1      -42.0660  -16.4640    6.5980 C.3    25  LEU25       0.0001
      8  CD2      -41.1920  -14.1140    6.6630 C.3    25  LEU25       0.0001
      9  N        -39.7840  -25.0230   -9.5340 N.3    78  LEU78      -0.1245
     10  CA       -39.8280  -24.7790   -8.1020 C.3    78  LEU78       0.1561
     11  C        -39.4930  -26.0780   -7.3740 C.2    78  LEU78       0.2260
     12  O        -38.9820  -26.0620   -6.2520 O.2    78  LEU78      -0.2867
     13  CB       -41.2090  -24.2760   -7.6950 C.3    78  LEU78       0.0270
     14  CG       -41.5450  -22.8700   -8.1840 C.3    78  LEU78       0.0019
     15  CD1      -43.0160  -22.5730   -7.9970 C.3    78  LEU78       0.0001
     16  CD2      -40.6970  -21.8610   -7.4570 C.3    78  LEU78       0.0001
     17  N        -41.5390  -28.4230   -6.1710 N.3    80  LEU80      -0.1245
     18  CA       -42.3960  -28.7150   -5.0320 C.3    80  LEU80       0.1561
     19  C        -42.5260  -30.2260   -4.8790 C.2    80  LEU80       0.2260
     20  O        -42.5750  -30.9480   -5.8740 O.2    80  LEU80      -0.2867
     21  CB       -43.7710  -28.0790   -5.2400 C.3    80  LEU80       0.0270
     22  CG       -43.7640  -26.5960   -5.6480 C.3    80  LEU80       0.0019
     23  CD1      -45.1850  -26.0470   -5.7560 C.3    80  LEU80       0.0001
     24  CD2      -42.9230  -25.7580   -4.6790 C.3    80  LEU80       0.0001
     25  N        -35.3700  -21.6870   -0.8910 N.3   105  LEU105     -0.1245
     26  CA       -36.5890  -20.9120   -0.7090 C.3   105  LEU105      0.1561
     27  C        -36.9100  -20.6980    0.7630 C.2   105  LEU105      0.2260
     28  O        -37.1750  -19.5580    1.1850 O.2   105  LEU105     -0.2867
     29  CB       -37.7660  -21.5560   -1.4450 C.3   105  LEU105      0.0270
     30  CG       -37.6540  -21.5960   -2.9670 C.3   105  LEU105      0.0019
     31  CD1      -38.7660  -22.4500   -3.5520 C.3   105  LEU105      0.0001
     32  CD2      -37.6740  -20.1990   -3.5630 C.3   105  LEU105      0.0001
     33  N        -37.0070  -16.9700    2.6680 N.3   109  PHE109     -0.1241
     34  CA       -38.0440  -16.4700    3.5760 C.3   109  PHE109      0.1605
     35  C        -37.5460  -16.3440    5.0260 C.2   109  PHE109      0.2264
     36  O        -38.0360  -15.5210    5.7990 O.2   109  PHE109     -0.2867
     37  CB       -39.3320  -17.2910    3.4720 C.3   109  PHE109      0.0534
     38  CG       -40.0780  -17.0540    2.1920 C.ar  109  PHE109     -0.0203
     39  CD1      -40.8380  -15.9050    2.0230 C.ar  109  PHE109     -0.0042
     40  CD2      -39.9850  -17.9580    1.1380 C.ar  109  PHE109     -0.0042
     41  CE1      -41.5090  -15.6710    0.8340 C.ar  109  PHE109     -0.0003
     42  CE2      -40.6550  -17.7380   -0.0420 C.ar  109  PHE109     -0.0003
     43  CZ       -41.4170  -16.5890   -0.2000 C.ar  109  PHE109     -0.0000
     44  N        -35.7270  -13.0460    5.1870 N.3   112  ILE112     -0.1245
     45  CA       -36.7590  -12.0270    5.3280 C.3   112  ILE112      0.1561
     46  C        -37.2380  -11.9580    6.7770 C.2   112  ILE112      0.2260
     47  O        -37.3410  -10.8730    7.3770 O.2   112  ILE112     -0.2867
     48  CB       -37.9520  -12.3230    4.4110 C.3   112  ILE112      0.0252
     49  CG1      -37.5380  -12.2110    2.9490 C.3   112  ILE112      0.0019
     50  CG2      -39.1160  -11.3890    4.6990 C.3   112  ILE112      0.0019
     51  CD1      -38.5880  -12.7200    2.0230 C.3   112  ILE112      0.0001
     52  N        -34.6210  -10.3150    9.1140 N.3   115  MET115     -0.1230
     53  CA       -34.5720   -8.8640    8.9930 C.3   115  MET115      0.1702
     54  C        -35.7900   -8.2170    9.6450 C.2   115  MET115      0.2592
     55  O        -35.6830   -7.1890   10.3340 O.2   115  MET115     -0.2718
     56  CB       -34.4470   -8.4430    7.5440 C.3   115  MET115      0.0401
     57  CG       -33.9020   -7.0480    7.4060 C.3   115  MET115      0.0596
     58  SD       -33.6280   -6.6330    5.6990 S.3   115  MET115     -0.1393
     59  CE       -33.5760   -4.8570    5.7510 C.3   115  MET115      0.0692
     60  N        -36.9470   -8.8460    9.4480 N.am  116  LEU116     -0.1980
     61  CA       -38.1640   -8.4090   10.1170 C.3   116  LEU116      0.1596
     62  C        -38.0140   -8.4690   11.6390 C.2   116  LEU116      0.2287
     63  O        -38.5200   -7.6060   12.3560 O.2   116  LEU116     -0.2864
     64  CB       -39.3700   -9.2270    9.6510 C.3   116  LEU116      0.0297
     65  CG       -39.9270   -8.8820    8.2620 C.3   116  LEU116      0.0022
     66  CD1      -41.0480   -9.8470    7.8870 C.3   116  LEU116      0.0001
     67  CD2      -40.4110   -7.4320    8.1850 C.3   116  LEU116      0.0001
     68  N        -36.1010   -5.5060   12.7220 N.3   119  PHE119     -0.1241
     69  CA       -37.0040   -4.3520   12.7820 C.3   119  PHE119      0.1605
     70  C        -37.8800   -4.3380   14.0330 C.2   119  PHE119      0.2264
     71  O        -37.9920   -3.3220   14.7320 O.2   119  PHE119     -0.2867
     72  CB       -37.8920   -4.2970   11.5350 C.3   119  PHE119      0.0534
     73  CG       -37.2510   -3.6230   10.3500 C.ar  119  PHE119     -0.0203
     74  CD1      -36.9980   -4.3320    9.1870 C.ar  119  PHE119     -0.0042
     75  CD2      -36.8880   -2.2880   10.4060 C.ar  119  PHE119     -0.0042
     76  CE1      -36.4140   -3.7240    8.0990 C.ar  119  PHE119     -0.0003
     77  CE2      -36.3040   -1.6680    9.3160 C.ar  119  PHE119     -0.0003
     78  CZ       -36.0680   -2.3880    8.1610 C.ar  119  PHE119     -0.0000
     79  N        -28.5420   -9.9880    2.4280 N.3   139  ILE139     -0.1245
     80  CA       -29.6970  -10.4040    1.6420 C.3   139  ILE139      0.1561
     81  C        -29.4760  -10.1730    0.1320 C.2   139  ILE139      0.2260
     82  O        -29.8540  -10.9990   -0.6950 O.2   139  ILE139     -0.2867
     83  CB       -30.9970   -9.7320    2.1320 C.3   139  ILE139      0.0252
     84  CG1      -31.4510  -10.3840    3.4280 C.3   139  ILE139      0.0019
     85  CG2      -32.1240   -9.8940    1.1210 C.3   139  ILE139      0.0019
     86  CD1      -32.8220   -9.9380    3.8820 C.3   139  ILE139      0.0001
@<TRIPOS>BOND
     1     9    10    1
     2    14    15    1
     3    14    13    1
     4    14    16    1
     5    10    13    1
     6    10    11    1
     7    11    12    2
     8    17    18    1
     9    20    19    2
    10    23    22    1
    11    22    21    1
    12    22    24    1
    13    21    18    1
    14    18    19    1
    15    32    30    1
    16    31    30    1
    17    30    29    1
    18    29    26    1
    19    25    26    1
    20    26    27    1
    21    82    81    2
    22    43    42   ar
    23    43    41   ar
    24    42    40   ar
    25    81    80    1
    26    27    28    2
    27    41    39   ar
    28    85    83    1
    29    40    38   ar
    30    80    83    1
    31    80    79    1
    32    51    49    1
    33    39    38   ar
    34    83    84    1
    35    38    37    1
    36    33    34    1
    37    49    48    1
    38    84    86    1
    39    37    34    1
    40    34    35    1
    41    48    50    1
    42    48    45    1
    43    35    36    2
    44    44    45    1
    45    45    46    1
    46    58    59    1
    47    58    57    1
    48     7     6    1
    49     8     6    1
    50    46    47    2
    51    57    56    1
    52     6     5    1
    53    56    53    1
    54    66    65    1
    55    76    78   ar
    56    76    74   ar
    57    78    77   ar
    58    67    65    1
    59    65    64    1
    60     5     2    1
    61    53    52    1
    62    53    54    1
    63     4     3    2
    64    74    73   ar
    65    77    75   ar
    66    60    54   am
    67    60    61    1
    68     2     3    1
    69     2     1    1
    70    54    55    2
    71    64    61    1
    72    61    62    1
    73    73    75   ar
    74    73    72    1
    75    72    69    1
    76    62    63    2
    77    68    69    1
    78    69    70    1
    79    70    71    2
