@<TRIPOS>MOLECULE
tmp/5gthX10.pdb
 137 128 0 0 0
SMALL
GASTEIGER

@<TRIPOS>ATOM
      1  N        -34.7480  -27.3570  -15.3500 N.3    75  GLY75      -0.1210
      2  CA       -34.9060  -25.9540  -15.6860 C.3    75  GLY75       0.1956
      3  C        -34.9460  -25.1010  -14.4360 C.2    75  GLY75       0.2611
      4  O        -34.0890  -25.2310  -13.5660 O.2    75  GLY75      -0.2717
      5  N        -35.9490  -24.2320  -14.3320 N.am   76  HIS76      -0.1975
      6  CA       -36.1150  -23.4260  -13.1280 C.3    76  HIS76       0.1656
      7  C        -37.3660  -23.8480  -12.3440 C.2    76  HIS76       0.2291
      8  O        -38.0070  -23.0260  -11.6740 O.2    76  HIS76      -0.2864
      9  CB       -36.1760  -21.9300  -13.4630 C.3    76  HIS76       0.0771
     10  CG       -34.9770  -21.4210  -14.2030 C.ar   76  HIS76       0.0820
     11  ND1      -34.9580  -21.2600  -15.5750 N.ar   76  HIS76      -0.2267
     12  CD2      -33.7560  -21.0300  -13.7630 C.ar   76  HIS76       0.1154
     13  CE1      -33.7790  -20.7910  -15.9450 C.ar   76  HIS76       0.1986
     14  NE2      -33.0280  -20.6490  -14.8670 N.ar   76  HIS76      -0.2212
     15  N        -39.7840  -25.0230   -9.5340 N.3    78  LEU78      -0.1245
     16  CA       -39.8280  -24.7790   -8.1020 C.3    78  LEU78       0.1561
     17  C        -39.4930  -26.0780   -7.3740 C.2    78  LEU78       0.2260
     18  O        -38.9820  -26.0620   -6.2520 O.2    78  LEU78      -0.2867
     19  CB       -41.2090  -24.2760   -7.6950 C.3    78  LEU78       0.0270
     20  CG       -41.5450  -22.8700   -8.1840 C.3    78  LEU78       0.0019
     21  CD1      -43.0160  -22.5730   -7.9970 C.3    78  LEU78       0.0001
     22  CD2      -40.6970  -21.8610   -7.4570 C.3    78  LEU78       0.0001
     23  N        -35.3700  -21.6870   -0.8910 N.3   105  LEU105     -0.1245
     24  CA       -36.5890  -20.9120   -0.7090 C.3   105  LEU105      0.1561
     25  C        -36.9100  -20.6980    0.7630 C.2   105  LEU105      0.2260
     26  O        -37.1750  -19.5580    1.1850 O.2   105  LEU105     -0.2867
     27  CB       -37.7660  -21.5560   -1.4450 C.3   105  LEU105      0.0270
     28  CG       -37.6540  -21.5960   -2.9670 C.3   105  LEU105      0.0019
     29  CD1      -38.7660  -22.4500   -3.5520 C.3   105  LEU105      0.0001
     30  CD2      -37.6740  -20.1990   -3.5630 C.3   105  LEU105      0.0001
     31  N        -34.5140  -18.2030    1.9510 N.3   108  ALA108     -0.1231
     32  CA       -34.8530  -16.8380    1.5450 C.3   108  ALA108      0.1694
     33  C        -35.9170  -16.2320    2.4730 C.2   108  ALA108      0.2592
     34  O        -35.7470  -15.1160    3.0260 O.2   108  ALA108     -0.2718
     35  CB       -35.3290  -16.8260    0.0980 C.3   108  ALA108      0.0304
     36  N        -37.0070  -16.9700    2.6680 N.am  109  PHE109     -0.1976
     37  CA       -38.0440  -16.4700    3.5760 C.3   109  PHE109      0.1639
     38  C        -37.5460  -16.3440    5.0260 C.2   109  PHE109      0.2290
     39  O        -38.0360  -15.5210    5.7990 O.2   109  PHE109     -0.2864
     40  CB       -39.3320  -17.2910    3.4720 C.3   109  PHE109      0.0560
     41  CG       -40.0780  -17.0540    2.1920 C.ar  109  PHE109     -0.0200
     42  CD1      -40.8380  -15.9050    2.0230 C.ar  109  PHE109     -0.0042
     43  CD2      -39.9850  -17.9580    1.1380 C.ar  109  PHE109     -0.0042
     44  CE1      -41.5090  -15.6710    0.8340 C.ar  109  PHE109     -0.0003
     45  CE2      -40.6550  -17.7380   -0.0420 C.ar  109  PHE109     -0.0003
     46  CZ       -41.4170  -16.5890   -0.2000 C.ar  109  PHE109     -0.0000
     47  N        -35.7270  -13.0460    5.1870 N.3   112  ILE112     -0.1245
     48  CA       -36.7590  -12.0270    5.3280 C.3   112  ILE112      0.1561
     49  C        -37.2380  -11.9580    6.7770 C.2   112  ILE112      0.2260
     50  O        -37.3410  -10.8730    7.3770 O.2   112  ILE112     -0.2867
     51  CB       -37.9520  -12.3230    4.4110 C.3   112  ILE112      0.0252
     52  CG1      -37.5380  -12.2110    2.9490 C.3   112  ILE112      0.0019
     53  CG2      -39.1160  -11.3890    4.6990 C.3   112  ILE112      0.0019
     54  CD1      -38.5880  -12.7200    2.0230 C.3   112  ILE112      0.0001
     55  N        -28.5420   -9.9880    2.4280 N.3   139  ILE139     -0.1245
     56  CA       -29.6970  -10.4040    1.6420 C.3   139  ILE139      0.1561
     57  C        -29.4760  -10.1730    0.1320 C.2   139  ILE139      0.2260
     58  O        -29.8540  -10.9990   -0.6950 O.2   139  ILE139     -0.2867
     59  CB       -30.9970   -9.7320    2.1320 C.3   139  ILE139      0.0252
     60  CG1      -31.4510  -10.3840    3.4280 C.3   139  ILE139      0.0019
     61  CG2      -32.1240   -9.8940    1.1210 C.3   139  ILE139      0.0019
     62  CD1      -32.8220   -9.9380    3.8820 C.3   139  ILE139      0.0001
     63  N        -29.6690  -13.3030   -2.4670 N.3   143  VAL143     -0.1245
     64  CA       -30.6920  -13.2420   -3.5000 C.3   143  VAL143      0.1561
     65  C        -30.1050  -13.1740   -4.9190 C.2   143  VAL143      0.2260
     66  O        -30.6140  -13.8030   -5.8450 O.2   143  VAL143     -0.2867
     67  CB       -31.6300  -12.0440   -3.2470 C.3   143  VAL143      0.0252
     68  CG1      -32.2920  -11.5910   -4.5300 C.3   143  VAL143      0.0019
     69  CG2      -32.6730  -12.4120   -2.1930 C.3   143  VAL143      0.0019
     70  N        -30.4280  -16.9290   -6.3530 N.3   147  LEU147     -0.1231
     71  CA       -31.6810  -16.8220   -7.0850 C.3   147  LEU147      0.1693
     72  C        -31.5660  -16.1410   -8.4490 C.2   147  LEU147      0.2591
     73  O        -31.9080  -16.7440   -9.4540 O.2   147  LEU147     -0.2718
     74  CB       -32.7570  -16.1650   -6.2310 C.3   147  LEU147      0.0284
     75  CG       -33.0330  -16.9000   -4.9200 C.3   147  LEU147      0.0019
     76  CD1      -34.0910  -16.1640   -4.1260 C.3   147  LEU147      0.0001
     77  CD2      -33.4450  -18.3700   -5.1910 C.3   147  LEU147      0.0001
     78  N        -31.0910  -14.8950   -8.4910 N.am  148  ILE148     -0.1980
     79  CA       -31.0700  -14.1460   -9.7470 C.3   148  ILE148      0.1595
     80  C        -30.1490  -14.8050  -10.7880 C.2   148  ILE148      0.2287
     81  O        -30.5410  -15.0430  -11.9410 O.2   148  ILE148     -0.2864
     82  CB       -30.6810  -12.6630   -9.5160 C.3   148  ILE148      0.0276
     83  CG1      -31.7440  -11.9560   -8.6710 C.3   148  ILE148      0.0022
     84  CG2      -30.4980  -11.9300  -10.8450 C.3   148  ILE148      0.0022
     85  CD1      -31.3590  -10.5520   -8.2370 C.3   148  ILE148      0.0001
     86  N        -31.4790  -17.9360  -12.3120 N.3   151  LEU151     -0.1231
     87  CA       -32.6760  -17.5680  -13.0610 C.3   151  LEU151      0.1693
     88  C        -32.3270  -16.9670  -14.4200 C.2   151  LEU151      0.2592
     89  O        -33.0840  -17.0990  -15.3690 O.2   151  LEU151     -0.2718
     90  CB       -33.5600  -16.6080  -12.2670 C.3   151  LEU151      0.0284
     91  CG       -34.4500  -17.1970  -11.1720 C.3   151  LEU151      0.0019
     92  CD1      -35.0870  -16.0510  -10.3730 C.3   151  LEU151      0.0001
     93  CD2      -35.5000  -18.1540  -11.7270 C.3   151  LEU151      0.0001
     94  N        -31.1720  -16.3190  -14.5030 N.am  152  GLY152     -0.1957
     95  CA       -30.6790  -15.8070  -15.7710 C.3   152  GLY152      0.1869
     96  C        -29.9960  -16.8560  -16.6400 C.2   152  GLY152      0.2309
     97  O        -29.8900  -16.6900  -17.8550 O.2   152  GLY152     -0.2863
     98  N        -29.4550  -21.2090  -17.6200 N.3   154  SER154     -0.1217
     99  CA       -30.3730  -22.2130  -18.1610 C.3   154  SER154      0.1889
    100  C        -31.2540  -22.9070  -17.1120 C.2   154  SER154      0.2288
    101  O        -32.3840  -23.3170  -17.4170 O.2   154  SER154     -0.2866
    102  CB       -29.6240  -23.2460  -19.0200 C.3   154  SER154      0.2089
    103  OG       -28.5950  -23.9110  -18.2960 O.3   154  SER154     -0.2183
    104  N        -31.4480  -24.1420  -12.4440 N.3   156  TRP156     -0.1241
    105  CA       -30.8860  -24.1490  -11.0860 C.3   156  TRP156      0.1605
    106  C        -29.5140  -24.8410  -10.9890 C.2   156  TRP156      0.2264
    107  O        -28.7380  -24.5580  -10.0670 O.2   156  TRP156     -0.2867
    108  CB       -31.8430  -24.8080  -10.0920 C.3   156  TRP156      0.0550
    109  CG       -33.1760  -24.1470   -9.9130 C.ar  156  TRP156      0.0003
    110  CD1      -34.3970  -24.7230  -10.0840 C.ar  156  TRP156      0.0946
    111  CD2      -33.4270  -22.8020   -9.4780 C.ar  156  TRP156      0.0152
    112  NE1      -35.3940  -23.8220   -9.8030 N.ar  156  TRP156     -0.2442
    113  CE2      -34.8250  -22.6330   -9.4280 C.ar  156  TRP156      0.0810
    114  CE3      -32.6070  -21.7210   -9.1390 C.ar  156  TRP156      0.0012
    115  CZ2      -35.4230  -21.4260   -9.0520 C.ar  156  TRP156      0.0191
    116  CZ3      -33.2070  -20.5150   -8.7730 C.ar  156  TRP156      0.0001
    117  CH2      -34.6000  -20.3840   -8.7330 C.ar  156  TRP156      0.0015
    118  N        -25.5140   -9.9380  -10.8080 N.3   276  VAL276     -0.1245
    119  CA       -26.7230   -9.7420  -11.6120 C.3   276  VAL276      0.1561
    120  C        -26.3900   -9.6380  -13.1030 C.2   276  VAL276      0.2260
    121  O        -27.1010  -10.1840  -13.9490 O.2   276  VAL276     -0.2867
    122  CB       -27.5020   -8.5000  -11.1640 C.3   276  VAL276      0.0252
    123  CG1      -28.6380   -8.1890  -12.1320 C.3   276  VAL276      0.0019
    124  CG2      -28.0420   -8.7170   -9.7460 C.3   276  VAL276      0.0019
    125  N        -25.6320  -12.9740  -14.3890 N.3   279  ALA279     -0.1231
    126  CA       -26.8170  -13.7920  -14.6440 C.3   279  ALA279      0.1694
    127  C        -27.0880  -13.8810  -16.1540 C.2   279  ALA279      0.2591
    128  O        -27.6280  -14.8730  -16.6560 O.2   279  ALA279     -0.2718
    129  CB       -28.0200  -13.2310  -13.9220 C.3   279  ALA279      0.0304
    130  N        -26.6880  -12.8310  -16.8620 N.am  280  LEU280     -0.1980
    131  CA       -26.9080  -12.6990  -18.2870 C.3   280  LEU280      0.1596
    132  C        -25.6290  -12.8930  -19.0970 C.2   280  LEU280      0.2287
    133  O        -25.5950  -12.5590  -20.2880 O.2   280  LEU280     -0.2864
    134  CB       -27.4360  -11.3060  -18.5750 C.3   280  LEU280      0.0297
    135  CG       -28.5700  -10.8550  -17.6740 C.3   280  LEU280      0.0022
    136  CD1      -29.0320   -9.4790  -18.1510 C.3   280  LEU280      0.0001
    137  CD2      -29.6880  -11.8710  -17.7360 C.3   280  LEU280      0.0001
@<TRIPOS>BOND
     1   133   132    2
     2   132   131    1
     3   102   103    1
     4   102    99    1
     5   134   131    1
     6   134   135    1
     7   131   130    1
     8    99    98    1
     9    99   100    1
    10   136   135    1
    11    97    96    2
    12   137   135    1
    13   101   100    2
    14   130   127   am
    15   128   127    2
    16    96    95    1
    17   127   126    1
    18    13    11   ar
    19    13    14   ar
    20    95    94    1
    21     2     1    1
    22     2     3    1
    23    11    10   ar
    24    89    88    2
    25    14    12   ar
    26   126   125    1
    27   126   129    1
    28    94    88   am
    29     3     5   am
    30     3     4    2
    31    88    87    1
    32     5     6    1
    33    10    12   ar
    34    10     9    1
    35   121   120    2
    36     9     6    1
    37     6     7    1
    38   120   119    1
    39    87    86    1
    40    87    90    1
    41   104   105    1
    42     7     8    2
    43    90    91    1
    44   123   122    1
    45    81    80    2
    46    93    91    1
    47   119   122    1
    48   119   118    1
    49    91    92    1
    50   122   124    1
    51   105   106    1
    52   105   108    1
    53   106   107    2
    54    84    82    1
    55    80    79    1
    56   108   109    1
    57   110   109   ar
    58   110   112   ar
    59   109   111   ar
    60   112   113   ar
    61    79    82    1
    62    79    78    1
    63    15    16    1
    64    82    83    1
    65   111   113   ar
    66   111   114   ar
    67    73    72    2
    68   113   115   ar
    69   114   116   ar
    70   115   117   ar
    71   116   117   ar
    72    83    85    1
    73    78    72   am
    74    72    71    1
    75    20    21    1
    76    20    19    1
    77    20    22    1
    78    16    19    1
    79    16    17    1
    80    17    18    2
    81    71    70    1
    82    71    74    1
    83    74    75    1
    84    66    65    2
    85    77    75    1
    86    75    76    1
    87    65    64    1
    88    68    67    1
    89    30    28    1
    90    29    28    1
    91    64    67    1
    92    64    63    1
    93    67    69    1
    94    28    27    1
    95    27    24    1
    96    23    24    1
    97    24    25    1
    98    58    57    2
    99    46    45   ar
   100    46    44   ar
   101    45    43   ar
   102    35    32    1
   103    57    56    1
   104    25    26    2
   105    44    42   ar
   106    61    59    1
   107    43    41   ar
   108    32    31    1
   109    32    33    1
   110    56    59    1
   111    56    55    1
   112    42    41   ar
   113    54    52    1
   114    59    60    1
   115    41    40    1
   116    33    36   am
   117    33    34    2
   118    36    37    1
   119    52    51    1
   120    60    62    1
   121    40    37    1
   122    37    38    1
   123    51    53    1
   124    51    48    1
   125    38    39    2
   126    47    48    1
   127    48    49    1
   128    49    50    2
