@<TRIPOS>MOLECULE
tmp/5gthX17.pdb
 212 202 0 0 0
SMALL
GASTEIGER

@<TRIPOS>ATOM
      1  N        -39.8070  -16.4990   10.6350 N.3    26  LEU26      -0.1245
      2  CA       -38.3830  -16.8030   10.7850 C.3    26  LEU26       0.1561
      3  C        -38.0930  -18.2240   11.2720 C.2    26  LEU26       0.2260
      4  O        -37.2370  -18.9160   10.7150 O.2    26  LEU26      -0.2867
      5  CB       -37.7110  -15.7850   11.7250 C.3    26  LEU26       0.0270
      6  CG       -36.2840  -16.1520   12.1600 C.3    26  LEU26       0.0019
      7  CD1      -35.3350  -16.2650   10.9440 C.3    26  LEU26       0.0001
      8  CD2      -35.7490  -15.1870   13.2030 C.3    26  LEU26       0.0001
      9  N        -36.0810  -20.9460    8.9970 N.3    30  ALA30      -0.1245
     10  CA       -34.6770  -21.0890    9.3600 C.3    30  ALA30       0.1562
     11  C        -34.3800  -22.5310    9.7860 C.2    30  ALA30       0.2260
     12  O        -33.3470  -23.1080    9.4350 O.2    30  ALA30      -0.2867
     13  CB       -34.3180  -20.1180   10.4860 C.3    30  ALA30       0.0290
     14  N        -34.5830  -24.7940    6.7830 N.3    33  ALA33      -0.1231
     15  CA       -33.4420  -24.5620    5.9020 C.3    33  ALA33       0.1694
     16  C        -32.1840  -25.2480    6.4220 C.2    33  ALA33       0.2591
     17  O        -31.4200  -25.8350    5.6480 O.2    33  ALA33      -0.2718
     18  CB       -33.1920  -23.0790    5.7330 C.3    33  ALA33       0.0304
     19  N        -31.9770  -25.1750    7.7350 N.am   34  LEU34      -0.1980
     20  CA       -30.8020  -25.7590    8.3620 C.3    34  LEU34       0.1596
     21  C        -30.9030  -27.2800    8.4130 C.2    34  LEU34       0.2287
     22  O        -29.9250  -27.9860    8.1730 O.2    34  LEU34      -0.2864
     23  CB       -30.6370  -25.2080    9.7680 C.3    34  LEU34       0.0297
     24  CG       -29.3700  -25.6620   10.4970 C.3    34  LEU34       0.0022
     25  CD1      -28.1260  -24.9760    9.9430 C.3    34  LEU34       0.0001
     26  CD2      -29.5000  -25.4480   11.9980 C.3    34  LEU34       0.0001
     27  N        -30.2750  -28.8720    5.0260 N.3    37  TRP37      -0.1241
     28  CA       -28.8550  -28.9630    4.7080 C.3    37  TRP37       0.1605
     29  C        -28.1780  -30.0970    5.4790 C.2    37  TRP37       0.2264
     30  O        -27.2970  -30.7660    4.9610 O.2    37  TRP37      -0.2867
     31  CB       -28.1300  -27.6310    4.9730 C.3    37  TRP37       0.0550
     32  CG       -26.7100  -27.6910    4.5180 C.ar   37  TRP37       0.0003
     33  CD1      -26.2690  -27.6850    3.2280 C.ar   37  TRP37       0.0946
     34  CD2      -25.5390  -27.7920    5.3390 C.ar   37  TRP37       0.0152
     35  NE1      -24.9000  -27.7760    3.1920 N.ar   37  TRP37      -0.2442
     36  CE2      -24.4260  -27.8510    4.4720 C.ar   37  TRP37       0.0810
     37  CE3      -25.3210  -27.8450    6.7190 C.ar   37  TRP37       0.0012
     38  CZ2      -23.1170  -27.9510    4.9390 C.ar   37  TRP37       0.0191
     39  CZ3      -24.0210  -27.9560    7.1800 C.ar   37  TRP37       0.0001
     40  CH2      -22.9350  -28.0030    6.2920 C.ar   37  TRP37       0.0015
     41  N        -16.6730  -33.5890    5.6970 N.3    62  PHE62      -0.1241
     42  CA       -17.2950  -32.2770    5.8650 C.3    62  PHE62       0.1605
     43  C        -16.9250  -31.2770    4.7510 C.2    62  PHE62       0.2264
     44  O        -17.7380  -30.4290    4.3660 O.2    62  PHE62      -0.2867
     45  CB       -16.9800  -31.7010    7.2490 C.3    62  PHE62       0.0534
     46  CG       -17.2060  -30.2220    7.3420 C.ar   62  PHE62      -0.0203
     47  CD1      -18.4920  -29.7060    7.3820 C.ar   62  PHE62      -0.0042
     48  CD2      -16.1260  -29.3410    7.3510 C.ar   62  PHE62      -0.0042
     49  CE1      -18.6980  -28.3430    7.4480 C.ar   62  PHE62      -0.0003
     50  CE2      -16.3220  -27.9690    7.4130 C.ar   62  PHE62      -0.0003
     51  CZ       -17.6080  -27.4680    7.4630 C.ar   62  PHE62      -0.0000
     52  N        -34.2150  -25.7960    0.5150 N.3   103  ILE103     -0.1245
     53  CA       -33.2690  -25.0000    1.2830 C.3   103  ILE103      0.1561
     54  C        -33.1750  -23.5490    0.7800 C.2   103  ILE103      0.2260
     55  O        -33.1700  -22.6080    1.5780 O.2   103  ILE103     -0.2867
     56  CB       -31.8770  -25.6380    1.2590 C.3   103  ILE103      0.0252
     57  CG1      -31.9060  -26.9770    2.0030 C.3   103  ILE103      0.0019
     58  CG2      -30.8430  -24.6950    1.8630 C.3   103  ILE103      0.0019
     59  CD1      -30.6770  -27.8260    1.7970 C.3   103  ILE103      0.0001
     60  N        -34.8240  -20.7740    3.0550 N.3   107  GLY107     -0.1225
     61  CA       -33.7270  -19.9210    3.4740 C.3   107  GLY107      0.1811
     62  C        -33.9910  -18.4620    3.1500 C.2   107  GLY107      0.2280
     63  O        -33.7280  -17.5820    3.9760 O.2   107  GLY107     -0.2866
     64  N        -36.5610  -17.1610    5.3720 N.3   110  GLY110     -0.1210
     65  CA       -35.9250  -17.1120    6.6700 C.3   110  GLY110      0.1956
     66  C        -35.1330  -15.8300    6.8290 C.2   110  GLY110      0.2611
     67  O        -35.1240  -15.2450    7.8930 O.2   110  GLY110     -0.2717
     68  N        -34.4350  -15.4150    5.7750 N.am  111  LEU111     -0.1979
     69  CA       -33.6800  -14.1690    5.8050 C.3   111  LEU111      0.1596
     70  C        -34.6370  -12.9990    5.9520 C.2   111  LEU111      0.2287
     71  O        -34.4030  -12.0860    6.7600 O.2   111  LEU111     -0.2864
     72  CB       -32.8300  -14.0190    4.5350 C.3   111  LEU111      0.0297
     73  CG       -31.6130  -14.9400    4.4790 C.3   111  LEU111      0.0022
     74  CD1      -30.9520  -14.9380    3.1020 C.3   111  LEU111      0.0001
     75  CD2      -30.6230  -14.5130    5.5390 C.3   111  LEU111      0.0001
     76  N        -35.6360  -12.8600    9.4250 N.3   114  PHE114     -0.1241
     77  CA       -34.6160  -12.3880   10.3440 C.3   114  PHE114      0.1605
     78  C        -34.5680  -10.8730   10.3210 C.2   114  PHE114      0.2264
     79  O        -34.5110  -10.2150   11.3830 O.2   114  PHE114     -0.2867
     80  CB       -33.2420  -12.9660   10.0170 C.3   114  PHE114      0.0534
     81  CG       -32.2110  -12.6920   11.0760 C.ar  114  PHE114     -0.0203
     82  CD1      -31.3880  -11.5770   10.9940 C.ar  114  PHE114     -0.0042
     83  CD2      -32.0880  -13.5320   12.1820 C.ar  114  PHE114     -0.0042
     84  CE1      -30.4460  -11.3110   11.9860 C.ar  114  PHE114     -0.0003
     85  CE2      -31.1460  -13.2720   13.1740 C.ar  114  PHE114     -0.0003
     86  CZ       -30.3210  -12.1530   13.0660 C.ar  114  PHE114     -0.0000
     87  N        -35.1800   -8.0860   13.2610 N.3   118  GLN118     -0.1245
     88  CA       -34.3380   -6.9450   13.5750 C.3   118  GLN118      0.1566
     89  C        -35.1940   -5.6820   13.6720 C.2   118  GLN118      0.2260
     90  O        -35.0500   -4.8830   14.6150 O.2   118  GLN118     -0.2867
     91  CB       -33.2480   -6.7720   12.5270 C.3   118  GLN118      0.0367
     92  CG       -32.1160   -7.7920   12.5660 C.3   118  GLN118      0.0905
     93  CD       -31.2770   -7.7330   11.2830 C.2   118  GLN118      0.2608
     94  OE1      -31.8250   -7.6770   10.1800 O.2   118  GLN118     -0.2717
     95  NE2      -29.9560   -7.7150   11.4260 N.am  118  GLN118     -0.0878
     96  N        -29.2610   -1.8820   12.2590 N.3   131  ASN131     -0.1240
     97  CA       -28.7960   -3.2500   12.1680 C.3   131  ASN131      0.1653
     98  C        -29.4980   -3.9910   11.0220 C.2   131  ASN131      0.2266
     99  O        -28.8480   -4.6950   10.2460 O.2   131  ASN131     -0.2867
    100  CB       -28.9500   -3.9790   13.5140 C.3   131  ASN131      0.1155
    101  CG       -28.4390   -5.4030   13.4600 C.2   131  ASN131      0.2627
    102  OD1      -29.1660   -6.3420   13.7770 O.2   131  ASN131     -0.2716
    103  ND2      -27.1990   -5.5760   13.0120 N.am  131  ASN131     -0.0877
    104  N        -28.1870   -2.6510    7.7870 N.3   134  ALA134     -0.1231
    105  CA       -26.8940   -3.2550    7.5040 C.3   134  ALA134      0.1694
    106  C        -27.1020   -4.6630    6.9680 C.2   134  ALA134      0.2592
    107  O        -26.3340   -5.1470    6.1350 O.2   134  ALA134     -0.2718
    108  CB       -26.0360   -3.2950    8.7650 C.3   134  ALA134      0.0304
    109  N        -28.1580   -5.3170    7.4470 N.am  135  PHE135     -0.1976
    110  CA       -28.4450   -6.6880    7.0300 C.3   135  PHE135      0.1639
    111  C        -29.0250   -6.8010    5.6040 C.2   135  PHE135      0.2290
    112  O        -29.0510   -7.8940    5.0170 O.2   135  PHE135     -0.2864
    113  CB       -29.3670   -7.3610    8.0400 C.3   135  PHE135      0.0560
    114  CG       -29.4500   -8.8380    7.8750 C.ar  135  PHE135     -0.0200
    115  CD1      -28.3470   -9.6330    8.1320 C.ar  135  PHE135     -0.0042
    116  CD2      -30.6320   -9.4420    7.4850 C.ar  135  PHE135     -0.0042
    117  CE1      -28.4210  -11.0050    7.9940 C.ar  135  PHE135     -0.0003
    118  CE2      -30.7120  -10.8190    7.3460 C.ar  135  PHE135     -0.0003
    119  CZ       -29.6090  -11.5990    7.6090 C.ar  135  PHE135     -0.0000
    120  N        -27.4760   -6.1110    3.0850 N.3   137  ALA137     -0.1231
    121  CA       -26.3640   -6.5240    2.2170 C.3   137  ALA137      0.1679
    122  C        -26.1880   -8.0440    2.1480 C.2   137  ALA137      0.2434
    123  O        -26.0160   -8.5980    1.0700 O.2   137  ALA137     -0.2733
    124  CB       -25.0530   -5.8190    2.6010 C.3   137  ALA137      0.0304
    125  N        -26.1950   -8.7230    3.3080 N.am  138  PRO138     -0.2729
    126  CA       -26.2270  -10.1790    3.2090 C.3   138  PRO138      0.1401
    127  C        -27.4100  -10.6820    2.3850 C.2   138  PRO138      0.2269
    128  O        -27.2640  -11.6920    1.7010 O.2   138  PRO138     -0.2865
    129  CB       -26.3740  -10.6100    4.6750 C.3   138  PRO138      0.0296
    130  CG       -25.6820   -9.5610    5.4240 C.3   138  PRO138      0.0237
    131  CD       -25.9740   -8.2880    4.6990 C.3   138  PRO138      0.0939
    132  N        -27.2050  -13.0130   -1.0620 N.3   142  PHE142     -0.1241
    133  CA       -27.8810  -14.3030   -1.1720 C.3   142  PHE142      0.1605
    134  C        -28.8640  -14.3490   -2.3410 C.2   142  PHE142      0.2264
    135  O        -28.9060  -15.3250   -3.0910 O.2   142  PHE142     -0.2867
    136  CB       -28.6140  -14.6820    0.1010 C.3   142  PHE142      0.0534
    137  CG       -29.3750  -15.9620   -0.0250 C.ar  142  PHE142     -0.0203
    138  CD1      -30.7220  -15.9570   -0.3670 C.ar  142  PHE142     -0.0042
    139  CD2      -28.7370  -17.1750    0.1620 C.ar  142  PHE142     -0.0042
    140  CE1      -31.4240  -17.1360   -0.5010 C.ar  142  PHE142     -0.0003
    141  CE2      -29.4290  -18.3690    0.0200 C.ar  142  PHE142     -0.0003
    142  CZ       -30.7790  -18.3490   -0.3090 C.ar  142  PHE142     -0.0000
    143  N        -27.9060  -16.8760   -5.3640 N.3   146  PHE146     -0.1241
    144  CA       -28.6180  -18.1430   -5.3030 C.3   146  PHE146      0.1605
    145  C        -29.9090  -18.1240   -6.0960 C.2   146  PHE146      0.2264
    146  O        -30.4390  -19.1720   -6.4550 O.2   146  PHE146     -0.2867
    147  CB       -28.9040  -18.5550   -3.8500 C.3   146  PHE146      0.0534
    148  CG       -27.6780  -18.9180   -3.0800 C.ar  146  PHE146     -0.0203
    149  CD1      -26.9110  -17.9420   -2.4740 C.ar  146  PHE146     -0.0042
    150  CD2      -27.2680  -20.2320   -2.9950 C.ar  146  PHE146     -0.0042
    151  CE1      -25.7680  -18.2730   -1.7690 C.ar  146  PHE146     -0.0003
    152  CE2      -26.1260  -20.5730   -2.2940 C.ar  146  PHE146     -0.0003
    153  CZ       -25.3730  -19.5870   -1.6840 C.ar  146  PHE146     -0.0000
    154  N        -24.8730  -26.1540   -2.0720 N.3   162  PHE162     -0.1227
    155  CA       -24.6620  -25.8680   -0.6620 C.3   162  PHE162      0.1736
    156  C        -23.6430  -26.8390   -0.0750 C.2   162  PHE162      0.2596
    157  O        -24.0030  -27.8570    0.5280 O.2   162  PHE162     -0.2718
    158  CB       -25.9800  -25.9830    0.1010 C.3   162  PHE162      0.0547
    159  CG       -27.0070  -24.9570   -0.2850 C.ar  162  PHE162     -0.0202
    160  CD1      -26.9060  -23.6440    0.1650 C.ar  162  PHE162     -0.0042
    161  CD2      -28.1010  -25.3080   -1.0590 C.ar  162  PHE162     -0.0042
    162  CE1      -27.8620  -22.6980   -0.1750 C.ar  162  PHE162     -0.0003
    163  CE2      -29.0680  -24.3660   -1.4040 C.ar  162  PHE162     -0.0003
    164  CZ       -28.9430  -23.0590   -0.9680 C.ar  162  PHE162     -0.0000
    165  N        -22.3670  -26.5230   -0.2490 N.am  163  GLY163     -0.1942
    166  CA       -21.3000  -27.3520    0.2800 C.3   163  GLY163      0.2014
    167  C        -19.9930  -26.6000    0.2080 C.2   163  GLY163      0.2638
    168  O        -19.8750  -25.6490   -0.5530 O.2   163  GLY163     -0.2714
    169  N        -19.0170  -27.0060    1.0020 N.am  164  VAL164     -0.1977
    170  CA       -17.7390  -26.3100    1.0500 C.3   164  VAL164      0.1596
    171  C        -16.9950  -26.3580   -0.2850 C.2   164  VAL164      0.2287
    172  O        -16.7420  -25.3140   -0.9320 O.2   164  VAL164     -0.2864
    173  CB       -16.8770  -26.8340    2.2240 C.3   164  VAL164      0.0276
    174  CG1      -15.4450  -26.3520    2.1100 C.3   164  VAL164      0.0022
    175  CG2      -17.5010  -26.4130    3.5360 C.3   164  VAL164      0.0022
    176  N        -18.9030  -24.7840   -3.1700 N.3   167  ILE167     -0.1245
    177  CA       -18.6770  -23.3430   -3.2320 C.3   167  ILE167      0.1561
    178  C        -17.3130  -23.0540   -3.8760 C.2   167  ILE167      0.2260
    179  O        -17.2020  -22.1700   -4.7720 O.2   167  ILE167     -0.2867
    180  CB       -18.7820  -22.6930   -1.8310 C.3   167  ILE167      0.0252
    181  CG1      -20.2440  -22.5720   -1.3770 C.3   167  ILE167      0.0019
    182  CG2      -18.1160  -21.3210   -1.8050 C.3   167  ILE167      0.0019
    183  CD1      -21.0430  -21.5860   -2.1410 C.3   167  ILE167      0.0001
    184  N        -14.9810   -5.6560    1.6250 N.3   193  VAL193     -0.1245
    185  CA       -14.7690   -6.7430    2.5720 C.3   193  VAL193      0.1561
    186  C        -13.4200   -6.6460    3.3110 C.2   193  VAL193      0.2260
    187  O        -13.3630   -6.7160    4.5510 O.2   193  VAL193     -0.2867
    188  CB       -14.9690   -8.1130    1.8910 C.3   193  VAL193      0.0252
    189  CG1      -14.3830   -9.2320    2.7180 C.3   193  VAL193      0.0019
    190  CG2      -16.4370   -8.3430    1.6540 C.3   193  VAL193      0.0019
    191  N        -18.3640   -2.2390    4.5090 N.3   264  PRO264     -0.2102
    192  CA       -18.6700   -3.6020    4.0450 C.3   264  PRO264      0.1504
    193  C        -20.0730   -3.7660    3.4760 C.2   264  PRO264      0.2575
    194  O        -20.2540   -4.5990    2.6000 O.2   264  PRO264     -0.2718
    195  CB       -18.5280   -4.4430    5.3150 C.3   264  PRO264      0.0282
    196  CG       -18.8240   -3.5010    6.4050 C.3   264  PRO264      0.0208
    197  CD       -18.2660   -2.1820    5.9740 C.3   264  PRO264      0.0893
    198  N        -21.0360   -2.9880    3.9540 N.am  265  VAL265     -0.1980
    199  CA       -22.3840   -3.0420    3.4050 C.3   265  VAL265      0.1595
    200  C        -22.3900   -2.6280    1.9250 C.2   265  VAL265      0.2287
    201  O        -23.0150   -3.2760    1.0810 O.2   265  VAL265     -0.2864
    202  CB       -23.3420   -2.1330    4.2040 C.3   265  VAL265      0.0276
    203  CG1      -24.6590   -1.9230    3.4500 C.3   265  VAL265      0.0022
    204  CG2      -23.5900   -2.7170    5.5950 C.3   265  VAL265      0.0022
    205  N        -20.5780   -5.2850   -0.3430 N.3   268  LEU268     -0.1245
    206  CA       -21.4060   -6.4390   -0.6550 C.3   268  LEU268      0.1561
    207  C        -22.4510   -6.0610   -1.6980 C.2   268  LEU268      0.2260
    208  O        -22.7140   -6.8230   -2.6250 O.2   268  LEU268     -0.2867
    209  CB       -22.0690   -7.0170    0.5990 C.3   268  LEU268      0.0270
    210  CG       -21.3680   -8.2630    1.1330 C.3   268  LEU268      0.0019
    211  CD1      -19.9570   -7.9070    1.5700 C.3   268  LEU268      0.0001
    212  CD2      -22.1450   -8.9170    2.2760 C.3   268  LEU268      0.0001
@<TRIPOS>BOND
     1   146   145    2
     2   145   144    1
     3   143   144    1
     4   144   147    1
     5   179   178    2
     6   178   177    1
     7   147   148    1
     8   177   176    1
     9   177   180    1
    10   135   134    2
    11   148   150   ar
    12   148   149   ar
    13   150   152   ar
    14   208   207    2
    15   149   151   ar
    16   134   133    1
    17   152   153   ar
    18   183   181    1
    19   154   155    1
    20   180   182    1
    21   180   181    1
    22   151   153   ar
    23   207   206    1
    24   163   161   ar
    25   163   164   ar
    26   133   132    1
    27   133   136    1
    28   161   159   ar
    29   164   162   ar
    30   172   171    2
    31   155   156    1
    32   155   158    1
    33   206   205    1
    34   206   209    1
    35   168   167    2
    36   140   138   ar
    37   140   142   ar
    38   138   137   ar
    39   142   141   ar
    40   171   170    1
    41   159   158    1
    42   159   160   ar
    43   165   156   am
    44   165   166    1
    45   162   160   ar
    46   156   157    2
    47   137   136    1
    48   137   139   ar
    49   141   139   ar
    50   167   166    1
    51   167   169   am
    52    52    53    1
    53   209   210    1
    54    54    53    1
    55    54    55    2
    56   169   170    1
    57   170   173    1
    58   123   122    2
    59   201   200    2
    60   210   211    1
    61   210   212    1
    62    56    53    1
    63    56    58    1
    64    56    57    1
    65   184   185    1
    66   190   188    1
    67   128   127    2
    68    59    57    1
    69   188   185    1
    70   188   189    1
    71   200   199    1
    72   174   173    1
    73   122   121    1
    74   122   125   am
    75   121   124    1
    76   121   120    1
    77   173   175    1
    78   127   126    1
    79   185   186    1
    80   194   193    2
    81    60    61    1
    82    74    73    1
    83    62    61    1
    84    62    63    2
    85    35    33   ar
    86    35    36   ar
    87   126   125    1
    88   126   129    1
    89    33    32   ar
    90   125   131    1
    91   186   187    2
    92   199   198    1
    93   199   202    1
    94   203   202    1
    95   193   198   am
    96   193   192    1
    97   192   191    1
    98   192   195    1
    99   202   204    1
   100    44    43    2
   101    36    38   ar
   102    36    34   ar
   103    73    72    1
   104    73    75    1
   105   191   197    1
   106    32    31    1
   107    32    34   ar
   108    72    69    1
   109   129   130    1
   110   131   130    1
   111    28    31    1
   112    28    27    1
   113    28    29    1
   114    43    42    1
   115    38    40   ar
   116    30    29    2
   117   112   111    2
   118   195   196    1
   119    34    37   ar
   120    64    65    1
   121   111   110    1
   122    17    16    2
   123    41    42    1
   124    18    15    1
   125    68    69    1
   126    68    66   am
   127    69    70    1
   128    42    45    1
   129    15    16    1
   130    15    14    1
   131    70    71    2
   132   197   196    1
   133   107   106    2
   134    40    39   ar
   135    16    19   am
   136    65    66    1
   137    37    39   ar
   138    66    67    2
   139   106   109   am
   140   106   105    1
   141   110   109    1
   142   110   113    1
   143    45    46    1
   144    46    48   ar
   145    46    47   ar
   146   118   116   ar
   147   118   119   ar
   148    48    50   ar
   149    47    49   ar
   150    50    51   ar
   151    49    51   ar
   152   116   114   ar
   153   105   104    1
   154   105   108    1
   155   119   117   ar
   156    19    20    1
   157   114   113    1
   158   114   115   ar
   159   117   115   ar
   160    22    21    2
   161    20    21    1
   162    20    23    1
   163     9    10    1
   164    10    11    1
   165    10    13    1
   166    76    77    1
   167    12    11    2
   168    23    24    1
   169    25    24    1
   170    80    77    1
   171    80    81    1
   172    94    93    2
   173    99    98    2
   174    78    77    1
   175    78    79    2
   176    24    26    1
   177     1     2    1
   178     4     3    2
   179     2     3    1
   180     2     5    1
   181     7     6    1
   182    82    81   ar
   183    82    84   ar
   184    98    97    1
   185    81    83   ar
   186    93    95   am
   187    93    92    1
   188     5     6    1
   189    84    86   ar
   190     6     8    1
   191    97    96    1
   192    97   100    1
   193    83    85   ar
   194    91    92    1
   195    91    88    1
   196   103   101   am
   197    86    85   ar
   198    87    88    1
   199   101   100    1
   200   101   102    2
   201    88    89    1
   202    89    90    2
