@<TRIPOS>MOLECULE
tmp/5gthX05.pdb
 103 104 0 0 0
SMALL
GASTEIGER

@<TRIPOS>ATOM
      1  N        -10.9590   -2.2760    9.1920 N.3   199  LEU199     -0.1245
      2  CA       -11.5970   -1.3600   10.1350 C.3   199  LEU199      0.1561
      3  C        -11.8880   -2.0480   11.4580 C.2   199  LEU199      0.2260
      4  O        -11.7650   -1.4500   12.5390 O.2   199  LEU199     -0.2867
      5  CB       -12.8830   -0.7800    9.5490 C.3   199  LEU199      0.0270
      6  CG       -12.7040    0.3440    8.5300 C.3   199  LEU199      0.0019
      7  CD1      -14.0410    0.7070    7.9110 C.3   199  LEU199      0.0001
      8  CD2      -12.0350    1.5520    9.1800 C.3   199  LEU199      0.0001
      9  N         -0.3450   11.1680   13.5950 N.3   244  GLN244     -0.1231
     10  CA         1.1170   11.1740   13.4650 C.3   244  GLN244      0.1698
     11  C          1.7220    9.9690   12.7670 C.2   244  GLN244      0.2592
     12  O          2.8050   10.0560   12.1860 O.2   244  GLN244     -0.2718
     13  CB         1.7880   11.3460   14.8240 C.3   244  GLN244      0.0381
     14  CG         1.5840   12.7230   15.4100 C.3   244  GLN244      0.0905
     15  CD         2.3470   12.9190   16.6860 C.2   244  GLN244      0.2608
     16  OE1        1.9500   12.4160   17.7340 O.2   244  GLN244     -0.2717
     17  NE2        3.4770   13.6160   16.6010 N.am  244  GLN244     -0.0878
     18  N          1.0370    8.8390   12.8420 N.am  245  ILE245     -0.1966
     19  CA         1.5110    7.6430   12.1720 C.3   245  ILE245      0.1727
     20  C          1.1140    7.6960   10.6970 C.2   245  ILE245      0.2616
     21  O          1.9330    7.4560    9.8110 O.2   245  ILE245     -0.2715
     22  CB         0.9190    6.3570   12.8280 C.3   245  ILE245      0.0290
     23  CG1        1.4930    6.1440   14.2460 C.3   245  ILE245      0.0022
     24  CG2        1.1000    5.1240   11.9070 C.3   245  ILE245      0.0023
     25  CD1        3.0090    5.9720   14.3140 C.3   245  ILE245      0.0001
     26  N         -0.1380    8.0700   10.4530 N.am  246  PHE246     -0.1960
     27  CA        -0.7780    7.8240    9.1790 C.3   246  PHE246      0.1771
     28  C         -1.2280    9.0930    8.4600 C.2   246  PHE246      0.2620
     29  O         -1.7560    9.0190    7.3480 O.2   246  PHE246     -0.2715
     30  CB        -1.9730    6.8970    9.3900 C.3   246  PHE246      0.0574
     31  CG        -2.5880    6.3970    8.1150 C.ar  246  PHE246     -0.0200
     32  CD1       -1.8730    5.5600    7.2710 C.ar  246  PHE246     -0.0042
     33  CD2       -3.8730    6.7650    7.7560 C.ar  246  PHE246     -0.0042
     34  CE1       -2.4260    5.0930    6.1010 C.ar  246  PHE246     -0.0003
     35  CE2       -4.4340    6.2940    6.5840 C.ar  246  PHE246     -0.0003
     36  CZ        -3.7050    5.4550    5.7570 C.ar  246  PHE246     -0.0000
     37  N         -1.0340   10.2470    9.0980 N.am  247  GLY247     -0.1940
     38  CA        -1.3430   11.5220    8.4840 C.3   247  GLY247      0.2014
     39  C         -2.7280   12.0310    8.7990 C.2   247  GLY247      0.2639
     40  O         -2.9430   13.2260    8.9900 O.2   247  GLY247     -0.2714
     41  N         -3.6940   11.1270    8.7930 N.am  248  ILE248     -0.1963
     42  CA        -5.0580   11.5010    9.1260 C.3   248  ILE248      0.1727
     43  C         -5.6180   10.5420   10.1620 C.2   248  ILE248      0.2616
     44  O         -5.0550    9.4620   10.3970 O.2   248  ILE248     -0.2715
     45  CB        -5.9730   11.5580    7.8630 C.3   248  ILE248      0.0290
     46  CG1       -5.9510   10.2450    7.0980 C.3   248  ILE248      0.0022
     47  CG2       -5.5700   12.6960    6.9380 C.3   248  ILE248      0.0023
     48  CD1       -7.2620    9.5290    7.1460 C.3   248  ILE248      0.0001
     49  N         -6.7190   10.9520   10.7880 N.am  249  ALA249     -0.1963
     50  CA        -7.3470   10.1860   11.8580 C.3   249  ALA249      0.1728
     51  C         -8.8310   10.5540   11.9570 C.2   249  ALA249      0.2616
     52  O         -9.2370   11.6520   11.5670 O.2   249  ALA249     -0.2715
     53  CB        -6.6380   10.4660   13.1840 C.3   249  ALA249      0.0334
     54  N         -9.6410    9.6330   12.4720 N.am  250  PHE250     -0.1960
     55  CA       -10.9990    9.9800   12.8720 C.3   250  PHE250      0.1771
     56  C        -10.9070   10.9510   14.0440 C.2   250  PHE250      0.2620
     57  O         -9.9670   10.8930   14.8390 O.2   250  PHE250     -0.2715
     58  CB       -11.7860    8.7440   13.3310 C.3   250  PHE250      0.0574
     59  CG       -12.1880    7.8230   12.2230 C.ar  250  PHE250     -0.0200
     60  CD1      -13.2780    8.1280   11.4030 C.ar  250  PHE250     -0.0042
     61  CD2      -11.4940    6.6360   12.0070 C.ar  250  PHE250     -0.0042
     62  CE1      -13.6670    7.2720   10.3780 C.ar  250  PHE250     -0.0003
     63  CE2      -11.8660    5.7840   10.9730 C.ar  250  PHE250     -0.0003
     64  CZ       -12.9600    6.1040   10.1570 C.ar  250  PHE250     -0.0000
     65  N        -11.8850   11.8430   14.1490 N.am  251  SER251     -0.1936
     66  CA       -12.0340   12.6830   15.3280 C.3   251  SER251      0.2055
     67  C        -13.4720   12.6330   15.7940 C.2   251  SER251      0.2643
     68  O        -13.8000   13.1010   16.8790 O.2   251  SER251     -0.2714
     69  CB       -11.6250   14.1140   15.0310 C.3   251  SER251      0.2130
     70  OG       -12.4730   14.6640   14.0420 O.3   251  SER251     -0.2179
     71  N        -14.3430   12.0940   14.9510 N.am  252  ASN252     -0.1971
     72  CA       -15.7490   11.9610   15.3040 C.3   252  ASN252      0.1688
     73  C        -16.1400   10.4950   15.4980 C.2   252  ASN252      0.2292
     74  O        -16.0450    9.6980   14.5540 O.2   252  ASN252     -0.2864
     75  CB       -16.6220   12.6200   14.2240 C.3   252  ASN252      0.1181
     76  CG       -18.0980   12.6270   14.5940 C.2   252  ASN252      0.2629
     77  OD1      -18.7010   11.5780   14.8410 O.2   252  ASN252     -0.2716
     78  ND2      -18.6850   13.8160   14.6480 N.am  252  ASN252     -0.0877
     79  N        -19.2330    9.2760   13.3290 N.3   255  TRP255     -0.1241
     80  CA       -18.7940    9.0820   11.9610 C.3   255  TRP255      0.1605
     81  C        -17.9640    7.8030   11.8270 C.2   255  TRP255      0.2264
     82  O        -18.1460    7.0370   10.8910 O.2   255  TRP255     -0.2867
     83  CB       -18.0170   10.3110   11.4510 C.3   255  TRP255      0.0550
     84  CG       -17.2620   10.0530   10.1810 C.ar  255  TRP255      0.0003
     85  CD1      -15.9120   10.0380   10.0230 C.ar  255  TRP255      0.0946
     86  CD2      -17.8170    9.7120    8.9060 C.ar  255  TRP255      0.0152
     87  NE1      -15.5880    9.7350    8.7220 N.ar  255  TRP255     -0.2442
     88  CE2      -16.7420    9.5330    8.0170 C.ar  255  TRP255      0.0810
     89  CE3      -19.1200    9.5640    8.4260 C.ar  255  TRP255      0.0012
     90  CZ2      -16.9280    9.2120    6.6750 C.ar  255  TRP255      0.0191
     91  CZ3      -19.3050    9.2450    7.1000 C.ar  255  TRP255      0.0001
     92  CH2      -18.2160    9.0700    6.2380 C.ar  255  TRP255      0.0015
     93  N        -19.1420    4.7340    9.4860 N.3   259  PHE259     -0.1241
     94  CA       -18.2490    4.3890    8.3980 C.3   259  PHE259      0.1605
     95  C        -18.0070    2.8880    8.4620 C.2   259  PHE259      0.2264
     96  O        -17.9580    2.1960    7.4310 O.2   259  PHE259     -0.2867
     97  CB       -16.9400    5.1580    8.5490 C.3   259  PHE259      0.0534
     98  CG       -16.0390    5.0680    7.3550 C.ar  259  PHE259     -0.0203
     99  CD1      -16.4400    5.5760    6.1270 C.ar  259  PHE259     -0.0042
    100  CD2      -14.7870    4.4660    7.4570 C.ar  259  PHE259     -0.0042
    101  CE1      -15.6110    5.4880    5.0190 C.ar  259  PHE259     -0.0003
    102  CE2      -13.9530    4.3870    6.3500 C.ar  259  PHE259     -0.0003
    103  CZ       -14.3660    4.9020    5.1270 C.ar  259  PHE259     -0.0000
@<TRIPOS>BOND
     1   101   103   ar
     2   101    99   ar
     3   103   102   ar
     4    36    34   ar
     5    36    35   ar
     6    34    32   ar
     7    99    98   ar
     8    92    90   ar
     9    92    91   ar
    10   102   100   ar
    11    35    33   ar
    12    90    88   ar
    13    47    45    1
    14    46    48    1
    15    46    45    1
    16    91    89   ar
    17    32    31   ar
    18    29    28    2
    19    98   100   ar
    20    98    97    1
    21    96    95    2
    22    33    31   ar
    23    45    42    1
    24     7     6    1
    25    88    87   ar
    26    88    86   ar
    27    31    30    1
    28    94    95    1
    29    94    97    1
    30    94    93    1
    31    89    86   ar
    32    28    37   am
    33    28    27    1
    34    38    39    1
    35    38    37    1
    36     6     8    1
    37     6     5    1
    38    87    85   ar
    39    41    39   am
    40    41    42    1
    41    39    40    2
    42    86    84   ar
    43    42    43    1
    44    27    30    1
    45    27    26    1
    46     1     2    1
    47     5     2    1
    48    21    20    2
    49    85    84   ar
    50     2     3    1
    51    64    62   ar
    52    64    63   ar
    53    43    44    2
    54    43    49   am
    55    84    83    1
    56    62    60   ar
    57    26    20   am
    58    20    19    1
    59    49    50    1
    60    82    81    2
    61    63    61   ar
    62    60    59   ar
    63    83    80    1
    64     3     4    2
    65    52    51    2
    66    81    80    1
    67    50    51    1
    68    50    53    1
    69    24    22    1
    70    51    54   am
    71    80    79    1
    72    61    59   ar
    73    19    22    1
    74    19    18    1
    75    12    11    2
    76    59    58    1
    77    54    55    1
    78    11    18   am
    79    11    10    1
    80    22    23    1
    81    55    58    1
    82    55    56    1
    83    10     9    1
    84    10    13    1
    85    70    69    1
    86    56    65   am
    87    56    57    2
    88    65    66    1
    89    75    76    1
    90    75    72    1
    91    23    25    1
    92    74    73    2
    93    76    78   am
    94    76    77    2
    95    13    14    1
    96    71    72    1
    97    71    67   am
    98    69    66    1
    99    72    73    1
   100    66    67    1
   101    14    15    1
   102    67    68    2
   103    17    15   am
   104    15    16    2
