@<TRIPOS>MOLECULE
tmp/5gthX15.pdb
 140 139 0 0 0
SMALL
GASTEIGER

@<TRIPOS>ATOM
      1  N        -31.9770  -25.1750    7.7350 N.3    34  LEU34      -0.1245
      2  CA       -30.8020  -25.7590    8.3620 C.3    34  LEU34       0.1561
      3  C        -30.9030  -27.2800    8.4130 C.2    34  LEU34       0.2260
      4  O        -29.9250  -27.9860    8.1730 O.2    34  LEU34      -0.2867
      5  CB       -30.6370  -25.2080    9.7680 C.3    34  LEU34       0.0270
      6  CG       -29.3700  -25.6620   10.4970 C.3    34  LEU34       0.0019
      7  CD1      -28.1260  -24.9760    9.9430 C.3    34  LEU34       0.0001
      8  CD2      -29.5000  -25.4480   11.9980 C.3    34  LEU34       0.0001
      9  N        -30.2750  -28.8720    5.0260 N.3    37  TRP37      -0.1241
     10  CA       -28.8550  -28.9630    4.7080 C.3    37  TRP37       0.1605
     11  C        -28.1780  -30.0970    5.4790 C.2    37  TRP37       0.2264
     12  O        -27.2970  -30.7660    4.9610 O.2    37  TRP37      -0.2867
     13  CB       -28.1300  -27.6310    4.9730 C.3    37  TRP37       0.0550
     14  CG       -26.7100  -27.6910    4.5180 C.ar   37  TRP37       0.0003
     15  CD1      -26.2690  -27.6850    3.2280 C.ar   37  TRP37       0.0946
     16  CD2      -25.5390  -27.7920    5.3390 C.ar   37  TRP37       0.0152
     17  NE1      -24.9000  -27.7760    3.1920 N.ar   37  TRP37      -0.2442
     18  CE2      -24.4260  -27.8510    4.4720 C.ar   37  TRP37       0.0810
     19  CE3      -25.3210  -27.8450    6.7190 C.ar   37  TRP37       0.0012
     20  CZ2      -23.1170  -27.9510    4.9390 C.ar   37  TRP37       0.0191
     21  CZ3      -24.0210  -27.9560    7.1800 C.ar   37  TRP37       0.0001
     22  CH2      -22.9350  -28.0030    6.2920 C.ar   37  TRP37       0.0015
     23  N        -16.6730  -33.5890    5.6970 N.3    62  PHE62      -0.1227
     24  CA       -17.2950  -32.2770    5.8650 C.3    62  PHE62       0.1736
     25  C        -16.9250  -31.2770    4.7510 C.2    62  PHE62       0.2595
     26  O        -17.7380  -30.4290    4.3660 O.2    62  PHE62      -0.2718
     27  CB       -16.9800  -31.7010    7.2490 C.3    62  PHE62       0.0547
     28  CG       -17.2060  -30.2220    7.3420 C.ar   62  PHE62      -0.0202
     29  CD1      -18.4920  -29.7060    7.3820 C.ar   62  PHE62      -0.0042
     30  CD2      -16.1260  -29.3410    7.3510 C.ar   62  PHE62      -0.0042
     31  CE1      -18.6980  -28.3430    7.4480 C.ar   62  PHE62      -0.0003
     32  CE2      -16.3220  -27.9690    7.4130 C.ar   62  PHE62      -0.0003
     33  CZ       -17.6080  -27.4680    7.4630 C.ar   62  PHE62      -0.0000
     34  N        -15.7060  -31.3800    4.2260 N.am   63  LEU63      -0.1980
     35  CA       -15.3060  -30.5140    3.1180 C.3    63  LEU63       0.1596
     36  C        -16.0140  -30.8690    1.8230 C.2    63  LEU63       0.2287
     37  O        -16.2610  -30.0010    0.9930 O.2    63  LEU63      -0.2864
     38  CB       -13.7850  -30.5230    2.9050 C.3    63  LEU63       0.0297
     39  CG       -12.9610  -30.0160    4.0960 C.3    63  LEU63       0.0022
     40  CD1      -11.4770  -29.9870    3.7660 C.3    63  LEU63       0.0001
     41  CD2      -13.4470  -28.6500    4.5570 C.3    63  LEU63       0.0001
     42  N        -26.6330  -10.2410   -1.4480 N.3   141  VAL141     -0.1231
     43  CA       -25.7140  -11.2740   -1.9040 C.3   141  VAL141      0.1692
     44  C        -26.4390  -12.6020   -2.0680 C.2   141  VAL141      0.2592
     45  O        -26.3190  -13.2520   -3.1000 O.2   141  VAL141     -0.2718
     46  CB       -24.5010  -11.4330   -0.9550 C.3   141  VAL141      0.0266
     47  CG1      -23.7020  -12.6950   -1.2880 C.3   141  VAL141      0.0020
     48  CG2      -23.6170  -10.2020   -1.0270 C.3   141  VAL141      0.0020
     49  N        -27.2050  -13.0130   -1.0620 N.am  142  PHE142     -0.1976
     50  CA       -27.8810  -14.3030   -1.1720 C.3   142  PHE142      0.1639
     51  C        -28.8640  -14.3490   -2.3410 C.2   142  PHE142      0.2290
     52  O        -28.9060  -15.3250   -3.0910 O.2   142  PHE142     -0.2864
     53  CB       -28.6140  -14.6820    0.1010 C.3   142  PHE142      0.0560
     54  CG       -29.3750  -15.9620   -0.0250 C.ar  142  PHE142     -0.0200
     55  CD1      -30.7220  -15.9570   -0.3670 C.ar  142  PHE142     -0.0042
     56  CD2      -28.7370  -17.1750    0.1620 C.ar  142  PHE142     -0.0042
     57  CE1      -31.4240  -17.1360   -0.5010 C.ar  142  PHE142     -0.0003
     58  CE2      -29.4290  -18.3690    0.0200 C.ar  142  PHE142     -0.0003
     59  CZ       -30.7790  -18.3490   -0.3090 C.ar  142  PHE142     -0.0000
     60  N        -26.9910  -14.1650   -5.9160 N.3   145  VAL145     -0.1231
     61  CA       -26.1960  -15.3510   -6.2270 C.3   145  VAL145      0.1692
     62  C        -26.9760  -16.6710   -6.2850 C.2   145  VAL145      0.2592
     63  O        -26.7340  -17.4940   -7.1710 O.2   145  VAL145     -0.2718
     64  CB       -25.0220  -15.5200   -5.2350 C.3   145  VAL145      0.0266
     65  CG1      -24.2510  -16.8110   -5.5240 C.3   145  VAL145      0.0020
     66  CG2      -24.0970  -14.3190   -5.3080 C.3   145  VAL145      0.0020
     67  N        -27.9060  -16.8760   -5.3640 N.am  146  PHE146     -0.1976
     68  CA       -28.6180  -18.1430   -5.3030 C.3   146  PHE146      0.1639
     69  C        -29.9090  -18.1240   -6.0960 C.2   146  PHE146      0.2290
     70  O        -30.4390  -19.1720   -6.4550 O.2   146  PHE146     -0.2864
     71  CB       -28.9040  -18.5550   -3.8500 C.3   146  PHE146      0.0560
     72  CG       -27.6780  -18.9180   -3.0800 C.ar  146  PHE146     -0.0200
     73  CD1      -26.9110  -17.9420   -2.4740 C.ar  146  PHE146     -0.0042
     74  CD2      -27.2680  -20.2320   -2.9950 C.ar  146  PHE146     -0.0042
     75  CE1      -25.7680  -18.2730   -1.7690 C.ar  146  PHE146     -0.0003
     76  CE2      -26.1260  -20.5730   -2.2940 C.ar  146  PHE146     -0.0003
     77  CZ       -25.3730  -19.5870   -1.6840 C.ar  146  PHE146     -0.0000
     78  N        -25.0230  -21.8790   -6.9310 N.3   160  PRO160     -0.2116
     79  CA       -24.0390  -22.6010   -6.1170 C.3   160  PRO160      0.1372
     80  C        -24.7090  -23.7790   -5.4360 C.2   160  PRO160      0.2244
     81  O        -25.8760  -23.6730   -5.0360 O.2   160  PRO160     -0.2868
     82  CB       -23.6400  -21.5840   -5.0280 C.3   160  PRO160      0.0268
     83  CG       -24.3630  -20.3230   -5.3450 C.3   160  PRO160      0.0207
     84  CD       -25.5150  -20.6780   -6.2310 C.3   160  PRO160      0.0892
     85  N        -24.8730  -26.1540   -2.0720 N.3   162  PHE162     -0.1241
     86  CA       -24.6620  -25.8680   -0.6620 C.3   162  PHE162      0.1605
     87  C        -23.6430  -26.8390   -0.0750 C.2   162  PHE162      0.2264
     88  O        -24.0030  -27.8570    0.5280 O.2   162  PHE162     -0.2867
     89  CB       -25.9800  -25.9830    0.1010 C.3   162  PHE162      0.0534
     90  CG       -27.0070  -24.9570   -0.2850 C.ar  162  PHE162     -0.0203
     91  CD1      -26.9060  -23.6440    0.1650 C.ar  162  PHE162     -0.0042
     92  CD2      -28.1010  -25.3080   -1.0590 C.ar  162  PHE162     -0.0042
     93  CE1      -27.8620  -22.6980   -0.1750 C.ar  162  PHE162     -0.0003
     94  CE2      -29.0680  -24.3660   -1.4040 C.ar  162  PHE162     -0.0003
     95  CZ       -28.9430  -23.0590   -0.9680 C.ar  162  PHE162     -0.0000
     96  N        -19.0170  -27.0060    1.0020 N.3   164  VAL164     -0.1245
     97  CA       -17.7390  -26.3100    1.0500 C.3   164  VAL164      0.1561
     98  C        -16.9950  -26.3580   -0.2850 C.2   164  VAL164      0.2260
     99  O        -16.7420  -25.3140   -0.9320 O.2   164  VAL164     -0.2867
    100  CB       -16.8770  -26.8340    2.2240 C.3   164  VAL164      0.0252
    101  CG1      -15.4450  -26.3520    2.1100 C.3   164  VAL164      0.0019
    102  CG2      -17.5010  -26.4130    3.5360 C.3   164  VAL164      0.0019
    103  N        -18.9030  -24.7840   -3.1700 N.3   167  ILE167     -0.1231
    104  CA       -18.6770  -23.3430   -3.2320 C.3   167  ILE167      0.1692
    105  C        -17.3130  -23.0540   -3.8760 C.2   167  ILE167      0.2592
    106  O        -17.2020  -22.1700   -4.7720 O.2   167  ILE167     -0.2718
    107  CB       -18.7820  -22.6930   -1.8310 C.3   167  ILE167      0.0266
    108  CG1      -20.2440  -22.5720   -1.3770 C.3   167  ILE167      0.0019
    109  CG2      -18.1160  -21.3210   -1.8050 C.3   167  ILE167      0.0020
    110  CD1      -21.0430  -21.5860   -2.1410 C.3   167  ILE167      0.0001
    111  N        -16.2810  -23.8010   -3.4660 N.am  168  PHE168     -0.1976
    112  CA       -14.9770  -23.6340   -4.1410 C.3   168  PHE168      0.1639
    113  C        -15.0440  -23.8060   -5.6950 C.2   168  PHE168      0.2290
    114  O        -14.4700  -23.0010   -6.4880 O.2   168  PHE168     -0.2864
    115  CB       -13.9400  -24.5820   -3.5550 C.3   168  PHE168      0.0560
    116  CG       -13.6620  -24.3460   -2.1050 C.ar  168  PHE168     -0.0200
    117  CD1      -13.9610  -23.1370   -1.5210 C.ar  168  PHE168     -0.0042
    118  CD2      -13.0950  -25.3420   -1.3240 C.ar  168  PHE168     -0.0042
    119  CE1      -13.7160  -22.9260   -0.1810 C.ar  168  PHE168     -0.0003
    120  CE2      -12.8410  -25.1350    0.0120 C.ar  168  PHE168     -0.0003
    121  CZ       -13.1520  -23.9250    0.5830 C.ar  168  PHE168     -0.0000
    122  N        -17.6620  -23.3540   -7.4880 N.3   170  PHE170     -0.1227
    123  CA       -18.3780  -22.1740   -7.9770 C.3   170  PHE170      0.1736
    124  C        -17.4200  -21.0110   -8.2460 C.2   170  PHE170      0.2595
    125  O        -17.4980  -20.3640   -9.2860 O.2   170  PHE170     -0.2718
    126  CB       -19.4310  -21.7590   -6.9540 C.3   170  PHE170      0.0547
    127  CG       -20.4660  -20.7940   -7.4760 C.ar  170  PHE170     -0.0202
    128  CD1      -20.4080  -19.4400   -7.1430 C.ar  170  PHE170     -0.0042
    129  CD2      -21.5160  -21.2400   -8.2680 C.ar  170  PHE170     -0.0042
    130  CE1      -21.3660  -18.5550   -7.5950 C.ar  170  PHE170     -0.0003
    131  CE2      -22.4830  -20.3600   -8.7170 C.ar  170  PHE170     -0.0003
    132  CZ       -22.4120  -19.0200   -8.3750 C.ar  170  PHE170     -0.0000
    133  N        -16.5170  -20.7650   -7.2970 N.am  171  LEU171     -0.1980
    134  CA       -15.4710  -19.7420   -7.4410 C.3   171  LEU171      0.1596
    135  C        -14.6320  -19.9470   -8.7000 C.2   171  LEU171      0.2287
    136  O        -14.4580  -19.0230   -9.5230 O.2   171  LEU171     -0.2864
    137  CB       -14.5340  -19.7720   -6.2180 C.3   171  LEU171      0.0297
    138  CG       -15.0720  -19.5410   -4.8070 C.3   171  LEU171      0.0022
    139  CD1      -13.9810  -19.7020   -3.7490 C.3   171  LEU171      0.0001
    140  CD2      -15.6410  -18.1500   -4.7160 C.3   171  LEU171      0.0001
@<TRIPOS>BOND
     1   136   135    2
     2   125   124    2
     3   131   132   ar
     4   131   129   ar
     5   135   134    1
     6   132   130   ar
     7   129   127   ar
     8   124   123    1
     9   124   133   am
    10   123   122    1
    11   123   126    1
    12   130   128   ar
    13   127   128   ar
    14   127   126    1
    15   134   133    1
    16   134   137    1
    17    63    62    2
    18    78    84    1
    19    78    79    1
    20   114   113    2
    21    70    69    2
    22    62    61    1
    23    62    67   am
    24    84    83    1
    25    61    60    1
    26    61    64    1
    27   137   138    1
    28    79    80    1
    29    79    82    1
    30    69    68    1
    31   113   112    1
    32    65    64    1
    33    80    81    2
    34    67    68    1
    35    83    82    1
    36    66    64    1
    37    68    71    1
    38   138   140    1
    39   138   139    1
    40   106   105    2
    41   112   115    1
    42   112   111    1
    43   105   111   am
    44   105   104    1
    45    71    72    1
    46   115   116    1
    47   104   103    1
    48   104   107    1
    49    45    44    2
    50    52    51    2
    51    72    74   ar
    52    72    73   ar
    53    74    76   ar
    54    73    75   ar
    55    51    50    1
    56    76    77   ar
    57   110   108    1
    58   116   117   ar
    59   116   118   ar
    60    85    86    1
    61    44    43    1
    62    44    49   am
    63    43    42    1
    64    43    46    1
    65   107   109    1
    66   107   108    1
    67    75    77   ar
    68   117   119   ar
    69    94    92   ar
    70    94    95   ar
    71   118   120   ar
    72    47    46    1
    73    50    49    1
    74    50    53    1
    75    92    90   ar
    76    48    46    1
    77    95    93   ar
    78    99    98    2
    79    86    87    1
    80    86    89    1
    81    57    55   ar
    82    57    59   ar
    83    55    54   ar
    84    59    58   ar
    85    98    97    1
    86    90    89    1
    87    90    91   ar
    88   119   121   ar
    89    93    91   ar
    90    87    88    2
    91    54    53    1
    92    54    56   ar
    93   120   121   ar
    94    58    56   ar
    95    37    36    2
    96    96    97    1
    97    97   100    1
    98    36    35    1
    99   101   100    1
   100   100   102    1
   101    38    35    1
   102    38    39    1
   103    35    34    1
   104    17    15   ar
   105    17    18   ar
   106    15    14   ar
   107    40    39    1
   108    39    41    1
   109    34    25   am
   110    26    25    2
   111    18    20   ar
   112    18    16   ar
   113    14    13    1
   114    14    16   ar
   115    10    13    1
   116    10     9    1
   117    10    11    1
   118    25    24    1
   119    20    22   ar
   120    12    11    2
   121    16    19   ar
   122    23    24    1
   123    24    27    1
   124    22    21   ar
   125    19    21   ar
   126    27    28    1
   127    28    30   ar
   128    28    29   ar
   129    30    32   ar
   130    29    31   ar
   131    32    33   ar
   132    31    33   ar
   133     1     2    1
   134     4     3    2
   135     2     3    1
   136     2     5    1
   137     5     6    1
   138     7     6    1
   139     6     8    1
