@<TRIPOS>MOLECULE
tmp/5gthX01.pdb
 148 147 0 0 0
SMALL
GASTEIGER

@<TRIPOS>ATOM
      1  N        -42.8880  -16.1710   13.5790 N.3    24  ILE24      -0.1231
      2  CA       -43.7950  -17.0800   12.8910 C.3    24  ILE24       0.1692
      3  C        -43.2470  -17.3660   11.5020 C.2    24  ILE24       0.2591
      4  O        -43.3620  -18.4710   10.9830 O.2    24  ILE24      -0.2718
      5  CB       -45.2140  -16.4660   12.7870 C.3    24  ILE24       0.0266
      6  CG1      -45.8030  -16.2300   14.1810 C.3    24  ILE24       0.0019
      7  CG2      -46.1380  -17.3380   11.9700 C.3    24  ILE24       0.0020
      8  CD1      -47.1570  -15.5440   14.1640 C.3    24  ILE24       0.0001
      9  N        -42.6370  -16.3590   10.8960 N.am   25  LEU25      -0.1980
     10  CA       -42.0100  -16.5630    9.6040 C.3    25  LEU25       0.1596
     11  C        -40.5970  -17.1350    9.7770 C.2    25  LEU25       0.2287
     12  O        -40.2380  -18.1280    9.1510 O.2    25  LEU25      -0.2864
     13  CB       -41.9760  -15.2600    8.8040 C.3    25  LEU25       0.0297
     14  CG       -41.3170  -15.4300    7.4230 C.3    25  LEU25       0.0022
     15  CD1      -42.0660  -16.4640    6.5980 C.3    25  LEU25       0.0001
     16  CD2      -41.1920  -14.1140    6.6630 C.3    25  LEU25       0.0001
     17  N        -39.8320  -21.3830   11.6710 N.3    28  PRO28      -0.2102
     18  CA       -39.9570  -22.5860   10.8380 C.3    28  PRO28       0.1504
     19  C        -39.0320  -22.5750    9.6120 C.2    28  PRO28       0.2576
     20  O        -38.4350  -23.5990    9.3140 O.2    28  PRO28      -0.2718
     21  CB       -41.4320  -22.5790   10.4160 C.3    28  PRO28       0.0282
     22  CG       -41.9190  -21.2080   10.7030 C.3    28  PRO28       0.0208
     23  CD       -41.1290  -20.7150   11.8620 C.3    28  PRO28       0.0893
     24  N        -38.9060  -21.4470    8.9280 N.am   29  CYS29      -0.1971
     25  CA       -38.0870  -21.3850    7.7040 C.3    29  CYS29       0.1712
     26  C        -36.5950  -21.5720    7.9400 C.2    29  CYS29       0.2296
     27  O        -35.9250  -22.2490    7.1610 O.2    29  CYS29      -0.2864
     28  CB       -38.3210  -20.0750    6.9530 C.3    29  CYS29       0.0983
     29  SG       -39.9580  -19.9760    6.2570 S.3    29  CYS29      -0.0798
     30  N        -36.1530  -25.2960    8.9850 N.3    32  LEU32      -0.1245
     31  CA       -36.3000  -26.1610    7.8290 C.3    32  LEU32       0.1561
     32  C        -35.1020  -26.0140    6.9130 C.2    32  LEU32       0.2260
     33  O        -34.6470  -27.0000    6.3430 O.2    32  LEU32      -0.2867
     34  CB       -37.6070  -25.8870    7.0840 C.3    32  LEU32       0.0270
     35  CG       -38.8720  -26.2980    7.8410 C.3    32  LEU32       0.0019
     36  CD1      -40.1060  -26.2070    6.9630 C.3    32  LEU32       0.0001
     37  CD2      -38.7070  -27.6950    8.3620 C.3    32  LEU32       0.0001
     38  N        -39.7840  -25.0230   -9.5340 N.3    78  LEU78      -0.1231
     39  CA       -39.8280  -24.7790   -8.1020 C.3    78  LEU78       0.1693
     40  C        -39.4930  -26.0780   -7.3740 C.2    78  LEU78       0.2592
     41  O        -38.9820  -26.0620   -6.2520 O.2    78  LEU78      -0.2718
     42  CB       -41.2090  -24.2760   -7.6950 C.3    78  LEU78       0.0284
     43  CG       -41.5450  -22.8700   -8.1840 C.3    78  LEU78       0.0019
     44  CD1      -43.0160  -22.5730   -7.9970 C.3    78  LEU78       0.0001
     45  CD2      -40.6970  -21.8610   -7.4570 C.3    78  LEU78       0.0001
     46  N        -39.7970  -27.1980   -8.0360 N.am   79  LEU79      -0.1966
     47  CA       -39.5360  -28.5300   -7.5140 C.3    79  LEU79       0.1728
     48  C        -40.2660  -28.7950   -6.1960 C.2    79  LEU79       0.2616
     49  O        -39.6940  -29.3110   -5.2240 O.2    79  LEU79      -0.2715
     50  CB       -38.0340  -28.7820   -7.3990 C.3    79  LEU79       0.0311
     51  CG       -37.4320  -29.6050   -8.5330 C.3    79  LEU79       0.0022
     52  CD1      -35.9360  -29.6920   -8.3740 C.3    79  LEU79       0.0001
     53  CD2      -38.0340  -31.0100   -8.5130 C.3    79  LEU79       0.0001
     54  N        -41.5390  -28.4230   -6.1710 N.am   80  LEU80      -0.1963
     55  CA       -42.3960  -28.7150   -5.0320 C.3    80  LEU80       0.1728
     56  C        -42.5260  -30.2260   -4.8790 C.2    80  LEU80       0.2616
     57  O        -42.5750  -30.9480   -5.8740 O.2    80  LEU80      -0.2715
     58  CB       -43.7710  -28.0790   -5.2400 C.3    80  LEU80       0.0311
     59  CG       -43.7640  -26.5960   -5.6480 C.3    80  LEU80       0.0022
     60  CD1      -45.1850  -26.0470   -5.7560 C.3    80  LEU80       0.0001
     61  CD2      -42.9230  -25.7580   -4.6790 C.3    80  LEU80       0.0001
     62  N        -42.5730  -30.7020   -3.6360 N.am   81  LEU81      -0.1963
     63  CA       -42.7160  -32.1190   -3.3670 C.3    81  LEU81       0.1728
     64  C        -43.9690  -32.6400   -4.0500 C.2    81  LEU81       0.2616
     65  O        -43.9760  -33.7520   -4.5680 O.2    81  LEU81      -0.2715
     66  CB       -42.7570  -32.3980   -1.8560 C.3    81  LEU81       0.0311
     67  CG       -43.1070  -33.8420   -1.4360 C.3    81  LEU81       0.0022
     68  CD1      -42.0900  -34.8460   -1.9720 C.3    81  LEU81       0.0001
     69  CD2      -43.2550  -33.9930    0.0750 C.3    81  LEU81       0.0001
     70  N        -45.0220  -31.8300   -4.0630 N.am   82  TRP82      -0.1974
     71  CA       -46.2780  -32.2170   -4.7000 C.3    82  TRP82       0.1640
     72  C        -46.3610  -31.7500   -6.1510 C.2    82  TRP82       0.2290
     73  O        -47.4200  -31.8320   -6.7580 O.2    82  TRP82      -0.2864
     74  CB       -47.4640  -31.6410   -3.9310 C.3    82  TRP82       0.0576
     75  CG       -47.3690  -30.1670   -3.8140 C.ar   82  TRP82       0.0006
     76  CD1      -47.7930  -29.2460   -4.7220 C.ar   82  TRP82       0.0946
     77  CD2      -46.7730  -29.4350   -2.7450 C.ar   82  TRP82       0.0152
     78  NE1      -47.5200  -27.9840   -4.2770 N.ar   82  TRP82      -0.2442
     79  CE2      -46.8870  -28.0660   -3.0680 C.ar   82  TRP82       0.0810
     80  CE3      -46.1650  -29.8010   -1.5360 C.ar   82  TRP82       0.0012
     81  CZ2      -46.4110  -27.0520   -2.2280 C.ar   82  TRP82       0.0191
     82  CZ3      -45.6920  -28.7920   -0.6950 C.ar   82  TRP82       0.0001
     83  CH2      -45.8190  -27.4330   -1.0500 C.ar   82  TRP82       0.0015
     84  N        -38.0310  -37.1000   -5.0580 N.3    93  TRP93      -0.1241
     85  CA       -37.8250  -35.6830   -4.7960 C.3    93  TRP93       0.1605
     86  C        -36.3970  -35.4170   -4.3320 C.2    93  TRP93       0.2264
     87  O        -35.7360  -34.4960   -4.8180 O.2    93  TRP93      -0.2867
     88  CB       -38.8440  -35.2250   -3.7460 C.3    93  TRP93       0.0550
     89  CG       -38.8790  -33.7640   -3.4520 C.ar   93  TRP93       0.0003
     90  CD1      -39.2280  -32.7560   -4.3070 C.ar   93  TRP93       0.0946
     91  CD2      -38.6070  -33.1460   -2.1930 C.ar   93  TRP93       0.0152
     92  NE1      -39.1620  -31.5460   -3.6620 N.ar   93  TRP93      -0.2442
     93  CE2      -38.7830  -31.7570   -2.3630 C.ar   93  TRP93       0.0810
     94  CE3      -38.2130  -33.6300   -0.9400 C.ar   93  TRP93       0.0012
     95  CZ2      -38.5830  -30.8490   -1.3250 C.ar   93  TRP93       0.0191
     96  CZ3      -38.0170  -32.7290    0.0880 C.ar   93  TRP93       0.0001
     97  CH2      -38.2000  -31.3520   -0.1100 C.ar   93  TRP93       0.0015
     98  N        -34.6330  -31.9070   -5.0030 N.3    98  GLY98      -0.1225
     99  CA       -35.6730  -31.0740   -4.4080 C.3    98  GLY98       0.1811
    100  C        -35.2400  -30.3460   -3.1520 C.2    98  GLY98       0.2280
    101  O        -35.7190  -29.2300   -2.8490 O.2    98  GLY98      -0.2866
    102  N        -34.0030  -26.6040   -3.8300 N.3   101  THR101     -0.1203
    103  CA       -34.9660  -25.5110   -3.8990 C.3   101  THR101      0.1994
    104  C        -35.6470  -25.3300   -2.5490 C.2   101  THR101      0.2617
    105  O        -35.9610  -24.2030   -2.1730 O.2   101  THR101     -0.2717
    106  CB       -36.0310  -25.6850   -5.0150 C.3   101  THR101      0.1784
    107  OG1      -36.7440  -26.9110   -4.8340 O.3   101  THR101     -0.2211
    108  CG2      -35.3920  -25.6400   -6.4240 C.3   101  THR101      0.0376
    109  N        -35.8590  -26.4410   -1.8330 N.am  102  PHE102     -0.1975
    110  CA       -36.3600  -26.4180   -0.4530 C.3   102  PHE102      0.1639
    111  C        -35.5140  -25.5130    0.4650 C.2   102  PHE102      0.2290
    112  O        -36.0330  -24.5890    1.1200 O.2   102  PHE102     -0.2864
    113  CB       -36.3620  -27.8530    0.0780 C.3   102  PHE102      0.0560
    114  CG       -36.9380  -28.0100    1.4560 C.ar  102  PHE102     -0.0200
    115  CD1      -36.1100  -28.0320    2.5700 C.ar  102  PHE102     -0.0042
    116  CD2      -38.3030  -28.1940    1.6370 C.ar  102  PHE102     -0.0042
    117  CE1      -36.6330  -28.2030    3.8320 C.ar  102  PHE102     -0.0003
    118  CE2      -38.8280  -28.3670    2.9050 C.ar  102  PHE102     -0.0003
    119  CZ       -37.9910  -28.3690    4.0010 C.ar  102  PHE102     -0.0000
    120  N        -35.3700  -21.6870   -0.8910 N.3   105  LEU105     -0.1231
    121  CA       -36.5890  -20.9120   -0.7090 C.3   105  LEU105      0.1693
    122  C        -36.9100  -20.6980    0.7630 C.2   105  LEU105      0.2592
    123  O        -37.1750  -19.5580    1.1850 O.2   105  LEU105     -0.2718
    124  CB       -37.7660  -21.5560   -1.4450 C.3   105  LEU105      0.0284
    125  CG       -37.6540  -21.5960   -2.9670 C.3   105  LEU105      0.0019
    126  CD1      -38.7660  -22.4500   -3.5520 C.3   105  LEU105      0.0001
    127  CD2      -37.6740  -20.1990   -3.5630 C.3   105  LEU105      0.0001
    128  N        -36.8790  -21.7730    1.5490 N.am  106  HIS106     -0.1976
    129  CA       -37.1220  -21.5870    2.9870 C.3   106  HIS106      0.1656
    130  C        -36.0480  -20.6620    3.5690 C.2   106  HIS106      0.2291
    131  O        -36.3430  -19.8300    4.4210 O.2   106  HIS106     -0.2864
    132  CB       -37.2110  -22.9040    3.7740 C.3   106  HIS106      0.0771
    133  CG       -38.4930  -23.6570    3.5660 C.ar  106  HIS106      0.0820
    134  ND1      -38.6190  -24.6810    2.6510 N.ar  106  HIS106     -0.2267
    135  CD2      -39.7070  -23.5340    4.1590 C.ar  106  HIS106      0.1154
    136  CE1      -39.8540  -25.1510    2.6860 C.ar  106  HIS106      0.1986
    137  NE2      -40.5350  -24.4750    3.5950 N.ar  106  HIS106     -0.2212
    138  N        -37.0070  -16.9700    2.6680 N.3   109  PHE109     -0.1241
    139  CA       -38.0440  -16.4700    3.5760 C.3   109  PHE109      0.1605
    140  C        -37.5460  -16.3440    5.0260 C.2   109  PHE109      0.2264
    141  O        -38.0360  -15.5210    5.7990 O.2   109  PHE109     -0.2867
    142  CB       -39.3320  -17.2910    3.4720 C.3   109  PHE109      0.0534
    143  CG       -40.0780  -17.0540    2.1920 C.ar  109  PHE109     -0.0203
    144  CD1      -40.8380  -15.9050    2.0230 C.ar  109  PHE109     -0.0042
    145  CD2      -39.9850  -17.9580    1.1380 C.ar  109  PHE109     -0.0042
    146  CE1      -41.5090  -15.6710    0.8340 C.ar  109  PHE109     -0.0003
    147  CE2      -40.6550  -17.7380   -0.0420 C.ar  109  PHE109     -0.0003
    148  CZ       -41.4170  -16.5890   -0.2000 C.ar  109  PHE109     -0.0000
@<TRIPOS>BOND
     1    38    39    1
     2    51    53    1
     3    51    52    1
     4    51    50    1
     5    43    44    1
     6    43    42    1
     7    43    45    1
     8    39    42    1
     9    39    40    1
    10    46    47    1
    11    46    40   am
    12    47    50    1
    13    47    48    1
    14    40    41    2
    15    73    72    2
    16   108   106    1
    17    48    54   am
    18    48    49    2
    19    54    55    1
    20    72    71    1
    21    57    56    2
    22    60    59    1
    23    59    58    1
    24    59    61    1
    25    58    55    1
    26    84    85    1
    27    55    56    1
    28   106   107    1
    29   106   103    1
    30    98    99    1
    31    56    62   am
    32    87    86    2
    33    85    86    1
    34    85    88    1
    35    76    78   ar
    36    76    75   ar
    37    71    70    1
    38    71    74    1
    39    65    64    2
    40    99   100    1
    41    90    92   ar
    42    90    89   ar
    43    78    79   ar
    44    70    64   am
    45    64    63    1
    46    74    75    1
    47   103   102    1
    48   103   104    1
    49    75    77   ar
    50    88    89    1
    51    92    93   ar
    52    62    63    1
    53   127   125    1
    54   126   125    1
    55    89    91   ar
    56    63    66    1
    57   100   101    2
    58    79    77   ar
    59    79    81   ar
    60   125   124    1
    61    77    80   ar
    62   104   105    2
    63   104   109   am
    64    93    91   ar
    65    93    95   ar
    66    81    83   ar
    67    91    94   ar
    68    68    67    1
    69    66    67    1
    70   109   110    1
    71    80    82   ar
    72   124   121    1
    73    67    69    1
    74    95    97   ar
    75    83    82   ar
    76    94    96   ar
    77   120   121    1
    78   121   122    1
    79   110   113    1
    80   110   111    1
    81   148   147   ar
    82   148   146   ar
    83    97    96   ar
    84   147   145   ar
    85   113   114    1
    86   111   112    2
    87   122   123    2
    88   122   128   am
    89   146   144   ar
    90   145   143   ar
    91   114   116   ar
    92   114   115   ar
    93   128   129    1
    94   116   118   ar
    95   144   143   ar
    96   143   142    1
    97   115   117   ar
    98   134   136   ar
    99   134   133   ar
   100   138   139    1
   101   136   137   ar
   102   118   119   ar
   103   129   130    1
   104   129   132    1
   105   142   139    1
   106   133   132    1
   107   133   135   ar
   108   130   131    2
   109   139   140    1
   110   137   135   ar
   111   117   119   ar
   112   140   141    2
   113    29    28    1
   114    33    32    2
   115    15    14    1
   116    16    14    1
   117    32    31    1
   118    28    25    1
   119    36    35    1
   120    34    31    1
   121    34    35    1
   122    27    26    2
   123    14    13    1
   124    25    26    1
   125    25    24    1
   126    31    30    1
   127    35    37    1
   128    13    10    1
   129    24    19   am
   130    12    11    2
   131    20    19    2
   132    10    11    1
   133    10     9    1
   134    19    18    1
   135    21    22    1
   136    21    18    1
   137    22    23    1
   138    18    17    1
   139     9     3   am
   140     4     3    2
   141     3     2    1
   142    17    23    1
   143     7     5    1
   144     5     2    1
   145     5     6    1
   146     2     1    1
   147     8     6    1
