@<TRIPOS>MOLECULE
tmp/5gthX03.pdb
 215 206 0 0 0
SMALL
GASTEIGER

@<TRIPOS>ATOM
      1  N        -14.3690   -6.1230   -7.6780 N.3   187  MET187     -0.1230
      2  CA       -13.2480   -5.4280   -7.0550 C.3   187  MET187      0.1702
      3  C        -13.7150   -4.5140   -5.9310 C.2   187  MET187      0.2592
      4  O        -13.0940   -4.4500   -4.8710 O.2   187  MET187     -0.2718
      5  CB       -12.4700   -4.6350   -8.0990 C.3   187  MET187      0.0401
      6  CG       -11.7250   -5.4990   -9.1060 C.3   187  MET187      0.0596
      7  SD       -11.2400   -4.5240  -10.5470 S.3   187  MET187     -0.1393
      8  CE       -10.3810   -5.7350  -11.5540 C.3   187  MET187      0.0692
      9  N        -14.8110   -3.8030   -6.1680 N.am  188  MET188     -0.1979
     10  CA       -15.3820   -2.9590   -5.1310 C.3   188  MET188      0.1605
     11  C        -15.8660   -3.8220   -3.9800 C.2   188  MET188      0.2287
     12  O        -15.7120   -3.4470   -2.8010 O.2   188  MET188     -0.2864
     13  CB       -16.5180   -2.1090   -5.6860 C.3   188  MET188      0.0413
     14  CG       -16.0500   -1.0260   -6.6490 C.3   188  MET188      0.0598
     15  SD       -17.3930    0.1040   -7.0550 S.3   188  MET188     -0.1393
     16  CE       -18.3810   -0.9140   -8.1560 C.3   188  MET188      0.0692
     17  N        -12.7990   -4.7240   -1.9830 N.3   191  ALA191     -0.1231
     18  CA       -12.4090   -3.5480   -1.2210 C.3   191  ALA191      0.1694
     19  C        -13.2810   -3.3710    0.0300 C.2   191  ALA191      0.2592
     20  O        -12.7860   -3.0700    1.1070 O.2   191  ALA191     -0.2718
     21  CB       -12.4800   -2.3050   -2.0990 C.3   191  ALA191      0.0304
     22  N        -14.5840   -3.5730   -0.1200 N.am  192  GLY192     -0.1957
     23  CA       -15.4940   -3.3890    0.9890 C.3   192  GLY192      0.1869
     24  C        -15.2330   -4.4160    2.0580 C.2   192  GLY192      0.2309
     25  O        -15.2520   -4.0880    3.2560 O.2   192  GLY192     -0.2863
     26  N        -11.4910   -4.0040    3.4440 N.3   195  GLY195     -0.1225
     27  CA       -11.5060   -2.7220    4.1270 C.3   195  GLY195      0.1811
     28  C        -12.2790   -2.8250    5.4260 C.2   195  GLY195      0.2280
     29  O        -11.8830   -2.2520    6.4420 O.2   195  GLY195     -0.2866
     30  N        -10.0960   -4.6530    7.9000 N.3   198  LEU198     -0.1231
     31  CA        -9.1300   -3.6450    8.3250 C.3   198  LEU198      0.1693
     32  C         -9.7300   -2.7420    9.4020 C.2   198  LEU198      0.2591
     33  O         -9.0790   -2.4510   10.3850 O.2   198  LEU198     -0.2718
     34  CB        -8.6590   -2.8110    7.1280 C.3   198  LEU198      0.0284
     35  CG        -7.5450   -1.7620    7.2990 C.3   198  LEU198      0.0019
     36  CD1       -6.8740   -1.4920    5.9400 C.3   198  LEU198      0.0001
     37  CD2       -8.0430   -0.4390    7.9250 C.3   198  LEU198      0.0001
     38  N        -10.9590   -2.2760    9.1920 N.am  199  LEU199     -0.1980
     39  CA       -11.5970   -1.3600   10.1350 C.3   199  LEU199      0.1596
     40  C        -11.8880   -2.0480   11.4580 C.2   199  LEU199      0.2287
     41  O        -11.7650   -1.4500   12.5390 O.2   199  LEU199     -0.2864
     42  CB       -12.8830   -0.7800    9.5490 C.3   199  LEU199      0.0297
     43  CG       -12.7040    0.3440    8.5300 C.3   199  LEU199      0.0022
     44  CD1      -14.0410    0.7070    7.9110 C.3   199  LEU199      0.0001
     45  CD2      -12.0350    1.5520    9.1800 C.3   199  LEU199      0.0001
     46  N         -8.4420   -2.4990   13.2050 N.3   202  ILE202     -0.1231
     47  CA        -7.8050   -1.2600   13.6000 C.3   202  ILE202      0.1692
     48  C         -8.5950   -0.5270   14.6920 C.2   202  ILE202      0.2592
     49  O         -8.0170    0.0980   15.5830 O.2   202  ILE202     -0.2718
     50  CB        -7.5240   -0.3480   12.3710 C.3   202  ILE202      0.0266
     51  CG1       -6.4130    0.6550   12.6860 C.3   202  ILE202      0.0019
     52  CG2       -8.7970    0.3510   11.8750 C.3   202  ILE202      0.0020
     53  CD1       -5.8500    1.3340   11.4470 C.3   202  ILE202      0.0001
     54  N         -9.9160   -0.6250   14.6320 N.am  203  HIS203     -0.1976
     55  CA       -10.7470   -0.0080   15.6360 C.3   203  HIS203      0.1656
     56  C        -10.5890   -0.7690   16.9550 C.2   203  HIS203      0.2291
     57  O        -10.3600   -0.1540   18.0110 O.2   203  HIS203     -0.2864
     58  CB       -12.1930   -0.0060   15.1790 C.3   203  HIS203      0.0771
     59  CG       -13.1500    0.5640   16.1790 C.ar  203  HIS203      0.0820
     60  ND1      -12.9920    1.8130   16.7360 N.ar  203  HIS203     -0.2267
     61  CD2      -14.2860    0.0550   16.7090 C.ar  203  HIS203      0.1154
     62  CE1      -13.9960    2.0490   17.5580 C.ar  203  HIS203      0.1986
     63  NE2      -14.7920    0.9970   17.5640 N.ar  203  HIS203     -0.2212
     64  N         -7.0820   -0.1020   18.3620 N.3   206  THR206     -0.1203
     65  CA        -6.9780    1.2850   18.8160 C.3   206  THR206      0.1994
     66  C         -7.6660    1.4640   20.1530 C.2   206  THR206      0.2617
     67  O         -7.0930    2.0470   21.0820 O.2   206  THR206     -0.2717
     68  CB        -7.6050    2.2790   17.8060 C.3   206  THR206      0.1784
     69  OG1       -6.9240    2.1910   16.5540 O.3   206  THR206     -0.2211
     70  CG2       -7.5100    3.7020   18.3140 C.3   206  THR206      0.0376
     71  N         -8.9020    0.9790   20.2530 N.am  207  VAL207     -0.1979
     72  CA        -9.6270    1.0700   21.5280 C.3   207  VAL207      0.1595
     73  C         -8.8490    0.3450   22.6250 C.2   207  VAL207      0.2287
     74  O         -8.5310    0.9460   23.6430 O.2   207  VAL207     -0.2864
     75  CB       -11.0850    0.5390   21.4410 C.3   207  VAL207      0.0276
     76  CG1      -11.6760    0.4440   22.8040 C.3   207  VAL207      0.0022
     77  CG2      -11.9440    1.4660   20.6050 C.3   207  VAL207      0.0022
     78  N        -11.8710    4.8050   26.6820 N.3   233  TYR233     -0.1241
     79  CA       -10.5880    4.9860   26.0100 C.3   233  TYR233      0.1605
     80  C        -10.4830    6.4160   25.5080 C.2   233  TYR233      0.2264
     81  O        -11.5030    7.0650   25.2920 O.2   233  TYR233     -0.2867
     82  CB       -10.4340    3.9990   24.8560 C.3   233  TYR233      0.0534
     83  CG       -11.3530    4.2970   23.7060 C.ar  233  TYR233     -0.0201
     84  CD1      -12.6930    3.9310   23.7480 C.ar  233  TYR233     -0.0009
     85  CD2      -10.8810    4.9550   22.5530 C.ar  233  TYR233     -0.0009
     86  CE1      -13.5340    4.2200   22.6790 C.ar  233  TYR233      0.0417
     87  CE2      -11.7110    5.2410   21.5060 C.ar  233  TYR233      0.0417
     88  CZ       -13.0320    4.8710   21.5680 C.ar  233  TYR233      0.1957
     89  OH       -13.8580    5.1540   20.5130 O.3   233  TYR233     -0.2866
     90  N        -10.0920    9.2230   22.9900 N.3   235  MET235     -0.1245
     91  CA       -10.2570    9.5510   21.5880 C.3   235  MET235      0.1570
     92  C         -9.1940   10.5600   21.1660 C.2   235  MET235      0.2261
     93  O         -8.7160   10.5280   20.0420 O.2   235  MET235     -0.2867
     94  CB       -11.6610   10.0890   21.3280 C.3   235  MET235      0.0387
     95  CG       -11.9640   10.3860   19.8720 C.3   235  MET235      0.0595
     96  SD       -12.1680    8.8860   18.9030 S.3   235  MET235     -0.1393
     97  CE       -12.8870    9.5510   17.4150 C.3   235  MET235      0.0692
     98  N         -5.8550    8.6830   20.7500 N.3   238  ALA238     -0.1231
     99  CA        -5.9990    7.8710   19.5420 C.3   238  ALA238      0.1694
    100  C         -5.8340    8.7350   18.2910 C.2   238  ALA238      0.2592
    101  O         -5.1610    8.3570   17.3100 O.2   238  ALA238     -0.2718
    102  CB        -7.3490    7.1720   19.5390 C.3   238  ALA238      0.0304
    103  N         -6.4690    9.9010   18.3350 N.am  239  ASN239     -0.1974
    104  CA        -6.4130   10.8360   17.2350 C.3   239  ASN239      0.1688
    105  C         -5.0010   11.3600   17.0400 C.2   239  ASN239      0.2292
    106  O         -4.5440   11.4320   15.9060 O.2   239  ASN239     -0.2864
    107  CB        -7.3940   11.9890   17.4290 C.3   239  ASN239      0.1181
    108  CG        -7.3000   13.0360   16.3130 C.2   239  ASN239      0.2629
    109  OD1       -6.4510   13.9260   16.3410 O.2   239  ASN239     -0.2716
    110  ND2       -8.1980   12.9390   15.3440 N.am  239  ASN239     -0.0877
    111  N         -2.8480    8.3950   15.5020 N.3   242  TRP242     -0.1241
    112  CA        -3.1110    8.1050   14.0970 C.3   242  TRP242      0.1605
    113  C         -2.7940    9.2720   13.1600 C.2   242  TRP242      0.2264
    114  O         -2.3400    9.0640   12.0240 O.2   242  TRP242     -0.2867
    115  CB        -4.5220    7.5520   13.8930 C.3   242  TRP242      0.0550
    116  CG        -4.6180    6.1140   14.3180 C.ar  242  TRP242      0.0003
    117  CD1       -5.3680    5.6040   15.3360 C.ar  242  TRP242      0.0946
    118  CD2       -3.8790    5.0140   13.7740 C.ar  242  TRP242      0.0152
    119  NE1       -5.1710    4.2480   15.4360 N.ar  242  TRP242     -0.2442
    120  CE2       -4.2570    3.8600   14.4930 C.ar  242  TRP242      0.0810
    121  CE3       -2.9460    4.8900   12.7400 C.ar  242  TRP242      0.0012
    122  CZ2       -3.7370    2.5990   14.2100 C.ar  242  TRP242      0.0191
    123  CZ3       -2.4270    3.6230   12.4570 C.ar  242  TRP242      0.0001
    124  CH2       -2.8300    2.4990   13.1820 C.ar  242  TRP242      0.0015
    125  N         -0.1380    8.0700   10.4530 N.3   246  PHE246     -0.1241
    126  CA        -0.7780    7.8240    9.1790 C.3   246  PHE246      0.1605
    127  C         -1.2280    9.0930    8.4600 C.2   246  PHE246      0.2264
    128  O         -1.7560    9.0190    7.3480 O.2   246  PHE246     -0.2867
    129  CB        -1.9730    6.8970    9.3900 C.3   246  PHE246      0.0534
    130  CG        -2.5880    6.3970    8.1150 C.ar  246  PHE246     -0.0203
    131  CD1       -1.8730    5.5600    7.2710 C.ar  246  PHE246     -0.0042
    132  CD2       -3.8730    6.7650    7.7560 C.ar  246  PHE246     -0.0042
    133  CE1       -2.4260    5.0930    6.1010 C.ar  246  PHE246     -0.0003
    134  CE2       -4.4340    6.2940    6.5840 C.ar  246  PHE246     -0.0003
    135  CZ        -3.7050    5.4550    5.7570 C.ar  246  PHE246     -0.0000
    136  N         -3.6940   11.1270    8.7930 N.3   248  ILE248     -0.1231
    137  CA        -5.0580   11.5010    9.1260 C.3   248  ILE248      0.1692
    138  C         -5.6180   10.5420   10.1620 C.2   248  ILE248      0.2592
    139  O         -5.0550    9.4620   10.3970 O.2   248  ILE248     -0.2718
    140  CB        -5.9730   11.5580    7.8630 C.3   248  ILE248      0.0266
    141  CG1       -5.9510   10.2450    7.0980 C.3   248  ILE248      0.0019
    142  CG2       -5.5700   12.6960    6.9380 C.3   248  ILE248      0.0020
    143  CD1       -7.2620    9.5290    7.1460 C.3   248  ILE248      0.0001
    144  N         -6.7190   10.9520   10.7880 N.am  249  ALA249     -0.1966
    145  CA        -7.3470   10.1860   11.8580 C.3   249  ALA249      0.1728
    146  C         -8.8310   10.5540   11.9570 C.2   249  ALA249      0.2616
    147  O         -9.2370   11.6520   11.5670 O.2   249  ALA249     -0.2715
    148  CB        -6.6380   10.4660   13.1840 C.3   249  ALA249      0.0334
    149  N         -9.6410    9.6330   12.4720 N.am  250  PHE250     -0.1974
    150  CA       -10.9990    9.9800   12.8720 C.3   250  PHE250      0.1639
    151  C        -10.9070   10.9510   14.0440 C.2   250  PHE250      0.2290
    152  O         -9.9670   10.8930   14.8390 O.2   250  PHE250     -0.2864
    153  CB       -11.7860    8.7440   13.3310 C.3   250  PHE250      0.0560
    154  CG       -12.1880    7.8230   12.2230 C.ar  250  PHE250     -0.0200
    155  CD1      -13.2780    8.1280   11.4030 C.ar  250  PHE250     -0.0042
    156  CD2      -11.4940    6.6360   12.0070 C.ar  250  PHE250     -0.0042
    157  CE1      -13.6670    7.2720   10.3780 C.ar  250  PHE250     -0.0003
    158  CE2      -11.8660    5.7840   10.9730 C.ar  250  PHE250     -0.0003
    159  CZ       -12.9600    6.1040   10.1570 C.ar  250  PHE250     -0.0000
    160  N        -17.0470    7.5860   12.7590 N.3   256  LEU256     -0.1245
    161  CA       -16.2410    6.3790   12.7480 C.3   256  LEU256      0.1561
    162  C        -17.1400    5.1240   12.6890 C.2   256  LEU256      0.2260
    163  O        -16.9550    4.2280   11.8250 O.2   256  LEU256     -0.2867
    164  CB       -15.3330    6.3550   13.9820 C.3   256  LEU256      0.0270
    165  CG       -14.2120    5.3100   14.0780 C.3   256  LEU256      0.0019
    166  CD1      -13.1610    5.7710   15.0770 C.3   256  LEU256      0.0001
    167  CD2      -14.7460    3.9540   14.4910 C.3   256  LEU256      0.0001
    168  N        -19.1420    4.7340    9.4860 N.3   259  PHE259     -0.1241
    169  CA       -18.2490    4.3890    8.3980 C.3   259  PHE259      0.1605
    170  C        -18.0070    2.8880    8.4620 C.2   259  PHE259      0.2264
    171  O        -17.9580    2.1960    7.4310 O.2   259  PHE259     -0.2867
    172  CB       -16.9400    5.1580    8.5490 C.3   259  PHE259      0.0534
    173  CG       -16.0390    5.0680    7.3550 C.ar  259  PHE259     -0.0203
    174  CD1      -16.4400    5.5760    6.1270 C.ar  259  PHE259     -0.0042
    175  CD2      -14.7870    4.4660    7.4570 C.ar  259  PHE259     -0.0042
    176  CE1      -15.6110    5.4880    5.0190 C.ar  259  PHE259     -0.0003
    177  CE2      -13.9530    4.3870    6.3500 C.ar  259  PHE259     -0.0003
    178  CZ       -14.3660    4.9020    5.1270 C.ar  259  PHE259     -0.0000
    179  N        -20.9190    1.4750    6.8440 N.3   262  PHE262     -0.1227
    180  CA       -20.9820    1.8110    5.4350 C.3   262  PHE262      0.1736
    181  C        -20.0520    0.9720    4.5520 C.2   262  PHE262      0.2595
    182  O        -20.4550    0.5410    3.4630 O.2   262  PHE262     -0.2718
    183  CB       -20.6920    3.3150    5.2310 C.3   262  PHE262      0.0547
    184  CG       -20.6360    3.7260    3.7810 C.ar  262  PHE262     -0.0202
    185  CD1      -21.7870    4.1050    3.1140 C.ar  262  PHE262     -0.0042
    186  CD2      -19.4330    3.6940    3.0850 C.ar  262  PHE262     -0.0042
    187  CE1      -21.7440    4.4540    1.7750 C.ar  262  PHE262     -0.0003
    188  CE2      -19.3680    4.0530    1.7520 C.ar  262  PHE262     -0.0003
    189  CZ       -20.5320    4.4280    1.0790 C.ar  262  PHE262     -0.0000
    190  N        -18.8080    0.7740    4.9860 N.am  263  VAL263     -0.1980
    191  CA       -17.8140    0.1660    4.0900 C.3   263  VAL263      0.1595
    192  C        -18.1830   -1.2590    3.5930 C.2   263  VAL263      0.2287
    193  O        -18.3380   -1.4600    2.3900 O.2   263  VAL263     -0.2864
    194  CB       -16.3540    0.2410    4.6620 C.3   263  VAL263      0.0276
    195  CG1      -15.4340   -0.7600    3.9590 C.3   263  VAL263      0.0022
    196  CG2      -15.8020    1.6570    4.5670 C.3   263  VAL263      0.0022
    197  N        -21.6660   -1.5640    1.6080 N.3   266  THR266     -0.1203
    198  CA       -21.6230   -1.0470    0.2530 C.3   266  THR266      0.1994
    199  C        -20.8820   -2.0070   -0.6480 C.2   266  THR266      0.2618
    200  O        -21.3030   -2.2700   -1.7820 O.2   266  THR266     -0.2717
    201  CB       -20.9460    0.3370    0.2230 C.3   266  THR266      0.1784
    202  OG1      -21.7390    1.2520    0.9830 O.3   266  THR266     -0.2211
    203  CG2      -20.7760    0.8680   -1.2280 C.3   266  THR266      0.0376
    204  N        -19.7680   -2.5210   -0.1400 N.am  267  GLY267     -0.1956
    205  CA       -18.9840   -3.5240   -0.8420 C.3   267  GLY267      0.1869
    206  C        -19.7940   -4.7360   -1.2720 C.2   267  GLY267      0.2309
    207  O        -19.7290   -5.1510   -2.4310 O.2   267  GLY267     -0.2863
    208  N        -22.1980   -3.7830   -4.0340 N.3   270  MET270     -0.1245
    209  CA       -21.5780   -3.6230   -5.3470 C.3   270  MET270      0.1570
    210  C        -21.3670   -4.9810   -6.0050 C.2   270  MET270      0.2261
    211  O        -21.6790   -5.1620   -7.1790 O.2   270  MET270     -0.2867
    212  CB       -20.2670   -2.8440   -5.2450 C.3   270  MET270      0.0387
    213  CG       -20.4630   -1.3830   -4.8600 C.3   270  MET270      0.0595
    214  SD       -21.5620   -0.4820   -5.9890 S.3   270  MET270     -0.1393
    215  CE       -23.0660   -0.4580   -5.0170 C.3   270  MET270      0.0692
@<TRIPOS>BOND
     1     8     7    1
     2     7     6    1
     3     6     5    1
     4    16    15    1
     5     5     2    1
     6     1     2    1
     7   211   210    2
     8     2     3    1
     9    15    14    1
    10    14    13    1
    11     9     3   am
    12     9    10    1
    13   210   209    1
    14   214   215    1
    15   214   213    1
    16     3     4    2
    17    13    10    1
    18   209   212    1
    19   209   208    1
    20   212   213    1
    21    10    11    1
    22    11    12    2
    23   207   206    2
    24    21    18    1
    25    17    18    1
    26   200   199    2
    27   206   205    1
    28   203   201    1
    29    18    19    1
    30   205   204    1
    31   199   204   am
    32   199   198    1
    33    22    19   am
    34    22    23    1
    35    19    20    2
    36   201   198    1
    37   201   202    1
    38   198   197    1
    39    23    24    1
    40   189   188   ar
    41   189   187   ar
    42   188   186   ar
    43   187   185   ar
    44    24    25    2
    45   193   192    2
    46   186   184   ar
    47   185   184   ar
    48    26    27    1
    49   182   181    2
    50   192   191    1
    51   184   183    1
    52   195   194    1
    53   191   194    1
    54   191   190    1
    55    27    28    1
    56   181   190   am
    57   181   180    1
    58   196   194    1
    59   176   178   ar
    60   176   174   ar
    61   178   177   ar
    62   183   180    1
    63    28    29    2
    64   180   179    1
    65   135   133   ar
    66   135   134   ar
    67    36    35    1
    68   133   131   ar
    69   174   173   ar
    70   177   175   ar
    71   134   132   ar
    72   142   140    1
    73   141   143    1
    74   141   140    1
    75    34    35    1
    76    34    31    1
    77   131   130   ar
    78    35    37    1
    79   128   127    2
    80   173   175   ar
    81   173   172    1
    82   171   170    2
    83   132   130   ar
    84   140   137    1
    85    30    31    1
    86    44    43    1
    87   130   129    1
    88    31    32    1
    89   169   170    1
    90   169   172    1
    91   169   168    1
    92   127   126    1
    93    43    45    1
    94    43    42    1
    95   136   137    1
    96   137   138    1
    97   126   129    1
    98   126   125    1
    99    38    32   am
   100    38    39    1
   101    32    33    2
   102    42    39    1
   103    39    40    1
   104   159   157   ar
   105   159   158   ar
   106   138   139    2
   107   138   144   am
   108   157   155   ar
   109   144   145    1
   110   158   156   ar
   111   155   154   ar
   112    53    51    1
   113    40    41    2
   114   147   146    2
   115   163   162    2
   116   145   146    1
   117   145   148    1
   118    52    50    1
   119   146   149   am
   120   156   154   ar
   121   114   113    2
   122   154   153    1
   123    50    51    1
   124    50    47    1
   125   123   121   ar
   126   123   124   ar
   127   149   150    1
   128   162   161    1
   129   121   118   ar
   130   161   160    1
   131   161   164    1
   132   150   153    1
   133   150   151    1
   134   113   112    1
   135   124   122   ar
   136    46    47    1
   137    47    48    1
   138   118   116   ar
   139   118   120   ar
   140   115   112    1
   141   115   116    1
   142   164   165    1
   143   151   152    2
   144   165   167    1
   145   165   166    1
   146   112   111    1
   147   122   120   ar
   148   116   117   ar
   149   120   119   ar
   150    54    48   am
   151    54    55    1
   152    48    49    2
   153    58    55    1
   154    58    59    1
   155   117   119   ar
   156   110   108   am
   157    55    56    1
   158   106   105    2
   159    59    61   ar
   160    59    60   ar
   161   108   109    2
   162   108   107    1
   163    69    68    1
   164    61    63   ar
   165    60    62   ar
   166    56    57    2
   167   105   104    1
   168   104   107    1
   169   104   103    1
   170   101   100    2
   171    97    96    1
   172    62    63   ar
   173    68    70    1
   174    68    65    1
   175   100   103   am
   176   100    99    1
   177    64    65    1
   178    65    66    1
   179    96    95    1
   180   102    99    1
   181    99    98    1
   182    95    94    1
   183    93    92    2
   184    66    71   am
   185    66    67    2
   186    71    72    1
   187    89    88    1
   188    77    75    1
   189    92    91    1
   190    94    91    1
   191    75    72    1
   192    75    76    1
   193    87    88   ar
   194    87    85   ar
   195    72    73    1
   196    88    86   ar
   197    91    90    1
   198    85    83   ar
   199    73    74    2
   200    86    84   ar
   201    83    84   ar
   202    83    82    1
   203    82    79    1
   204    81    80    2
   205    80    79    1
   206    79    78    1
