@<TRIPOS>MOLECULE
tmp/5gtyF00.pdb
 199 187 0 0 0
SMALL
GASTEIGER

@<TRIPOS>ATOM
      1  N         -6.9170   -4.9200  -10.8070 N.3    20  LEU20      -0.1231
      2  CA        -5.8430   -5.7550  -11.3330 C.3    20  LEU20       0.1693
      3  C         -5.6820   -5.7300  -12.8410 C.2    20  LEU20       0.2593
      4  O         -4.5840   -5.5980  -13.3600 O.2    20  LEU20      -0.2718
      5  CB        -6.0640   -7.2020  -10.9080 C.3    20  LEU20       0.0284
      6  CG        -5.7770   -7.5240   -9.4500 C.3    20  LEU20       0.0019
      7  CD1       -5.5300   -9.0090   -9.2910 C.3    20  LEU20       0.0001
      8  CD2       -4.5900   -6.7270   -8.9550 C.3    20  LEU20       0.0001
      9  N         -6.7990   -5.8640  -13.5370 N.am   21  GLY21      -0.1942
     10  CA        -6.7970   -6.0530  -14.9700 C.3    21  GLY21       0.2014
     11  C         -8.2030   -5.9710  -15.5070 C.2    21  GLY21       0.2639
     12  O         -9.1470   -5.8490  -14.7440 O.2    21  GLY21      -0.2714
     13  N         -8.3480   -6.0390  -16.8210 N.am   22  SER22      -0.1949
     14  CA        -9.6650   -6.1610  -17.4170 C.3    22  SER22       0.1924
     15  C         -9.7080   -7.2620  -18.4550 C.2    22  SER22       0.2314
     16  O         -8.6910   -7.6520  -19.0150 O.2    22  SER22      -0.2863
     17  CB       -10.1450   -4.8530  -18.0210 C.3    22  SER22       0.2116
     18  OG       -11.5570   -4.8520  -18.0970 O.3    22  SER22      -0.2180
     19  N        -11.5610   -6.7350  -13.2820 N.3    28  VAL28      -0.1245
     20  CA       -10.9350   -7.5360  -12.2330 C.3    28  VAL28       0.1561
     21  C        -10.2170   -6.6790  -11.2010 C.2    28  VAL28       0.2260
     22  O         -9.5180   -5.7490  -11.5570 O.2    28  VAL28      -0.2867
     23  CB        -9.9370   -8.5440  -12.8220 C.3    28  VAL28       0.0252
     24  CG1       -9.2900   -9.3590  -11.7210 C.3    28  VAL28       0.0019
     25  CG2      -10.6290   -9.4500  -13.8220 C.3    28  VAL28       0.0019
     26  N         -8.5840  -11.9030   -5.0850 N.3    45  ALA45      -0.1245
     27  CA        -8.9100  -11.3290   -6.3790 C.3    45  ALA45       0.1562
     28  C        -10.4150  -11.2850   -6.5830 C.2    45  ALA45       0.2260
     29  O        -11.0960  -12.2860   -6.4680 O.2    45  ALA45      -0.2867
     30  CB        -8.2420  -12.1110   -7.4950 C.3    45  ALA45       0.0290
     31  N        -13.4720  -10.2520   -9.2320 N.3    47  LYS47      -0.1245
     32  CA       -13.7960   -9.9620  -10.6120 C.3    47  LYS47       0.1561
     33  C        -15.2630   -9.6250  -10.6920 C.2    47  LYS47       0.2260
     34  O        -16.0970  -10.3100  -10.1140 O.2    47  LYS47      -0.2867
     35  CB       -13.4930  -11.1550  -11.5100 C.3    47  LYS47       0.0271
     36  CG       -13.8740  -10.9430  -12.9660 C.3    47  LYS47       0.0035
     37  CD       -13.7060  -12.2110  -13.7820 C.3    47  LYS47       0.0206
     38  CE       -12.8380  -11.9710  -15.0030 C.3    47  LYS47       0.1093
     39  NZ       -12.0170  -13.1570  -15.3740 N.3    47  LYS47      -0.1314
     40  N        -17.8760  -24.6250  -11.1860 N.3    63  MET63      -0.1245
     41  CA       -16.5950  -23.9340  -11.2680 C.3    63  MET63       0.1570
     42  C        -15.8160  -23.9820   -9.9610 C.2    63  MET63       0.2261
     43  O        -14.5960  -24.0840   -9.9540 O.2    63  MET63      -0.2867
     44  CB       -16.7880  -22.4950  -11.7330 C.3    63  MET63       0.0387
     45  CG       -16.3800  -22.2610  -13.1750 C.3    63  MET63       0.0595
     46  SD       -17.1280  -20.7830  -13.8690 S.3    63  MET63      -0.1393
     47  CE       -16.9730  -19.6580  -12.4930 C.3    63  MET63       0.0692
     48  N         -7.3540  -23.0250  -11.6890 N.3    72  CYS72      -0.1221
     49  CA        -7.8190  -22.1070  -10.6580 C.3    72  CYS72       0.1808
     50  C         -9.1910  -22.5120  -10.1670 C.2    72  CYS72       0.2601
     51  O         -9.9900  -23.0330  -10.9260 O.2    72  CYS72      -0.2717
     52  CB        -7.9080  -20.7000  -11.2120 C.3    72  CYS72       0.0970
     53  SG        -6.3560  -19.8000  -11.1900 S.3    72  CYS72      -0.0800
     54  N         -9.4640  -22.2650   -8.8930 N.am   73  ARG73      -0.1965
     55  CA       -10.7170  -22.6820   -8.2800 C.3    73  ARG73       0.1729
     56  C        -11.5290  -21.4880   -7.8440 C.2    73  ARG73       0.2616
     57  O        -10.9890  -20.5570   -7.2750 O.2    73  ARG73      -0.2715
     58  CB       -10.4460  -23.5720   -7.0750 C.3    73  ARG73       0.0348
     59  CG       -11.6660  -24.2960   -6.5460 C.3    73  ARG73       0.0492
     60  CD       -11.2770  -25.2190   -5.4110 C.3    73  ARG73       0.2205
     61  NE       -11.6650  -24.6750   -4.1210 N.pl3  73  ARG73      -0.0865
     62  CZ       -12.9080  -24.3420   -3.8070 C.cat  73  ARG73       0.5346
     63  NH1      -13.8740  -24.5010   -4.6960 N.pl3  73  ARG73       0.1354
     64  NH2      -13.1820  -23.8520   -2.6100 N.pl3  73  ARG73       0.1354
     65  N        -12.8290  -21.5170   -8.1010 N.am   74  LEU74      -0.1977
     66  CA       -13.6690  -20.3930   -7.7490 C.3    74  LEU74       0.1596
     67  C        -14.1140  -20.5300   -6.3130 C.2    74  LEU74       0.2287
     68  O        -14.9880  -21.3220   -5.9960 O.2    74  LEU74      -0.2864
     69  CB       -14.8960  -20.3530   -8.6500 C.3    74  LEU74       0.0297
     70  CG       -15.8170  -19.1510   -8.4580 C.3    74  LEU74       0.0022
     71  CD1      -15.1390  -17.8870   -8.9460 C.3    74  LEU74       0.0001
     72  CD2      -17.1430  -19.3480   -9.1640 C.3    74  LEU74       0.0001
     73  N        -17.1230  -12.4570   -8.7510 N.3    85  LEU85      -0.1245
     74  CA       -16.5510  -13.7490   -8.4630 C.3    85  LEU85       0.1561
     75  C        -15.3300  -13.5350   -7.6040 C.2    85  LEU85       0.2260
     76  O        -14.5120  -12.6850   -7.9000 O.2    85  LEU85      -0.2867
     77  CB       -16.1690  -14.4510   -9.7560 C.3    85  LEU85       0.0270
     78  CG       -17.3540  -14.7080  -10.6730 C.3    85  LEU85       0.0019
     79  CD1      -17.0420  -15.8090  -11.6670 C.3    85  LEU85       0.0001
     80  CD2      -18.5640  -15.0670   -9.8350 C.3    85  LEU85       0.0001
     81  N        -11.8860  -15.1310   -5.8070 N.3    87  MET87      -0.1230
     82  CA       -10.9330  -16.2110   -5.9680 C.3    87  MET87       0.1702
     83  C         -9.5560  -15.8280   -5.4450 C.2    87  MET87       0.2592
     84  O         -9.3340  -14.6990   -5.0540 O.2    87  MET87      -0.2718
     85  CB       -10.9050  -16.7170   -7.4150 C.3    87  MET87       0.0401
     86  CG       -10.1480  -15.8710   -8.4200 C.3    87  MET87       0.0596
     87  SD        -9.3080  -16.9250   -9.5940 S.3    87  MET87      -0.1393
     88  CE        -7.6570  -16.8930   -8.9400 C.3    87  MET87       0.0692
     89  N         -8.6410  -16.7790   -5.3900 N.am   88  GLN88      -0.1966
     90  CA        -7.3280  -16.4940   -4.8590 C.3    88  GLN88       0.1733
     91  C         -6.6220  -15.4770   -5.7040 C.2    88  GLN88       0.2616
     92  O         -6.8370  -15.3900   -6.8950 O.2    88  GLN88      -0.2715
     93  CB        -6.4850  -17.7440   -4.8090 C.3    88  GLN88       0.0408
     94  CG        -5.1820  -17.5250   -4.0800 C.3    88  GLN88       0.0908
     95  CD        -4.3560  -18.7740   -4.0320 C.2    88  GLN88       0.2608
     96  OE1       -4.2150  -19.4670   -5.0280 O.2    88  GLN88      -0.2717
     97  NE2       -3.8110  -19.0740   -2.8720 N.am   88  GLN88      -0.0878
     98  N         -5.7830  -14.6820   -5.0740 N.am   89  LEU89      -0.1963
     99  CA        -5.1200  -13.6210   -5.7900 C.3    89  LEU89       0.1728
    100  C         -3.6920  -13.9850   -6.0880 C.2    89  LEU89       0.2616
    101  O         -2.9550  -14.3930   -5.2090 O.2    89  LEU89      -0.2715
    102  CB        -5.1450  -12.3340   -4.9800 C.3    89  LEU89       0.0311
    103  CG        -4.0940  -11.3150   -5.4100 C.3    89  LEU89       0.0022
    104  CD1       -4.7440  -10.0450   -5.9220 C.3    89  LEU89       0.0001
    105  CD2       -3.1310  -11.0120   -4.2780 C.3    89  LEU89       0.0001
    106  N         -3.3050  -13.8320   -7.3420 N.am   90  MET90      -0.1977
    107  CA        -1.9390  -14.0800   -7.7240 C.3    90  MET90       0.1605
    108  C         -1.2830  -12.7800   -8.1100 C.2    90  MET90       0.2287
    109  O         -1.7620  -12.0550   -8.9590 O.2    90  MET90      -0.2864
    110  CB        -1.8750  -15.0610   -8.8840 C.3    90  MET90       0.0413
    111  CG        -3.0460  -16.0140   -8.9550 C.3    90  MET90       0.0598
    112  SD        -2.8480  -17.4690   -7.9320 S.3    90  MET90      -0.1393
    113  CE        -3.7290  -18.6540   -8.9170 C.3    90  MET90       0.0692
    114  N          0.3170  -12.4910  -11.9500 N.3    93  GLY93      -0.1210
    115  CA        -0.5650  -12.1010  -13.0250 C.3    93  GLY93       0.1956
    116  C         -0.4740  -13.0370  -14.2030 C.2    93  GLY93       0.2612
    117  O         -0.0480  -14.1710  -14.0610 O.2    93  GLY93      -0.2717
    118  N         -0.8890  -12.5540  -15.3680 N.am   94  CYS94      -0.1970
    119  CA        -1.0170  -13.3810  -16.5700 C.3    94  CYS94       0.1712
    120  C          0.3130  -13.9460  -16.9890 C.2    94  CYS94       0.2296
    121  O          1.3410  -13.2910  -16.8970 O.2    94  CYS94      -0.2864
    122  CB        -1.5020  -12.5350  -17.7350 C.3    94  CYS94       0.0983
    123  SG        -2.7870  -11.3640  -17.2180 S.3    94  CYS94      -0.0798
    124  N          1.5340  -11.7580  -19.8210 N.3    97  ASP97      -0.1239
    125  CA         2.2630  -10.6010  -19.3460 C.3    97  ASP97       0.1674
    126  C          3.6160  -11.0280  -18.8310 C.2    97  ASP97       0.2266
    127  O          4.6060  -10.3480  -19.0250 O.2    97  ASP97      -0.2867
    128  CB         1.4830   -9.8900  -18.2500 C.3    97  ASP97       0.1410
    129  CG         0.5510   -8.8320  -18.7940 C.2    97  ASP97       0.3668
    130  OD1        0.0780   -8.9880  -19.9340 O.co2  97  ASP97      -0.2456
    131  OD2        0.2870   -7.8450  -18.0800 O.co2  97  ASP97      -0.2456
    132  N         -3.2180  -15.2760  -21.8830 N.3   138  ARG138     -0.1231
    133  CA        -3.6740  -14.3840  -20.8400 C.3   138  ARG138      0.1694
    134  C         -4.4700  -15.1430  -19.7990 C.2   138  ARG138      0.2592
    135  O         -4.3080  -14.9310  -18.6060 O.2   138  ARG138     -0.2718
    136  CB        -4.5270  -13.2700  -21.4320 C.3   138  ARG138      0.0321
    137  CG        -5.2850  -13.6610  -22.6840 C.3   138  ARG138      0.0489
    138  CD        -6.6400  -12.9800  -22.7100 C.3   138  ARG138      0.2205
    139  NE        -7.2490  -12.9620  -21.3850 N.pl3 138  ARG138     -0.0865
    140  CZ        -7.6290  -11.8610  -20.7480 C.cat 138  ARG138      0.5346
    141  NH1       -8.1680  -11.9480  -19.5420 N.pl3 138  ARG138      0.1354
    142  NH2       -7.4680  -10.6760  -21.3130 N.pl3 138  ARG138      0.1354
    143  N         -5.3230  -16.0430  -20.2640 N.am  139  ASN139     -0.1960
    144  CA        -6.2290  -16.7690  -19.3840 C.3   139  ASN139      0.1819
    145  C         -5.4850  -17.5520  -18.3250 C.2   139  ASN139      0.2621
    146  O         -5.9630  -17.7240  -17.2160 O.2   139  ASN139     -0.2715
    147  CB        -7.1390  -17.6910  -20.1820 C.3   139  ASN139      0.1195
    148  CG        -8.3250  -16.9650  -20.7720 C.2   139  ASN139      0.2630
    149  OD1       -8.5600  -15.7980  -20.4750 O.2   139  ASN139     -0.2716
    150  ND2       -9.0790  -17.6550  -21.6170 N.am  139  ASN139     -0.0877
    151  N         -4.3360  -18.0840  -18.6970 N.am  140  VAL140     -0.1963
    152  CA        -3.4640  -18.7420  -17.7480 C.3   140  VAL140      0.1727
    153  C         -2.8990  -17.7140  -16.7750 C.2   140  VAL140      0.2616
    154  O         -2.6900  -16.5650  -17.1350 O.2   140  VAL140     -0.2715
    155  CB        -2.3320  -19.4780  -18.4690 C.3   140  VAL140      0.0290
    156  CG1       -1.2820  -19.9300  -17.4820 C.3   140  VAL140      0.0023
    157  CG2       -2.8850  -20.6650  -19.2310 C.3   140  VAL140      0.0023
    158  N         -2.6540  -18.1480  -15.5450 N.am  141  LEU141     -0.1977
    159  CA        -2.1710  -17.2870  -14.4810 C.3   141  LEU141      0.1596
    160  C         -0.9660  -17.9340  -13.8360 C.2   141  LEU141      0.2287
    161  O         -0.8440  -19.1480  -13.8500 O.2   141  LEU141     -0.2864
    162  CB        -3.2530  -17.1290  -13.4250 C.3   141  LEU141      0.0297
    163  CG        -4.2600  -16.0100  -13.6400 C.3   141  LEU141      0.0022
    164  CD1       -5.4560  -16.2270  -12.7370 C.3   141  LEU141      0.0001
    165  CD2       -3.6030  -14.6760  -13.3480 C.3   141  LEU141      0.0001
    166  N         -7.4800  -20.6000  -15.8310 N.3   151  THR151     -0.1203
    167  CA        -8.6100  -19.9280  -15.2090 C.3   151  THR151      0.1994
    168  C         -9.5660  -19.3150  -16.2110 C.2   151  THR151      0.2618
    169  O         -9.3420  -19.3720  -17.4100 O.2   151  THR151     -0.2717
    170  CB        -8.1460  -18.8090  -14.2830 C.3   151  THR151      0.1784
    171  OG1       -7.3400  -19.3730  -13.2490 O.3   151  THR151     -0.2211
    172  CG2       -9.3390  -18.1340  -13.6550 C.3   151  THR151      0.0376
    173  N        -10.6180  -18.6910  -15.7040 N.am  152  ASP152     -0.1959
    174  CA       -11.5600  -18.0020  -16.5600 C.3   152  ASP152      0.1840
    175  C        -12.1280  -18.9910  -17.5590 C.2   152  ASP152      0.2622
    176  O        -12.2340  -18.6960  -18.7420 O.2   152  ASP152     -0.2715
    177  CB       -10.8450  -16.8750  -17.3020 C.3   152  ASP152      0.1450
    178  CG       -11.2030  -15.5010  -16.7760 C.2   152  ASP152      0.3671
    179  OD1      -12.3840  -15.2680  -16.4610 O.co2 152  ASP152     -0.2456
    180  OD2      -10.3020  -14.6450  -16.6870 O.co2 152  ASP152     -0.2456
    181  N        -12.4930  -20.1730  -17.0830 N.am  153  PHE153     -0.1974
    182  CA       -12.9620  -21.2180  -17.9800 C.3   153  PHE153      0.1639
    183  C        -14.4220  -21.5300  -17.7830 C.2   153  PHE153      0.2290
    184  O        -14.8620  -21.7950  -16.6800 O.2   153  PHE153     -0.2864
    185  CB       -12.1360  -22.4890  -17.8080 C.3   153  PHE153      0.0560
    186  CG       -12.1830  -23.0620  -16.4260 C.ar  153  PHE153     -0.0200
    187  CD1      -13.3060  -23.7210  -15.9790 C.ar  153  PHE153     -0.0042
    188  CD2      -11.0960  -22.9530  -15.5810 C.ar  153  PHE153     -0.0042
    189  CE1      -13.3460  -24.2570  -14.7110 C.ar  153  PHE153     -0.0003
    190  CE2      -11.1280  -23.4840  -14.3120 C.ar  153  PHE153     -0.0003
    191  CZ       -12.2550  -24.1360  -13.8760 C.ar  153  PHE153     -0.0000
    192  N        -16.5400  -19.2820  -18.5150 N.3   155  LEU155     -0.1245
    193  CA       -17.1010  -17.9540  -18.3290 C.3   155  LEU155      0.1561
    194  C        -17.9830  -17.5840  -19.5150 C.2   155  LEU155      0.2260
    195  O        -19.0450  -16.9860  -19.3550 O.2   155  LEU155     -0.2867
    196  CB       -15.9840  -16.9250  -18.1500 C.3   155  LEU155      0.0270
    197  CG       -16.2690  -15.7150  -17.2590 C.3   155  LEU155      0.0019
    198  CD1      -17.1770  -16.0910  -16.1030 C.3   155  LEU155      0.0001
    199  CD2      -14.9850  -15.0890  -16.7460 C.3   155  LEU155      0.0001
@<TRIPOS>BOND
     1   138   137    1
     2   138   139    1
     3   137   136    1
     4   132   133    1
     5   150   148   am
     6   136   133    1
     7   139   140    2
     8   142   140    1
     9   133   134    1
    10   148   149    2
    11   148   147    1
    12   140   141    1
    13   143   134   am
    14   143   144    1
    15   147   144    1
    16   130   129   ar
    17   124   125    1
    18   134   135    2
    19   194   195    2
    20   194   193    1
    21   144   145    1
    22   125   126    1
    23   125   128    1
    24   157   155    1
    25   127   126    2
    26    16    15    2
    27   129   128    1
    28   129   131   ar
    29   176   175    2
    30   151   145   am
    31   151   152    1
    32   192   193    1
    33   155   152    1
    34   155   156    1
    35    15    14    1
    36   193   196    1
    37   145   146    2
    38   196   197    1
    39    18    17    1
    40    17    14    1
    41   182   185    1
    42   182   183    1
    43   182   181    1
    44   185   186    1
    45   183   184    2
    46   152   153    1
    47   122   123    1
    48   122   119    1
    49   175   181   am
    50   175   174    1
    51    14    13    1
    52   169   168    2
    53   177   178    1
    54   177   174    1
    55   197   199    1
    56   197   198    1
    57   154   153    2
    58   120   121    2
    59   120   119    1
    60    13    11   am
    61   178   180   ar
    62   178   179   ar
    63   153   158   am
    64   119   118    1
    65   174   173    1
    66   186   187   ar
    67   186   188   ar
    68   168   173   am
    69   168   167    1
    70   187   189   ar
    71   166   167    1
    72   188   190   ar
    73   158   159    1
    74    11    10    1
    75    11    12    2
    76    39    38    1
    77   118   116   am
    78   167   170    1
    79    38    37    1
    80    10     9    1
    81   189   191   ar
    82   159   160    1
    83   159   162    1
    84   190   191   ar
    85   170   172    1
    86   170   171    1
    87   116   117    2
    88   116   115    1
    89    46    45    1
    90    46    47    1
    91   161   160    2
    92    25    23    1
    93    37    36    1
    94   163   162    1
    95   163   165    1
    96   163   164    1
    97     9     3   am
    98     4     3    2
    99    19    20    1
   100    45    44    1
   101   115   114    1
   102    36    35    1
   103     3     2    1
   104    23    20    1
   105    23    24    1
   106    20    21    1
   107    44    41    1
   108    48    49    1
   109    79    78    1
   110    22    21    2
   111    35    32    1
   112     2     5    1
   113     2     1    1
   114    41    40    1
   115    41    42    1
   116    52    53    1
   117    52    49    1
   118    51    50    2
   119     5     6    1
   120    33    32    1
   121    33    34    2
   122    78    80    1
   123    78    77    1
   124    49    50    1
   125    32    31    1
   126    50    54   am
   127    42    43    2
   128    77    74    1
   129    87    88    1
   130    87    86    1
   131     6     7    1
   132     6     8    1
   133    72    70    1
   134   109   108    2
   135   111   110    1
   136   111   112    1
   137    71    70    1
   138   113   112    1
   139    54    55    1
   140   110   107    1
   141    73    74    1
   142    69    70    1
   143    69    66    1
   144    74    75    1
   145    86    85    1
   146    55    56    1
   147    55    58    1
   148   108   107    1
   149    65    56   am
   150    65    66    1
   151    76    75    2
   152    56    57    2
   153    66    67    1
   154   107   106    1
   155    30    27    1
   156    85    82    1
   157   106   100   am
   158    58    59    1
   159    92    91    2
   160    28    29    2
   161    28    27    1
   162    59    60    1
   163    27    26    1
   164    67    68    2
   165   100    99    1
   166   100   101    2
   167    82    81    1
   168    82    83    1
   169   104   103    1
   170    99    98    1
   171    99   102    1
   172    91    98   am
   173    91    90    1
   174    83    89   am
   175    83    84    2
   176    60    61    1
   177   103   102    1
   178   103   105    1
   179    89    90    1
   180    96    95    2
   181    90    93    1
   182    93    94    1
   183    63    62    1
   184    61    62    2
   185    94    95    1
   186    95    97   am
   187    62    64    1
