@<TRIPOS>MOLECULE
tmp/5gtzA00.pdb
 201 188 0 0 0
SMALL
GASTEIGER

@<TRIPOS>ATOM
      1  N        -46.1490    3.1750  -19.3340 N.3    22  LEU22      -0.1231
      2  CA       -46.9340    2.0580  -18.8350 C.3    22  LEU22       0.1693
      3  C        -46.2590    0.7300  -19.1510 C.2    22  LEU22       0.2592
      4  O        -46.2280   -0.1760  -18.3070 O.2    22  LEU22      -0.2718
      5  CB       -48.3490    2.0960  -19.4260 C.3    22  LEU22       0.0284
      6  CG       -49.1580    3.3460  -19.0670 C.3    22  LEU22       0.0019
      7  CD1      -50.6380    3.1720  -19.3400 C.3    22  LEU22       0.0001
      8  CD2      -48.9250    3.7020  -17.6190 C.3    22  LEU22       0.0001
      9  N        -45.6990    0.6030  -20.3440 N.am   23  GLY23      -0.1957
     10  CA       -45.0390   -0.6220  -20.7220 C.3    23  GLY23       0.1869
     11  C        -43.9480   -0.3480  -21.7270 C.2    23  GLY23       0.2309
     12  O        -44.1530    0.3810  -22.7040 O.2    23  GLY23      -0.2863
     13  N        -45.3490    2.2720  -24.4830 N.3    30  VAL30      -0.1245
     14  CA       -46.7270    2.6850  -24.2340 C.3    30  VAL30       0.1561
     15  C        -46.7530    3.7010  -23.1030 C.2    30  VAL30       0.2260
     16  O        -46.2890    3.4150  -21.9940 O.2    30  VAL30      -0.2867
     17  CB       -47.6120    1.4850  -23.8720 C.3    30  VAL30       0.0252
     18  CG1      -49.0650    1.8950  -23.8320 C.3    30  VAL30       0.0019
     19  CG2      -47.3860    0.3550  -24.8460 C.3    30  VAL30       0.0019
     20  N        -48.9050    6.3750  -20.6040 N.3    32  LYS32      -0.1245
     21  CA       -50.0530    7.0830  -20.0650 C.3    32  LYS32       0.1561
     22  C        -49.9290    8.5600  -20.4420 C.2    32  LYS32       0.2260
     23  O        -48.8360    9.1360  -20.3750 O.2    32  LYS32      -0.2867
     24  CB       -50.0990    6.8950  -18.5480 C.3    32  LYS32       0.0271
     25  CG       -51.1370    7.7210  -17.7960 C.3    32  LYS32       0.0035
     26  CD       -51.4000    7.1620  -16.3730 C.3    32  LYS32       0.0206
     27  CE       -50.2460    7.4180  -15.3760 C.3    32  LYS32       0.1093
     28  NZ       -50.3990    6.6820  -14.0660 N.3    32  LYS32      -0.1314
     29  N        -53.7630    6.4410  -23.7920 N.3    47  ALA47      -0.1245
     30  CA       -52.5290    5.6830  -23.8540 C.3    47  ALA47       0.1562
     31  C        -51.9330    5.8410  -25.2490 C.2    47  ALA47       0.2260
     32  O        -52.6620    5.8400  -26.2540 O.2    47  ALA47      -0.2867
     33  CB       -52.7720    4.2160  -23.5310 C.3    47  ALA47       0.0290
     34  N        -49.1420    4.4820  -27.8970 N.3    49  LYS49      -0.1245
     35  CA       -48.2660    3.3940  -28.3020 C.3    49  LYS49       0.1561
     36  C        -47.3990    3.9040  -29.4400 C.2    49  LYS49       0.2260
     37  O        -47.9170    4.2980  -30.4910 O.2    49  LYS49      -0.2867
     38  CB       -49.0590    2.1560  -28.7270 C.3    49  LYS49       0.0271
     39  CG       -48.1850    0.9580  -29.0870 C.3    49  LYS49       0.0035
     40  CD       -49.0150   -0.1240  -29.7500 C.3    49  LYS49       0.0206
     41  CE       -48.3770   -1.4800  -29.6170 C.3    49  LYS49       0.1093
     42  NZ       -49.4060   -2.5030  -29.3060 N.3    49  LYS49      -0.1314
     43  N        -52.7670   -2.3660  -37.0990 N.3    66  GLU66      -0.1245
     44  CA       -53.4830   -2.2910  -35.8320 C.3    66  GLU66       0.1567
     45  C        -54.3660   -1.0560  -35.7800 C.2    66  GLU66       0.2260
     46  O        -55.4750   -1.0990  -35.2410 O.2    66  GLU66      -0.2867
     47  CB       -52.4810   -2.2950  -34.6760 C.3    66  GLU66       0.0388
     48  CG       -53.0150   -2.8150  -33.3630 C.3    66  GLU66       0.1160
     49  CD       -52.1210   -2.4410  -32.1940 C.2    66  GLU66       0.3649
     50  OE1      -50.9400   -2.0750  -32.4320 O.co2  66  GLU66      -0.2457
     51  OE2      -52.6060   -2.5090  -31.0370 O.co2  66  GLU66      -0.2457
     52  N        -58.5230   -1.0350  -35.4570 N.3    70  MET70      -0.1245
     53  CA       -59.0880   -0.4000  -34.2690 C.3    70  MET70       0.1570
     54  C        -59.9770    0.7760  -34.6280 C.2    70  MET70       0.2261
     55  O        -60.9290    1.0920  -33.9050 O.2    70  MET70      -0.2867
     56  CB       -57.9520    0.0550  -33.3620 C.3    70  MET70       0.0387
     57  CG       -57.9050   -0.6700  -32.0540 C.3    70  MET70       0.0595
     58  SD       -56.7430    0.0930  -30.9110 S.3    70  MET70      -0.1393
     59  CE       -55.2290   -0.7430  -31.4090 C.3    70  MET70       0.0692
     60  N        -61.8480   -1.9530  -27.6420 N.3    79  CYS79      -0.1235
     61  CA       -61.1110   -0.7320  -27.3120 C.3    79  CYS79       0.1677
     62  C        -61.1710    0.2990  -28.4360 C.2    79  CYS79       0.2270
     63  O        -61.1020   -0.0390  -29.6260 O.2    79  CYS79      -0.2867
     64  CB       -59.6490   -1.0540  -26.9980 C.3    79  CYS79       0.0956
     65  SG       -59.3140   -1.6220  -25.2810 S.3    79  CYS79      -0.0801
     66  N        -55.0290    5.9980  -27.9980 N.3    94  MET94      -0.1230
     67  CA       -56.1790    5.1910  -27.6380 C.3    94  MET94       0.1702
     68  C        -56.7040    5.5780  -26.2680 C.2    94  MET94       0.2592
     69  O        -56.0110    6.2060  -25.4710 O.2    94  MET94      -0.2718
     70  CB       -55.8180    3.7120  -27.6350 C.3    94  MET94       0.0401
     71  CG       -54.5180    3.4120  -28.3080 C.3    94  MET94       0.0596
     72  SD       -54.5020    1.6960  -28.8120 S.3    94  MET94      -0.1393
     73  CE       -52.7250    1.3750  -28.9030 C.3    94  MET94       0.0692
     74  N        -57.9500    5.1920  -26.0070 N.am   95  GLN95      -0.1966
     75  CA       -58.5420    5.4400  -24.7050 C.3    95  GLN95       0.1733
     76  C        -57.7500    4.7320  -23.6260 C.2    95  GLN95       0.2616
     77  O        -57.3920    3.5650  -23.7720 O.2    95  GLN95      -0.2715
     78  CB       -59.9770    4.9500  -24.6760 C.3    95  GLN95       0.0408
     79  CG       -60.5950    5.0620  -23.3090 C.3    95  GLN95       0.0908
     80  CD       -61.8510    4.2240  -23.1690 C.2    95  GLN95       0.2608
     81  OE1      -62.1120    3.3140  -23.9670 O.2    95  GLN95      -0.2717
     82  NE2      -62.6360    4.5290  -22.1450 N.am   95  GLN95      -0.0878
     83  N        -57.4940    5.4360  -22.5300 N.am   96  LEU96      -0.1963
     84  CA       -56.7380    4.8660  -21.4240 C.3    96  LEU96       0.1728
     85  C        -57.6270    3.9960  -20.5520 C.2    96  LEU96       0.2616
     86  O        -58.7020    4.4230  -20.1180 O.2    96  LEU96      -0.2715
     87  CB       -56.1090    5.9580  -20.5660 C.3    96  LEU96       0.0311
     88  CG       -55.3820    5.3940  -19.3430 C.3    96  LEU96       0.0022
     89  CD1      -54.0950    4.6760  -19.7410 C.3    96  LEU96       0.0001
     90  CD2      -55.0890    6.4770  -18.3430 C.3    96  LEU96       0.0001
     91  N        -57.1710    2.7700  -20.2890 N.am   97  MET97      -0.1964
     92  CA       -57.8780    1.8890  -19.3670 C.3    97  MET97       0.1722
     93  C        -57.2000    1.9470  -18.0060 C.2    97  MET97       0.2458
     94  O        -56.1920    1.2600  -17.7940 O.2    97  MET97      -0.2730
     95  CB       -57.8930    0.4570  -19.9000 C.3    97  MET97       0.0427
     96  CG       -58.5130    0.3480  -21.2600 C.3    97  MET97       0.0599
     97  SD       -60.2090    0.9050  -21.2750 S.3    97  MET97      -0.1393
     98  CE       -60.3690    1.0520  -23.0480 C.3    97  MET97       0.0692
     99  N        -57.7280    2.7100  -17.0450 N.am   98  PRO98      -0.2716
    100  CA       -56.9270    3.0700  -15.8620 C.3    98  PRO98       0.1536
    101  C        -56.5530    1.9120  -14.9480 C.2    98  PRO98       0.2599
    102  O        -55.6340    2.0810  -14.1410 O.2    98  PRO98      -0.2715
    103  CB       -57.8270    4.0640  -15.1320 C.3    98  PRO98       0.0310
    104  CG       -58.7220    4.6190  -16.2000 C.3    98  PRO98       0.0237
    105  CD       -58.9680    3.5010  -17.1430 C.3    98  PRO98       0.0939
    106  N        -57.2120    0.7540  -15.0170 N.am   99  PHE99      -0.1960
    107  CA       -56.9010   -0.3130  -14.0720 C.3    99  PHE99       0.1771
    108  C        -56.0520   -1.4160  -14.6740 C.2    99  PHE99       0.2620
    109  O        -55.7240   -2.3860  -13.9780 O.2    99  PHE99      -0.2715
    110  CB       -58.1760   -0.9030  -13.4900 C.3    99  PHE99       0.0574
    111  CG       -58.9770    0.0720  -12.6690 C.ar   99  PHE99      -0.0200
    112  CD1      -59.7760    1.0150  -13.2820 C.ar   99  PHE99      -0.0042
    113  CD2      -58.9440    0.0330  -11.2850 C.ar   99  PHE99      -0.0042
    114  CE1      -60.5250    1.8940  -12.5330 C.ar   99  PHE99      -0.0003
    115  CE2      -59.6930    0.9220  -10.5340 C.ar   99  PHE99      -0.0003
    116  CZ       -60.4850    1.8430  -11.1560 C.ar   99  PHE99      -0.0000
    117  N        -55.6910   -1.2970  -15.9400 N.am  100  GLY100     -0.1940
    118  CA       -54.6300   -2.1100  -16.4840 C.3   100  GLY100      0.2014
    119  C        -55.1220   -3.3900  -17.0980 C.2   100  GLY100      0.2639
    120  O        -56.2790   -3.4840  -17.5050 O.2   100  GLY100     -0.2714
    121  N        -54.2080   -4.3540  -17.1840 N.am  101  CYS101     -0.1967
    122  CA       -54.4970   -5.7210  -17.5950 C.3   101  CYS101      0.1712
    123  C        -55.5630   -6.3010  -16.7470 C.2   101  CYS101      0.2296
    124  O        -55.4800   -6.1300  -15.5340 O.2   101  CYS101     -0.2864
    125  CB       -53.3170   -6.6010  -17.3710 C.3   101  CYS101      0.0983
    126  SG       -52.2720   -6.8540  -18.8020 S.3   101  CYS101     -0.0798
    127  N        -55.4670   -9.4120  -16.5390 N.3   103  LEU103     -0.1231
    128  CA       -54.5630  -10.3980  -15.9450 C.3   103  LEU103      0.1693
    129  C        -53.8930   -9.8630  -14.6830 C.2   103  LEU103      0.2592
    130  O        -54.0340  -10.4340  -13.5970 O.2   103  LEU103     -0.2718
    131  CB       -53.5060  -10.8230  -16.9560 C.3   103  LEU103      0.0284
    132  CG       -52.5770  -11.9260  -16.4350 C.3   103  LEU103      0.0019
    133  CD1      -53.2870  -13.2620  -16.4220 C.3   103  LEU103      0.0001
    134  CD2      -51.2990  -12.0280  -17.2650 C.3   103  LEU103      0.0001
    135  N        -53.1180   -8.7890  -14.8170 N.am  104  ASP104     -0.1974
    136  CA       -52.5690   -8.0890  -13.6650 C.3   104  ASP104      0.1709
    137  C        -53.6480   -7.8900  -12.6150 C.2   104  ASP104      0.2293
    138  O        -53.3950   -8.0760  -11.4230 O.2   104  ASP104     -0.2864
    139  CB       -52.0020   -6.7280  -14.0710 C.3   104  ASP104      0.1436
    140  CG       -50.7050   -6.8330  -14.8420 C.2   104  ASP104      0.3671
    141  OD1      -50.0100   -5.7890  -14.9430 O.co2 104  ASP104     -0.2456
    142  OD2      -50.3660   -7.9360  -15.3450 O.co2 104  ASP104     -0.2456
    143  N        -53.5290   -9.1920   -8.7310 N.3   108  GLU108     -0.1245
    144  CA       -53.3750   -8.1700   -7.7160 C.3   108  GLU108      0.1567
    145  C        -54.5350   -8.1850   -6.7290 C.2   108  GLU108      0.2260
    146  O        -54.3230   -8.0180   -5.5240 O.2   108  GLU108     -0.2867
    147  CB       -53.2370   -6.8060   -8.3740 C.3   108  GLU108      0.0388
    148  CG       -52.9450   -5.7090   -7.3920 C.3   108  GLU108      0.1160
    149  CD       -52.0280   -4.6590   -7.9680 C.2   108  GLU108      0.3649
    150  OE1      -52.0450   -4.4680   -9.2110 O.co2 108  GLU108     -0.2457
    151  OE2      -51.2930   -4.0400   -7.1650 O.co2 108  GLU108     -0.2457
    152  N        -54.3200  -11.0480  -20.7940 N.3   145  ARG145     -0.1231
    153  CA       -53.4270   -9.8990  -20.8540 C.3   145  ARG145      0.1694
    154  C        -53.8580   -8.9020  -21.9160 C.2   145  ARG145      0.2592
    155  O        -53.4480   -7.7370  -21.8570 O.2   145  ARG145     -0.2718
    156  CB       -52.0010  -10.3450  -21.1270 C.3   145  ARG145      0.0321
    157  CG       -51.8690  -10.8810  -22.5020 C.3   145  ARG145      0.0489
    158  CD       -50.5120  -11.4340  -22.7930 C.3   145  ARG145      0.2205
    159  NE       -50.4400  -11.6530  -24.2260 N.pl3 145  ARG145     -0.0865
    160  CZ       -50.7130  -12.8100  -24.8260 C.cat 145  ARG145      0.5346
    161  NH1      -51.0370  -13.8890  -24.1100 N.pl3 145  ARG145      0.1354
    162  NH2      -50.6410  -12.8940  -26.1520 N.pl3 145  ARG145      0.1354
    163  N        -54.6780   -9.3300  -22.8790 N.am  146  ASN146     -0.1974
    164  CA       -55.2160   -8.4410  -23.9000 C.3   146  ASN146      0.1688
    165  C        -56.6200   -7.9300  -23.5830 C.2   146  ASN146      0.2292
    166  O        -57.2230   -7.2690  -24.4330 O.2   146  ASN146     -0.2864
    167  CB       -55.2200   -9.1320  -25.2610 C.3   146  ASN146      0.1181
    168  CG       -53.8330   -9.2880  -25.8320 C.2   146  ASN146      0.2629
    169  OD1      -52.9990   -8.3770  -25.7310 O.2   146  ASN146     -0.2716
    170  ND2      -53.5650  -10.4490  -26.4370 N.am  146  ASN146     -0.0877
    171  N        -58.5030   -5.2820  -21.2900 N.3   148  LEU148     -0.1245
    172  CA       -58.2070   -4.1640  -20.4090 C.3   148  LEU148      0.1561
    173  C        -59.4320   -3.7680  -19.5960 C.2   148  LEU148      0.2260
    174  O        -60.5670   -4.0620  -19.9690 O.2   148  LEU148     -0.2867
    175  CB       -57.6950   -2.9560  -21.1840 C.3   148  LEU148      0.0270
    176  CG       -56.4200   -3.2550  -21.9650 C.3   148  LEU148      0.0019
    177  CD1      -55.8620   -1.9960  -22.6270 C.3   148  LEU148      0.0001
    178  CD2      -55.3830   -3.9460  -21.0710 C.3   148  LEU148      0.0001
    179  N        -58.7910   -5.9620  -26.6960 N.3   158  THR158     -0.1203
    180  CA       -57.7070   -5.2000  -27.3040 C.3   158  THR158      0.1994
    181  C        -56.6320   -6.0400  -27.9910 C.2   158  THR158      0.2617
    182  O        -56.7780   -7.2370  -28.1390 O.2   158  THR158     -0.2717
    183  CB       -57.0670   -4.2620  -26.2910 C.3   158  THR158      0.1784
    184  OG1      -56.2440   -3.3220  -26.9780 O.3   158  THR158     -0.2211
    185  CG2      -56.2320   -5.0360  -25.3260 C.3   158  THR158      0.0376
    186  N        -55.5530   -5.3920  -28.4130 N.am  159  ASP159     -0.1973
    187  CA       -54.4680   -6.0510  -29.1510 C.3   159  ASP159      0.1709
    188  C        -54.8520   -6.6950  -30.4750 C.2   159  ASP159      0.2293
    189  O        -54.8580   -7.9070  -30.6180 O.2   159  ASP159     -0.2864
    190  CB       -53.7100   -7.0460  -28.2760 C.3   159  ASP159      0.1436
    191  CG       -52.2800   -7.2560  -28.7400 C.2   159  ASP159      0.3671
    192  OD1      -51.4920   -6.2960  -28.7160 O.co2 159  ASP159     -0.2456
    193  OD2      -51.9350   -8.3840  -29.1310 O.co2 159  ASP159     -0.2456
    194  N        -52.8790    9.9340  -10.7260 N.3   298  LEU298     -0.1245
    195  CA       -52.4620    9.6110  -12.0750 C.3   298  LEU298      0.1561
    196  C        -52.6640   10.8250  -12.9740 C.2   298  LEU298      0.2260
    197  O        -53.7110   11.4610  -12.9520 O.2   298  LEU298     -0.2867
    198  CB       -53.2700    8.4310  -12.5900 C.3   298  LEU298      0.0270
    199  CG       -54.5780    8.8190  -13.2560 C.3   298  LEU298      0.0019
    200  CD1      -54.2640    9.7630  -14.4020 C.3   298  LEU298      0.0001
    201  CD2      -55.2980    7.5770  -13.7540 C.3   298  LEU298      0.0001
@<TRIPOS>BOND
     1    43    44    1
     2    44    45    1
     3    44    47    1
     4    45    46    2
     5    52    53    1
     6    47    48    1
     7    54    53    1
     8    54    55    2
     9    53    56    1
    10    48    49    1
    11    56    57    1
    12    50    49   ar
    13    49    51   ar
    14    57    58    1
    15    59    58    1
    16   189   188    2
    17    37    36    2
    18   188   187    1
    19    40    41    1
    20    40    39    1
    21    63    62    2
    22    41    42    1
    23    36    35    1
    24   187   186    1
    25   187   190    1
    26   193   191   ar
    27    39    38    1
    28    73    72    1
    29    72    71    1
    30   191   192   ar
    31   191   190    1
    32    38    35    1
    33    62    61    1
    34   186   181   am
    35    71    70    1
    36    35    34    1
    37   182   181    2
    38    66    67    1
    39   181   180    1
    40    60    61    1
    41    67    70    1
    42    67    68    1
    43    61    64    1
    44   180   179    1
    45   180   183    1
    46    64    65    1
    47   184   183    1
    48   170   168   am
    49   183   185    1
    50    68    74   am
    51    68    69    2
    52    32    31    2
    53   162   160    1
    54    74    75    1
    55   168   169    2
    56   168   167    1
    57   167   164    1
    58    31    30    1
    59    19    17    1
    60   160   159    2
    61   160   161    1
    62    75    78    1
    63    75    76    1
    64    78    79    1
    65    13    14    1
    66   166   165    2
    67    14    17    1
    68    14    15    1
    69   159   158    1
    70    81    80    2
    71   164   165    1
    72   164   163    1
    73    17    18    1
    74    30    29    1
    75    30    33    1
    76    77    76    2
    77    76    83   am
    78    79    80    1
    79    80    82   am
    80    15    16    2
    81    98    97    1
    82   163   154   am
    83   158   157    1
    84    12    11    2
    85   177   176    1
    86    83    84    1
    87   157   156    1
    88   176   175    1
    89   176   178    1
    90   154   155    2
    91   154   153    1
    92    11    10    1
    93    84    87    1
    94    84    85    1
    95   171   172    1
    96    97    96    1
    97    96    95    1
    98   175   172    1
    99   156   153    1
   100   153   152    1
   101    10     9    1
   102    20    21    1
   103    87    88    1
   104    85    91   am
   105    85    86    2
   106    22    23    2
   107    22    21    1
   108   172   173    1
   109     9     3   am
   110    91    92    1
   111    21    24    1
   112   174   173    2
   113    95    92    1
   114    89    88    1
   115     5     6    1
   116     5     2    1
   117    92    93    1
   118    88    90    1
   119     7     6    1
   120     1     2    1
   121     3     2    1
   122     3     4    2
   123     6     8    1
   124   126   125    1
   125    24    25    1
   126    93    94    2
   127    93    99   am
   128    25    26    1
   129   122   125    1
   130   122   121    1
   131   122   123    1
   132   120   119    2
   133   134   132    1
   134   121   119   am
   135   105    99    1
   136   105   104    1
   137   119   118    1
   138    99   100    1
   139   131   132    1
   140   131   128    1
   141   123   124    2
   142   127   128    1
   143   118   117    1
   144   132   133    1
   145    26    27    1
   146   104   103    1
   147   128   129    1
   148   117   108   am
   149   100   103    1
   150   100   101    1
   151    27    28    1
   152   142   140   ar
   153   106   101   am
   154   106   107    1
   155   101   102    2
   156   141   140   ar
   157   140   139    1
   158   135   129   am
   159   135   136    1
   160   129   130    2
   161   108   107    1
   162   108   109    2
   163   200   199    1
   164   107   110    1
   165   139   136    1
   166   201   199    1
   167   136   137    1
   168   110   111    1
   169   112   111   ar
   170   112   114   ar
   171   199   198    1
   172   196   197    2
   173   196   195    1
   174   111   113   ar
   175   137   138    2
   176   198   195    1
   177   114   116   ar
   178   195   194    1
   179   113   115   ar
   180   116   115   ar
   181   150   149   ar
   182   143   144    1
   183   147   144    1
   184   147   148    1
   185   149   148    1
   186   149   151   ar
   187   144   145    1
   188   145   146    2
