@<TRIPOS>MOLECULE
tmp/5gubA00.pdb
 188 178 0 0 0
SMALL
GASTEIGER

@<TRIPOS>ATOM
      1  N        -24.6020  -23.8840   11.2850 N.3    10  HIS10      -0.1226
      2  CA       -23.6500  -22.9080   10.7690 C.3    10  HIS10       0.1752
      3  C        -24.2320  -21.5170   10.9140 C.2    10  HIS10       0.2595
      4  O        -25.3800  -21.2880   10.5660 O.2    10  HIS10      -0.2718
      5  CB       -23.3000  -23.1790    9.3020 C.3    10  HIS10       0.0759
      6  CG       -22.2210  -22.2780    8.7770 C.ar   10  HIS10       0.0818
      7  ND1      -21.0510  -22.0510    9.4730 N.ar   10  HIS10      -0.2268
      8  CD2      -22.1420  -21.5260    7.6540 C.ar   10  HIS10       0.1154
      9  CE1      -20.2960  -21.2000    8.7980 C.ar   10  HIS10       0.1986
     10  NE2      -20.9350  -20.8640    7.6920 N.ar   10  HIS10      -0.2212
     11  N        -23.4210  -20.6000   11.4230 N.am   11  LEU11      -0.1980
     12  CA       -23.8300  -19.2130   11.6160 C.3    11  LEU11       0.1596
     13  C        -25.1730  -19.1360   12.3520 C.2    11  LEU11       0.2287
     14  O        -26.0720  -18.3600   11.9760 O.2    11  LEU11      -0.2864
     15  CB       -23.8760  -18.4840   10.2710 C.3    11  LEU11       0.0297
     16  CG       -22.4870  -18.2950    9.6450 C.3    11  LEU11       0.0022
     17  CD1      -22.5900  -17.7650    8.2160 C.3    11  LEU11       0.0001
     18  CD2      -21.6570  -17.3340   10.5070 C.3    11  LEU11       0.0001
     19  N        -17.8200  -27.0030   13.8490 N.3    64  GLU64      -0.1245
     20  CA       -16.8870  -25.9410   13.4860 C.3    64  GLU64       0.1567
     21  C        -15.5410  -26.0860   14.2010 C.2    64  GLU64       0.2260
     22  O        -14.5210  -25.5920   13.7130 O.2    64  GLU64      -0.2867
     23  CB       -17.5000  -24.5600   13.7660 C.3    64  GLU64       0.0388
     24  CG       -16.6320  -23.3980   13.2340 C.3    64  GLU64       0.1160
     25  CD       -17.3420  -22.0470   13.1640 C.2    64  GLU64       0.3649
     26  OE1      -18.4790  -21.9760   12.6460 O.co2  64  GLU64      -0.2457
     27  OE2      -16.7490  -21.0480   13.6340 O.co2  64  GLU64      -0.2457
     28  N        -13.9270  -28.2830    5.8460 N.3   118  ASN118     -0.1240
     29  CA       -14.4990  -27.3520    4.8940 C.3   118  ASN118      0.1653
     30  C        -13.4030  -26.3840    4.4640 C.2   118  ASN118      0.2266
     31  O        -13.0290  -25.4950    5.2190 O.2   118  ASN118     -0.2867
     32  CB       -15.6870  -26.5950    5.4920 C.3   118  ASN118      0.1155
     33  CG       -16.6120  -26.0510    4.4250 C.2   118  ASN118      0.2627
     34  OD1      -17.5460  -26.7340    3.9900 O.2   118  ASN118     -0.2716
     35  ND2      -16.3490  -24.8200    3.9760 N.am  118  ASN118     -0.0877
     36  N        -11.4150  -23.4130    2.6250 N.3   120  TYR120     -0.1241
     37  CA       -11.4290  -22.1660    1.8740 C.3   120  TYR120      0.1605
     38  C        -10.6180  -22.3740    0.5930 C.2   120  TYR120      0.2264
     39  O         -9.8830  -23.3590    0.4790 O.2   120  TYR120     -0.2867
     40  CB       -10.8380  -21.0190    2.7040 C.3   120  TYR120      0.0534
     41  CG       -11.7410  -20.5000    3.8080 C.ar  120  TYR120     -0.0201
     42  CD1      -12.9060  -19.8010    3.5090 C.ar  120  TYR120     -0.0009
     43  CD2      -11.4040  -20.6720    5.1480 C.ar  120  TYR120     -0.0009
     44  CE1      -13.7340  -19.3090    4.5180 C.ar  120  TYR120      0.0417
     45  CE2      -12.2230  -20.1830    6.1620 C.ar  120  TYR120      0.0417
     46  CZ       -13.3810  -19.5040    5.8430 C.ar  120  TYR120      0.1957
     47  OH       -14.1890  -19.0040    6.8520 O.3   120  TYR120     -0.2866
     48  N        -10.6220  -10.4670    7.0000 N.3   129  GLN129     -0.1245
     49  CA       -11.1770   -9.1930    7.4600 C.3   129  GLN129      0.1566
     50  C        -10.2670   -8.0020    7.1970 C.2   129  GLN129      0.2260
     51  O         -9.0400   -8.1260    7.1010 O.2   129  GLN129     -0.2867
     52  CB       -11.5210   -9.2680    8.9590 C.3   129  GLN129      0.0367
     53  CG       -12.5180  -10.3860    9.2670 C.3   129  GLN129      0.0905
     54  CD       -13.0960  -10.3580   10.6830 C.2   129  GLN129      0.2608
     55  OE1      -13.7980  -11.2900   11.0820 O.2   129  GLN129     -0.2717
     56  NE2      -12.7920   -9.3120   11.4500 N.am  129  GLN129     -0.0878
     57  N        -19.5470   -7.6300   13.7590 N.3   178  ARG178     -0.1245
     58  CA       -20.5650   -8.5910   13.3290 C.3   178  ARG178      0.1563
     59  C        -20.1570   -9.9780   13.8050 C.2   178  ARG178      0.2260
     60  O        -19.0840  -10.4730   13.4650 O.2   178  ARG178     -0.2867
     61  CB       -20.7420   -8.5510   11.8080 C.3   178  ARG178      0.0307
     62  CG       -21.8400   -9.4860   11.2760 C.3   178  ARG178      0.0489
     63  CD       -22.0060   -9.2740    9.7700 C.3   178  ARG178      0.2205
     64  NE       -20.7910   -9.6390    9.0380 N.pl3 178  ARG178     -0.0865
     65  CZ       -20.6240  -10.7710    8.3530 C.cat 178  ARG178      0.5346
     66  NH1      -21.6120  -11.6650    8.2250 N.pl3 178  ARG178      0.1354
     67  NH2      -19.4700  -10.9940    7.7420 N.pl3 178  ARG178      0.1354
     68  N        -16.0910  -14.2610   18.4750 N.3   184  LYS184     -0.1245
     69  CA       -16.0740  -13.4410   17.2650 C.3   184  LYS184      0.1561
     70  C        -16.1620  -11.9420   17.5720 C.2   184  LYS184      0.2260
     71  O        -15.5930  -11.1250   16.8400 O.2   184  LYS184     -0.2867
     72  CB       -17.1970  -13.8450   16.3080 C.3   184  LYS184      0.0271
     73  CG       -16.8660  -15.0740   15.4910 C.3   184  LYS184      0.0035
     74  CD       -17.9670  -15.3460   14.4640 C.3   184  LYS184      0.0206
     75  CE       -17.6020  -16.5400   13.5930 C.3   184  LYS184      0.1093
     76  NZ       -18.6420  -16.8060   12.5620 N.3   184  LYS184     -0.1314
     77  N        -25.7670  -11.3490   14.2690 N.3   240  LEU240     -0.1245
     78  CA       -25.2410  -11.2860   12.9080 C.3   240  LEU240      0.1561
     79  C        -25.9170  -10.2460   12.0170 C.2   240  LEU240      0.2260
     80  O        -25.3900   -9.9100   10.9670 O.2   240  LEU240     -0.2867
     81  CB       -25.3270  -12.6710   12.2580 C.3   240  LEU240      0.0270
     82  CG       -24.3170  -13.6640   12.8440 C.3   240  LEU240      0.0019
     83  CD1      -24.5930  -15.0770   12.3490 C.3   240  LEU240      0.0001
     84  CD2      -22.8970  -13.2460   12.4570 C.3   240  LEU240      0.0001
     85  N        -14.2700   -6.2460    9.4080 N.3   257  ASP257     -0.1225
     86  CA       -15.1350   -7.3300    8.9300 C.3   257  ASP257      0.1805
     87  C        -14.6360   -7.8290    7.5730 C.2   257  ASP257      0.2597
     88  O        -13.7510   -7.2250    6.9640 O.2   257  ASP257     -0.2718
     89  CB       -16.5930   -6.8290    8.8480 C.3   257  ASP257      0.1424
     90  CG       -17.6380   -7.9490    8.8890 C.2   257  ASP257      0.3668
     91  OD1      -17.3180   -9.1580    8.7000 O.co2 257  ASP257     -0.2456
     92  OD2      -18.8230   -7.5910    9.0710 O.co2 257  ASP257     -0.2456
     93  N        -15.2000   -8.9400    7.1150 N.am  258  TRP258     -0.1976
     94  CA       -14.7650   -9.5660    5.8750 C.3   258  TRP258      0.1640
     95  C        -14.8050   -8.6120    4.6930 C.2   258  TRP258      0.2290
     96  O        -15.7590   -7.8460    4.5180 O.2   258  TRP258     -0.2864
     97  CB       -15.6320  -10.7780    5.5990 C.3   258  TRP258      0.0576
     98  CG       -15.3400  -11.9180    6.5060 C.ar  258  TRP258      0.0006
     99  CD1      -15.7160  -12.0610    7.8160 C.ar  258  TRP258      0.0946
    100  CD2      -14.6070  -13.0940    6.1650 C.ar  258  TRP258      0.0152
    101  NE1      -15.2590  -13.2720    8.3120 N.ar  258  TRP258     -0.2442
    102  CE2      -14.5670  -13.9160    7.3130 C.ar  258  TRP258      0.0810
    103  CE3      -13.9560  -13.5240    5.0030 C.ar  258  TRP258      0.0012
    104  CZ2      -13.9190  -15.1480    7.3210 C.ar  258  TRP258      0.0191
    105  CZ3      -13.3250  -14.7500    5.0100 C.ar  258  TRP258      0.0001
    106  CH2      -13.3050  -15.5480    6.1650 C.ar  258  TRP258      0.0015
    107  N        -12.1080  -24.4300    7.7090 N.3   300  LEU300     -0.1245
    108  CA       -12.8730  -24.1500    8.9220 C.3   300  LEU300      0.1561
    109  C        -13.7900  -25.3290    9.2070 C.2   300  LEU300      0.2260
    110  O        -14.6860  -25.6150    8.4120 O.2   300  LEU300     -0.2867
    111  CB       -13.7050  -22.8800    8.7510 C.3   300  LEU300      0.0270
    112  CG       -14.6840  -22.5500    9.8820 C.3   300  LEU300      0.0019
    113  CD1      -13.8850  -22.1100   11.0970 C.3   300  LEU300      0.0001
    114  CD2      -15.6870  -21.4790    9.4620 C.3   300  LEU300      0.0001
    115  N        -22.5210  -26.2650   -4.3010 N.3   331  TRP331     -0.1241
    116  CA       -22.2250  -25.7470   -2.9590 C.3   331  TRP331      0.1605
    117  C        -21.8260  -24.2720   -3.0220 C.2   331  TRP331      0.2264
    118  O        -22.2260  -23.4610   -2.1870 O.2   331  TRP331     -0.2867
    119  CB       -21.1150  -26.5600   -2.2860 C.3   331  TRP331      0.0550
    120  CG       -20.9210  -26.1820   -0.8430 C.ar  331  TRP331      0.0003
    121  CD1      -21.5750  -26.7090    0.2340 C.ar  331  TRP331      0.0946
    122  CD2      -20.0090  -25.2030   -0.3180 C.ar  331  TRP331      0.0152
    123  NE1      -21.1360  -26.1150    1.3990 N.ar  331  TRP331     -0.2442
    124  CE2      -20.1740  -25.1870    1.0840 C.ar  331  TRP331      0.0810
    125  CE3      -19.0820  -24.3270   -0.9000 C.ar  331  TRP331      0.0012
    126  CZ2      -19.4350  -24.3470    1.9110 C.ar  331  TRP331      0.0191
    127  CZ3      -18.3430  -23.4930   -0.0710 C.ar  331  TRP331      0.0001
    128  CH2      -18.5270  -23.5090    1.3150 C.ar  331  TRP331      0.0015
    129  N        -23.8770  -12.3940   -0.7300 N.3   363  LEU363     -0.1245
    130  CA       -23.5910  -13.5870    0.0530 C.3   363  LEU363      0.1561
    131  C        -24.8000  -13.9830    0.8850 C.2   363  LEU363      0.2260
    132  O        -25.0720  -15.1660    1.0700 O.2   363  LEU363     -0.2867
    133  CB       -22.3700  -13.3720    0.9610 C.3   363  LEU363      0.0270
    134  CG       -22.0060  -14.5150    1.9060 C.3   363  LEU363      0.0019
    135  CD1      -21.9380  -15.8310    1.1830 C.3   363  LEU363      0.0001
    136  CD2      -20.6600  -14.2300    2.6050 C.3   363  LEU363      0.0001
    137  N        -26.5170  -17.6410    0.8580 N.3   367  ARG367     -0.1245
    138  CA       -26.7050  -18.4590    2.0540 C.3   367  ARG367      0.1563
    139  C        -28.1720  -18.8490    2.2170 C.2   367  ARG367      0.2260
    140  O        -28.4710  -19.9150    2.7200 O.2   367  ARG367     -0.2867
    141  CB       -26.2090  -17.7410    3.3160 C.3   367  ARG367      0.0307
    142  CG       -24.6880  -17.5690    3.3640 C.3   367  ARG367      0.0489
    143  CD       -24.2080  -17.2210    4.7730 C.3   367  ARG367      0.2205
    144  NE       -22.7650  -16.9840    4.7940 N.pl3 367  ARG367     -0.0865
    145  CZ       -21.8560  -17.9540    4.7590 C.cat 367  ARG367      0.5346
    146  NH1      -22.2470  -19.2260    4.7260 N.pl3 367  ARG367      0.1354
    147  NH2      -20.5630  -17.6550    4.7680 N.pl3 367  ARG367      0.1354
    148  N        -22.7470  -22.1260    0.2930 N.3   372  GLN372     -0.1245
    149  CA       -21.7160  -21.7160    1.2500 C.3   372  GLN372      0.1566
    150  C        -21.9810  -22.2140    2.6700 C.2   372  GLN372      0.2260
    151  O        -21.3980  -21.6970    3.6350 O.2   372  GLN372     -0.2867
    152  CB       -21.5810  -20.1830    1.2560 C.3   372  GLN372      0.0367
    153  CG       -21.1160  -19.6050   -0.0870 C.3   372  GLN372      0.0905
    154  CD       -19.7450  -20.1210   -0.4750 C.2   372  GLN372      0.2608
    155  OE1      -18.8560  -20.2360    0.3660 O.2   372  GLN372     -0.2717
    156  NE2      -19.5630  -20.4300   -1.7590 N.am  372  GLN372     -0.0878
    157  N        -21.2890  -24.2360    5.6390 N.3   374  ARG374     -0.1245
    158  CA       -20.1020  -24.9240    6.1290 C.3   374  ARG374      0.1563
    159  C        -20.3890  -26.3700    6.5060 C.2   374  ARG374      0.2260
    160  O        -21.1550  -26.6290    7.4150 O.2   374  ARG374     -0.2867
    161  CB       -19.5260  -24.1610    7.3290 C.3   374  ARG374      0.0307
    162  CG       -18.0510  -24.4110    7.6040 C.3   374  ARG374      0.0489
    163  CD       -17.8000  -25.6730    8.4040 C.3   374  ARG374      0.2205
    164  NE       -18.6250  -25.7790    9.6140 N.pl3 374  ARG374     -0.0865
    165  CZ       -19.0380  -26.9450   10.1040 C.cat 374  ARG374      0.5346
    166  NH1      -18.6930  -28.0690    9.4850 N.pl3 374  ARG374      0.1354
    167  NH2      -19.8060  -27.0000   11.1900 N.pl3 374  ARG374      0.1354
    168  N        -14.4450  -24.6450   -1.0340 N.3   379  GLN379     -0.1245
    169  CA       -14.8090  -23.3600   -1.6240 C.3   379  GLN379      0.1566
    170  C        -14.0500  -23.0800   -2.9300 C.2   379  GLN379      0.2260
    171  O        -12.9170  -23.5230   -3.1170 O.2   379  GLN379     -0.2867
    172  CB       -14.5630  -22.2340   -0.6180 C.3   379  GLN379      0.0367
    173  CG       -15.1090  -20.8800   -1.0450 C.3   379  GLN379      0.0905
    174  CD       -14.8910  -19.8350    0.0370 C.2   379  GLN379      0.2608
    175  OE1      -13.7770  -19.3380    0.2210 O.2   379  GLN379     -0.2717
    176  NE2      -15.9410  -19.5310    0.7800 N.am  379  GLN379     -0.0878
    177  N        -16.4810  -18.1380   -7.0650 N.3   383  TYR383     -0.1241
    178  CA       -17.7880  -17.7630   -6.5200 C.3   383  TYR383      0.1605
    179  C        -17.6720  -16.3720   -5.8880 C.2   383  TYR383      0.2264
    180  O        -18.5390  -15.5210   -6.0700 O.2   383  TYR383     -0.2867
    181  CB       -18.3130  -18.8070   -5.4860 C.3   383  TYR383      0.0534
    182  CG       -18.4340  -18.2600   -4.0740 C.ar  383  TYR383     -0.0201
    183  CD1      -17.3610  -18.3140   -3.1900 C.ar  383  TYR383     -0.0009
    184  CD2      -19.6160  -17.6670   -3.6370 C.ar  383  TYR383     -0.0009
    185  CE1      -17.4600  -17.7730   -1.8990 C.ar  383  TYR383      0.0417
    186  CE2      -19.7250  -17.1320   -2.3600 C.ar  383  TYR383      0.0417
    187  CZ       -18.6410  -17.1850   -1.4990 C.ar  383  TYR383      0.1957
    188  OH       -18.7670  -16.6370   -0.2330 O.3   383  TYR383     -0.2866
@<TRIPOS>BOND
     1   177   178    1
     2   178   179    1
     3   178   181    1
     4   180   179    2
     5   181   182    1
     6   115   116    1
     7   182   184   ar
     8   182   183   ar
     9   184   186   ar
    10   183   185   ar
    11   171   170    2
    12   117   116    1
    13   117   118    2
    14   116   119    1
    15   170   169    1
    16   186   187   ar
    17   119   120    1
    18   185   187   ar
    19   156   154   am
    20   169   168    1
    21   169   172    1
    22   187   188    1
    23   173   172    1
    24   173   174    1
    25   125   122   ar
    26   125   127   ar
    27   120   122   ar
    28   120   121   ar
    29   129   130    1
    30   154   153    1
    31   154   155    2
    32   122   124   ar
    33   153   152    1
    34   127   128   ar
    35   174   175    2
    36   174   176   am
    37   130   131    1
    38   130   133    1
    39   121   123   ar
    40   148   149    1
    41    39    38    2
    42    38    37    1
    43   137   138    1
    44   131   132    2
    45   133   134    1
    46   124   123   ar
    47   124   126   ar
    48   135   134    1
    49   149   152    1
    50   149   150    1
    51   128   126   ar
    52    37    36    1
    53    37    40    1
    54   134   136    1
    55   138   139    1
    56   138   141    1
    57   139   140    2
    58   150   151    2
    59    40    41    1
    60   141   142    1
    61   142   143    1
    62    42    41   ar
    63    42    44   ar
    64    41    43   ar
    65    35    33   am
    66    34    33    2
    67    33    32    1
    68    30    29    1
    69    30    31    2
    70    96    95    2
    71    44    46   ar
    72    95    94    1
    73   146   145    1
    74   145   147    1
    75   145   144    2
    76   143   144    1
    77    29    32    1
    78    29    28    1
    79   103   105   ar
    80   103   100   ar
    81   105   106   ar
    82    43    45   ar
    83    97    94    1
    84    97    98    1
    85   157   158    1
    86    46    45   ar
    87    46    47    1
    88    94    93    1
    89   158   159    1
    90   158   161    1
    91   106   104   ar
    92   100    98   ar
    93   100   102   ar
    94    98    99   ar
    95   159   160    2
    96    88    87    2
    97    48    49    1
    98    51    50    2
    99    93    87   am
   100    50    49    1
   101   102   104   ar
   102   102   101   ar
   103   161   162    1
   104    49    52    1
   105    87    86    1
   106   162   163    1
   107     8    10   ar
   108     8     6   ar
   109    10     9   ar
   110   107   108    1
   111    67    65    1
   112    99   101   ar
   113    17    16    1
   114    66    65    1
   115    65    64    2
   116   163   164    1
   117   110   109    2
   118    91    90   ar
   119   111   108    1
   120   111   112    1
   121     6     5    1
   122     6     7   ar
   123     9     7   ar
   124    89    90    1
   125    89    86    1
   126    90    92   ar
   127   108   109    1
   128    86    85    1
   129    52    53    1
   130    64    63    1
   131    53    54    1
   132     5     2    1
   133   114   112    1
   134   166   165    1
   135   164   165    2
   136    16    15    1
   137    16    18    1
   138    63    62    1
   139   112   113    1
   140   165   167    1
   141    15    12    1
   142     4     3    2
   143    54    55    2
   144    54    56   am
   145     2     3    1
   146     2     1    1
   147     3    11   am
   148    80    79    2
   149    62    61    1
   150    11    12    1
   151    12    13    1
   152    61    58    1
   153    14    13    2
   154    79    78    1
   155    81    82    1
   156    81    78    1
   157    83    82    1
   158    84    82    1
   159    76    75    1
   160    26    25   ar
   161    78    77    1
   162    25    24    1
   163    25    27   ar
   164    24    23    1
   165    58    57    1
   166    58    59    1
   167    60    59    2
   168    20    23    1
   169    20    19    1
   170    20    21    1
   171    75    74    1
   172    22    21    2
   173    74    73    1
   174    73    72    1
   175    72    69    1
   176    71    70    2
   177    69    70    1
   178    69    68    1
