@<TRIPOS>MOLECULE
tmp/5gubA01.pdb
 131 126 0 0 0
SMALL
GASTEIGER

@<TRIPOS>ATOM
      1  N        -11.4150  -23.4130    2.6250 N.3   120  TYR120     -0.1241
      2  CA       -11.4290  -22.1660    1.8740 C.3   120  TYR120      0.1605
      3  C        -10.6180  -22.3740    0.5930 C.2   120  TYR120      0.2264
      4  O         -9.8830  -23.3590    0.4790 O.2   120  TYR120     -0.2867
      5  CB       -10.8380  -21.0190    2.7040 C.3   120  TYR120      0.0534
      6  CG       -11.7410  -20.5000    3.8080 C.ar  120  TYR120     -0.0201
      7  CD1      -12.9060  -19.8010    3.5090 C.ar  120  TYR120     -0.0009
      8  CD2      -11.4040  -20.6720    5.1480 C.ar  120  TYR120     -0.0009
      9  CE1      -13.7340  -19.3090    4.5180 C.ar  120  TYR120      0.0417
     10  CE2      -12.2230  -20.1830    6.1620 C.ar  120  TYR120      0.0417
     11  CZ       -13.3810  -19.5040    5.8430 C.ar  120  TYR120      0.1957
     12  OH       -14.1890  -19.0040    6.8520 O.3   120  TYR120     -0.2866
     13  N        -19.5470   -7.6300   13.7590 N.3   178  ARG178     -0.1245
     14  CA       -20.5650   -8.5910   13.3290 C.3   178  ARG178      0.1563
     15  C        -20.1570   -9.9780   13.8050 C.2   178  ARG178      0.2260
     16  O        -19.0840  -10.4730   13.4650 O.2   178  ARG178     -0.2867
     17  CB       -20.7420   -8.5510   11.8080 C.3   178  ARG178      0.0307
     18  CG       -21.8400   -9.4860   11.2760 C.3   178  ARG178      0.0489
     19  CD       -22.0060   -9.2740    9.7700 C.3   178  ARG178      0.2205
     20  NE       -20.7910   -9.6390    9.0380 N.pl3 178  ARG178     -0.0865
     21  CZ       -20.6240  -10.7710    8.3530 C.cat 178  ARG178      0.5346
     22  NH1      -21.6120  -11.6650    8.2250 N.pl3 178  ARG178      0.1354
     23  NH2      -19.4700  -10.9940    7.7420 N.pl3 178  ARG178      0.1354
     24  N        -15.2000   -8.9400    7.1150 N.3   258  TRP258     -0.1241
     25  CA       -14.7650   -9.5660    5.8750 C.3   258  TRP258      0.1605
     26  C        -14.8050   -8.6120    4.6930 C.2   258  TRP258      0.2264
     27  O        -15.7590   -7.8460    4.5180 O.2   258  TRP258     -0.2867
     28  CB       -15.6320  -10.7780    5.5990 C.3   258  TRP258      0.0550
     29  CG       -15.3400  -11.9180    6.5060 C.ar  258  TRP258      0.0003
     30  CD1      -15.7160  -12.0610    7.8160 C.ar  258  TRP258      0.0946
     31  CD2      -14.6070  -13.0940    6.1650 C.ar  258  TRP258      0.0152
     32  NE1      -15.2590  -13.2720    8.3120 N.ar  258  TRP258     -0.2442
     33  CE2      -14.5670  -13.9160    7.3130 C.ar  258  TRP258      0.0810
     34  CE3      -13.9560  -13.5240    5.0030 C.ar  258  TRP258      0.0012
     35  CZ2      -13.9190  -15.1480    7.3210 C.ar  258  TRP258      0.0191
     36  CZ3      -13.3250  -14.7500    5.0100 C.ar  258  TRP258      0.0001
     37  CH2      -13.3050  -15.5480    6.1650 C.ar  258  TRP258      0.0015
     38  N        -15.0040   -8.7290    1.2160 N.3   260  ALA260     -0.1231
     39  CA       -15.9610   -8.7160    0.0960 C.3   260  ALA260      0.1694
     40  C        -17.3660   -8.3310    0.5260 C.2   260  ALA260      0.2592
     41  O        -17.9600   -7.4560   -0.0790 O.2   260  ALA260     -0.2718
     42  CB       -15.9860  -10.0580   -0.6280 C.3   260  ALA260      0.0304
     43  N        -17.9080   -8.9670    1.5650 N.am  261  SER261     -0.1952
     44  CA       -19.2780   -8.6530    1.9540 C.3   261  SER261      0.1924
     45  C        -19.3840   -7.2290    2.5090 C.2   261  SER261      0.2314
     46  O        -20.3890   -6.5680    2.3190 O.2   261  SER261     -0.2863
     47  CB       -19.8290   -9.6670    2.9710 C.3   261  SER261      0.2116
     48  OG       -19.0800   -9.7010    4.1690 O.3   261  SER261     -0.2180
     49  N         -7.3420  -15.4530    6.2980 N.3   296  ARG296     -0.1245
     50  CA        -8.1240  -16.6460    6.0530 C.3   296  ARG296      0.1563
     51  C         -7.2890  -17.8740    6.4620 C.2   296  ARG296      0.2260
     52  O         -6.0600  -17.8880    6.3130 O.2   296  ARG296     -0.2867
     53  CB        -8.5460  -16.7030    4.5790 C.3   296  ARG296      0.0307
     54  CG        -9.8710  -17.3970    4.3340 C.3   296  ARG296      0.0489
     55  CD       -10.3240  -17.2230    2.8800 C.3   296  ARG296      0.2205
     56  NE       -10.6860  -15.8350    2.5800 N.pl3 296  ARG296     -0.0865
     57  CZ       -11.6820  -15.4810    1.7710 C.cat 296  ARG296      0.5346
     58  NH1      -12.4170  -16.4070    1.1720 N.pl3 296  ARG296      0.1354
     59  NH2      -11.9350  -14.1950    1.5500 N.pl3 296  ARG296      0.1354
     60  N        -23.8770  -12.3940   -0.7300 N.3   363  LEU363     -0.1245
     61  CA       -23.5910  -13.5870    0.0530 C.3   363  LEU363      0.1561
     62  C        -24.8000  -13.9830    0.8850 C.2   363  LEU363      0.2260
     63  O        -25.0720  -15.1660    1.0700 O.2   363  LEU363     -0.2867
     64  CB       -22.3700  -13.3720    0.9610 C.3   363  LEU363      0.0270
     65  CG       -22.0060  -14.5150    1.9060 C.3   363  LEU363      0.0019
     66  CD1      -21.9380  -15.8310    1.1830 C.3   363  LEU363      0.0001
     67  CD2      -20.6600  -14.2300    2.6050 C.3   363  LEU363      0.0001
     68  N        -26.5170  -17.6410    0.8580 N.3   367  ARG367     -0.1245
     69  CA       -26.7050  -18.4590    2.0540 C.3   367  ARG367      0.1563
     70  C        -28.1720  -18.8490    2.2170 C.2   367  ARG367      0.2260
     71  O        -28.4710  -19.9150    2.7200 O.2   367  ARG367     -0.2867
     72  CB       -26.2090  -17.7410    3.3160 C.3   367  ARG367      0.0307
     73  CG       -24.6880  -17.5690    3.3640 C.3   367  ARG367      0.0489
     74  CD       -24.2080  -17.2210    4.7730 C.3   367  ARG367      0.2205
     75  NE       -22.7650  -16.9840    4.7940 N.pl3 367  ARG367     -0.0865
     76  CZ       -21.8560  -17.9540    4.7590 C.cat 367  ARG367      0.5346
     77  NH1      -22.2470  -19.2260    4.7260 N.pl3 367  ARG367      0.1354
     78  NH2      -20.5630  -17.6550    4.7680 N.pl3 367  ARG367      0.1354
     79  N        -22.7470  -22.1260    0.2930 N.3   372  GLN372     -0.1245
     80  CA       -21.7160  -21.7160    1.2500 C.3   372  GLN372      0.1566
     81  C        -21.9810  -22.2140    2.6700 C.2   372  GLN372      0.2260
     82  O        -21.3980  -21.6970    3.6350 O.2   372  GLN372     -0.2867
     83  CB       -21.5810  -20.1830    1.2560 C.3   372  GLN372      0.0367
     84  CG       -21.1160  -19.6050   -0.0870 C.3   372  GLN372      0.0905
     85  CD       -19.7450  -20.1210   -0.4750 C.2   372  GLN372      0.2608
     86  OE1      -18.8560  -20.2360    0.3660 O.2   372  GLN372     -0.2717
     87  NE2      -19.5630  -20.4300   -1.7590 N.am  372  GLN372     -0.0878
     88  N        -14.4450  -24.6450   -1.0340 N.3   379  GLN379     -0.1245
     89  CA       -14.8090  -23.3600   -1.6240 C.3   379  GLN379      0.1566
     90  C        -14.0500  -23.0800   -2.9300 C.2   379  GLN379      0.2260
     91  O        -12.9170  -23.5230   -3.1170 O.2   379  GLN379     -0.2867
     92  CB       -14.5630  -22.2340   -0.6180 C.3   379  GLN379      0.0367
     93  CG       -15.1090  -20.8800   -1.0450 C.3   379  GLN379      0.0905
     94  CD       -14.8910  -19.8350    0.0370 C.2   379  GLN379      0.2608
     95  OE1      -13.7770  -19.3380    0.2210 O.2   379  GLN379     -0.2717
     96  NE2      -15.9410  -19.5310    0.7800 N.am  379  GLN379     -0.0878
     97  N        -16.4810  -18.1380   -7.0650 N.3   383  TYR383     -0.1227
     98  CA       -17.7880  -17.7630   -6.5200 C.3   383  TYR383      0.1736
     99  C        -17.6720  -16.3720   -5.8880 C.2   383  TYR383      0.2595
    100  O        -18.5390  -15.5210   -6.0700 O.2   383  TYR383     -0.2718
    101  CB       -18.3130  -18.8070   -5.4860 C.3   383  TYR383      0.0548
    102  CG       -18.4340  -18.2600   -4.0740 C.ar  383  TYR383     -0.0200
    103  CD1      -17.3610  -18.3140   -3.1900 C.ar  383  TYR383     -0.0009
    104  CD2      -19.6160  -17.6670   -3.6370 C.ar  383  TYR383     -0.0009
    105  CE1      -17.4600  -17.7730   -1.8990 C.ar  383  TYR383      0.0417
    106  CE2      -19.7250  -17.1320   -2.3600 C.ar  383  TYR383      0.0417
    107  CZ       -18.6410  -17.1850   -1.4990 C.ar  383  TYR383      0.1957
    108  OH       -18.7670  -16.6370   -0.2330 O.3   383  TYR383     -0.2866
    109  N        -16.5890  -16.1400   -5.1530 N.am  384  GLU384     -0.1979
    110  CA       -16.4260  -14.8800   -4.4260 C.3   384  GLU384      0.1602
    111  C        -16.1330  -13.7550   -5.4130 C.2   384  GLU384      0.2287
    112  O        -16.7240  -12.6860   -5.3350 O.2   384  GLU384     -0.2864
    113  CB       -15.3180  -15.0110   -3.3670 C.3   384  GLU384      0.0415
    114  CG       -15.1740  -13.8090   -2.4160 C.3   384  GLU384      0.1163
    115  CD       -14.3380  -14.1320   -1.1770 C.2   384  GLU384      0.3649
    116  OE1      -13.7890  -13.1960   -0.5540 O.co2 384  GLU384     -0.2457
    117  OE2      -14.2590  -15.3140   -0.8010 O.co2 384  GLU384     -0.2457
    118  N        -19.2050  -12.1550   -7.2230 N.3   387  TRP387     -0.1241
    119  CA       -20.0650  -11.1010   -6.6820 C.3   387  TRP387      0.1605
    120  C        -19.2890   -9.9630   -6.0150 C.2   387  TRP387      0.2264
    121  O        -19.8630   -8.9030   -5.7670 O.2   387  TRP387     -0.2867
    122  CB       -21.0870  -11.6730   -5.6860 C.3   387  TRP387      0.0550
    123  CG       -20.5060  -12.4230   -4.5180 C.ar  387  TRP387      0.0003
    124  CD1      -20.3070  -13.7710   -4.4310 C.ar  387  TRP387      0.0946
    125  CD2      -20.0870  -11.8730   -3.2520 C.ar  387  TRP387      0.0152
    126  NE1      -19.7710  -14.0930   -3.2080 N.ar  387  TRP387     -0.2442
    127  CE2      -19.6240  -12.9480   -2.4660 C.ar  387  TRP387      0.0810
    128  CE3      -20.0460  -10.5800   -2.7200 C.ar  387  TRP387      0.0012
    129  CZ2      -19.1380  -12.7730   -1.1620 C.ar  387  TRP387      0.0191
    130  CZ3      -19.5570  -10.4050   -1.4140 C.ar  387  TRP387      0.0001
    131  CH2      -19.1060  -11.4980   -0.6600 C.ar  387  TRP387      0.0015
@<TRIPOS>BOND
     1   118   119    1
     2    97    98    1
     3   119   120    1
     4   119   122    1
     5    98    99    1
     6    98   101    1
     7   100    99    2
     8   120   121    2
     9    99   109   am
    10   122   123    1
    11   101   102    1
    12   111   112    2
    13   111   110    1
    14   109   110    1
    15   123   124   ar
    16   123   125   ar
    17   124   126   ar
    18   110   113    1
    19   102   104   ar
    20   102   103   ar
    21   104   106   ar
    22   113   114    1
    23   125   128   ar
    24   125   127   ar
    25   126   127   ar
    26   103   105   ar
    27    91    90    2
    28    90    89    1
    29   128   130   ar
    30   127   129   ar
    31   114   115    1
    32   106   107   ar
    33   105   107   ar
    34    87    85   am
    35    89    88    1
    36    89    92    1
    37   107   108    1
    38   130   131   ar
    39   115   117   ar
    40   115   116   ar
    41   129   131   ar
    42    93    92    1
    43    93    94    1
    44    60    61    1
    45    42    39    1
    46    85    84    1
    47    85    86    2
    48    84    83    1
    49    41    40    2
    50    94    95    2
    51    94    96   am
    52    61    62    1
    53    61    64    1
    54    39    40    1
    55    39    38    1
    56    79    80    1
    57     4     3    2
    58    40    43   am
    59     3     2    1
    60    68    69    1
    61    62    63    2
    62    64    65    1
    63    58    57    1
    64    66    65    1
    65    80    83    1
    66    80    81    1
    67    59    57    1
    68    43    44    1
    69    57    56    2
    70     2     1    1
    71     2     5    1
    72    65    67    1
    73    44    45    1
    74    44    47    1
    75    69    70    1
    76    69    72    1
    77    70    71    2
    78    46    45    2
    79    56    55    1
    80    81    82    2
    81     5     6    1
    82    55    54    1
    83    47    48    1
    84    72    73    1
    85    73    74    1
    86     7     6   ar
    87     7     9   ar
    88     6     8   ar
    89    54    53    1
    90     9    11   ar
    91    27    26    2
    92    53    50    1
    93    26    25    1
    94    77    76    1
    95    76    78    1
    96    76    75    2
    97    74    75    1
    98    34    36   ar
    99    34    31   ar
   100    36    37   ar
   101     8    10   ar
   102    28    25    1
   103    28    29    1
   104    11    10   ar
   105    11    12    1
   106    25    24    1
   107    50    49    1
   108    50    51    1
   109    37    35   ar
   110    31    29   ar
   111    31    33   ar
   112    52    51    2
   113    29    30   ar
   114    33    35   ar
   115    33    32   ar
   116    23    21    1
   117    30    32   ar
   118    22    21    1
   119    21    20    2
   120    20    19    1
   121    19    18    1
   122    18    17    1
   123    17    14    1
   124    14    13    1
   125    14    15    1
   126    16    15    2
