@<TRIPOS>MOLECULE
tmp/5gudF00.pdb
 112 101 0 0 0
SMALL
GASTEIGER

@<TRIPOS>ATOM
      1  N         12.5090  -12.8520   11.3780 N.3    92  LYS92      -0.1231
      2  CA        11.7830  -12.6570   10.1300 C.3    92  LYS92       0.1693
      3  C         12.2920  -13.5840    9.0460 C.2    92  LYS92       0.2593
      4  O         13.4930  -13.6500    8.8140 O.2    92  LYS92      -0.2718
      5  CB        11.9310  -11.1940    9.6710 C.3    92  LYS92       0.0285
      6  CG        11.0770  -10.8370    8.4550 C.3    92  LYS92       0.0035
      7  CD         9.6360  -10.6290    8.8640 C.3    92  LYS92       0.0206
      8  CE         8.6790  -10.5190    7.6630 C.3    92  LYS92       0.1093
      9  NZ         8.1750  -11.8480    7.1330 N.3    92  LYS92      -0.1314
     10  N         11.3830  -14.2800    8.3700 N.am   93  GLY93      -0.1942
     11  CA        11.7920  -15.1660    7.2690 C.3    93  GLY93       0.2014
     12  C         10.6820  -16.1250    6.9620 C.2    93  GLY93       0.2639
     13  O          9.7980  -16.3500    7.7860 O.2    93  GLY93      -0.2714
     14  N         10.7550  -16.7240    5.7860 N.am   94  GLY94      -0.1954
     15  CA         9.6460  -17.5320    5.3040 C.3    94  GLY94       0.1869
     16  C          9.5520  -18.9600    5.7610 C.2    94  GLY94       0.2309
     17  O         10.3330  -19.4240    6.5990 O.2    94  GLY94      -0.2863
     18  N         19.4720  -15.3840    6.3360 N.3   113  GLN113     -0.1245
     19  CA        18.4080  -14.4250    6.4850 C.3   113  GLN113      0.1566
     20  C         18.8460  -13.3120    7.4580 C.2   113  GLN113      0.2260
     21  O         18.4460  -12.1700    7.3070 O.2   113  GLN113     -0.2867
     22  CB        17.1490  -15.1350    6.9900 C.3   113  GLN113      0.0367
     23  CG        15.8920  -14.3120    6.7930 C.3   113  GLN113      0.0905
     24  CD        15.2930  -14.4380    5.4090 C.2   113  GLN113      0.2608
     25  OE1       15.1240  -15.5440    4.8750 O.2   113  GLN113     -0.2717
     26  NE2       14.8930  -13.2930    4.8350 N.am  113  GLN113     -0.0878
     27  N         20.9340  -10.8740    5.1790 N.3   116  LYS116     -0.1245
     28  CA        19.9750  -10.3060    4.2410 C.3   116  LYS116      0.1561
     29  C         19.1120   -9.2470    4.9130 C.2   116  LYS116      0.2260
     30  O         18.9770   -8.1320    4.4080 O.2   116  LYS116     -0.2867
     31  CB        19.0990  -11.4200    3.6560 C.3   116  LYS116      0.0271
     32  CG        18.0850  -10.9060    2.6410 C.3   116  LYS116      0.0035
     33  CD        17.1010  -11.9810    2.1880 C.3   116  LYS116      0.0206
     34  CE        17.7580  -13.3600    2.0870 C.3   116  LYS116      0.1093
     35  NZ        16.8600  -14.3320    1.3910 N.3   116  LYS116     -0.1314
     36  N         13.7010  -18.7270    9.9410 N.3   128  LYS128     -0.1245
     37  CA        13.1320  -19.4440    8.8070 C.3   128  LYS128      0.1561
     38  C         12.4440  -20.6770    9.3270 C.2   128  LYS128      0.2260
     39  O         12.7480  -21.1710   10.4040 O.2   128  LYS128     -0.2867
     40  CB        14.2450  -19.9020    7.8350 C.3   128  LYS128      0.0271
     41  CG        13.7550  -20.1740    6.4150 C.3   128  LYS128      0.0035
     42  CD        13.7070  -18.8710    5.5880 C.3   128  LYS128      0.0206
     43  CE        13.3630  -19.1930    4.1410 C.3   128  LYS128      0.1093
     44  NZ        13.8200  -18.0970    3.2080 N.3   128  LYS128     -0.1314
     45  N          6.4140  -15.9130    6.6160 N.3   166  ALA166     -0.1231
     46  CA         5.9900  -15.5630    5.2510 C.3   166  ALA166      0.1694
     47  C          6.1370  -16.8330    4.4180 C.2   166  ALA166      0.2593
     48  O          6.3700  -17.9110    4.9710 O.2   166  ALA166     -0.2718
     49  CB         6.8940  -14.4800    4.6860 C.3   166  ALA166      0.0304
     50  N          6.0120  -16.6950    3.0950 N.am  167  GLY167     -0.1942
     51  CA         6.1550  -17.8370    2.2020 C.3   167  GLY167      0.2014
     52  C          7.6090  -18.0370    1.8070 C.2   167  GLY167      0.2638
     53  O          8.5080  -17.3020    2.2530 O.2   167  GLY167     -0.2714
     54  N          7.8220  -19.0560    0.9910 N.am  168  ASP168     -0.1971
     55  CA         9.1110  -19.4240    0.3970 C.3   168  ASP168      0.1709
     56  C          8.6920  -20.5970   -0.4910 C.2   168  ASP168      0.2293
     57  O          7.5560  -20.6120   -0.9550 O.2   168  ASP168     -0.2864
     58  CB        10.1410  -19.8600    1.4480 C.3   168  ASP168      0.1436
     59  CG        11.5470  -19.9730    0.8750 C.2   168  ASP168      0.3671
     60  OD1       12.2340  -18.9210    0.7250 O.co2 168  ASP168     -0.2456
     61  OD2       11.9680  -21.1300    0.6330 O.co2 168  ASP168     -0.2456
     62  N          4.3010   -6.8300   -2.7900 N.3   208  ARG208     -0.1245
     63  CA         4.9660   -7.9800   -2.1370 C.3   208  ARG208      0.1563
     64  C          5.0260   -9.2150   -3.0560 C.2   208  ARG208      0.2260
     65  O          6.0480   -9.9160   -3.0920 O.2   208  ARG208     -0.2867
     66  CB         4.3250   -8.3160   -0.7800 C.3   208  ARG208      0.0307
     67  CG         5.0330   -9.5050   -0.0380 C.3   208  ARG208      0.0489
     68  CD         6.4650   -9.1900    0.2630 C.3   208  ARG208      0.2205
     69  NE         7.2730  -10.3220    0.7840 N.pl3 208  ARG208     -0.0865
     70  CZ         7.9250  -11.1960    0.0110 C.cat 208  ARG208      0.5346
     71  NH1        7.8010  -11.1450   -1.3140 N.pl3 208  ARG208      0.1354
     72  NH2        8.6860  -12.1580    0.5570 N.pl3 208  ARG208      0.1354
     73  N         10.3620   -9.8380   -4.8140 N.3   212  THR212     -0.1218
     74  CA        11.6770  -10.5040   -4.8110 C.3   212  THR212      0.1862
     75  C         12.2360  -10.4600   -6.2210 C.2   212  THR212      0.2287
     76  O         13.3890  -10.1110   -6.4160 O.2   212  THR212     -0.2866
     77  CB        11.6370  -11.9480   -4.2870 C.3   212  THR212      0.1770
     78  OG1       11.0480  -11.9590   -2.9850 O.3   212  THR212     -0.2211
     79  CG2       13.0640  -12.5000   -4.1690 C.3   212  THR212      0.0375
     80  N         17.8450  -18.4660   -2.9220 N.3   347  ASN347     -0.1240
     81  CA        18.8040  -18.5220   -1.8350 C.3   347  ASN347      0.1653
     82  C         19.8850  -19.5670   -2.1200 C.2   347  ASN347      0.2266
     83  O         19.5970  -20.7540   -2.3220 O.2   347  ASN347     -0.2867
     84  CB        18.0940  -18.8360   -0.5200 C.3   347  ASN347      0.1155
     85  CG        17.3930  -17.6240    0.0510 C.2   347  ASN347      0.2627
     86  OD1       18.0440  -16.6070    0.3420 O.2   347  ASN347     -0.2716
     87  ND2       16.0720  -17.7240    0.2460 N.am  347  ASN347     -0.0877
     88  N         18.3330  -10.7070   -3.5320 N.3   372  ASN372     -0.1240
     89  CA        16.9660  -11.2020   -3.3360 C.3   372  ASN372      0.1653
     90  C         16.2340  -10.5890   -2.1390 C.2   372  ASN372      0.2266
     91  O         15.0880  -10.9290   -1.8500 O.2   372  ASN372     -0.2867
     92  CB        16.8840  -12.7580   -3.3890 C.3   372  ASN372      0.1155
     93  CG        17.3790  -13.4790   -2.1040 C.2   372  ASN372      0.2627
     94  OD1       17.1650  -13.0310   -0.9730 O.2   372  ASN372     -0.2716
     95  ND2       17.9970  -14.6410   -2.3010 N.am  372  ASN372     -0.0877
     96  N         12.2910   -9.0120   -1.3910 N.3   375  GLY375     -0.1210
     97  CA        11.1420   -9.6900   -0.8220 C.3   375  GLY375      0.1956
     98  C         10.9620   -9.3620    0.6470 C.2   375  GLY375      0.2611
     99  O          9.9120   -8.8520    1.0590 O.2   375  GLY375     -0.2717
    100  N         11.9790   -9.6800    1.4400 N.am  376  VAL376     -0.1979
    101  CA        11.8630   -9.5000    2.8850 C.3   376  VAL376      0.1595
    102  C         11.8070   -7.9940    3.2160 C.2   376  VAL376      0.2287
    103  O         11.1440   -7.5760    4.1730 O.2   376  VAL376     -0.2864
    104  CB        12.9860  -10.2380    3.6440 C.3   376  VAL376      0.0276
    105  CG1       14.3190   -9.5350    3.4690 C.3   376  VAL376      0.0022
    106  CG2       12.6100  -10.3290    5.1170 C.3   376  VAL376      0.0022
    107  N          8.2570   -7.2620    2.7910 N.3   379  SER379     -0.1217
    108  CA         7.6330   -7.8130    4.0120 C.3   379  SER379      0.1889
    109  C          7.7400   -6.8510    5.1910 C.2   379  SER379      0.2288
    110  O          6.7650   -6.6460    5.9340 O.2   379  SER379     -0.2866
    111  CB         8.2410   -9.1600    4.4150 C.3   379  SER379      0.2089
    112  OG         7.7270  -10.2060    3.6110 O.3   379  SER379     -0.2183
@<TRIPOS>BOND
     1    76    75    2
     2    75    74    1
     3    73    74    1
     4    74    77    1
     5    77    79    1
     6    77    78    1
     7    88    89    1
     8    92    89    1
     9    92    93    1
    10    89    90    1
    11    65    64    2
    12    64    63    1
    13    80    81    1
    14    62    63    1
    15    83    82    2
    16    95    93   am
    17    90    91    2
    18    63    66    1
    19    82    81    1
    20    93    94    2
    21    81    84    1
    22    96    97    1
    23    71    70    1
    24    57    56    2
    25    97    98    1
    26    66    67    1
    27    84    85    1
    28    56    55    1
    29    67    68    1
    30    70    72    1
    31    70    69    2
    32    85    87   am
    33    85    86    2
    34    68    69    1
    35    55    54    1
    36    55    58    1
    37    61    59   ar
    38    98    99    2
    39    98   100   am
    40    60    59   ar
    41    59    58    1
    42    54    52   am
    43    35    34    1
    44   100   101    1
    45    52    51    1
    46    52    53    2
    47    34    33    1
    48    33    32    1
    49    51    50    1
    50    32    31    1
    51   107   108    1
    52   101   102    1
    53   101   104    1
    54    50    47   am
    55    44    43    1
    56   102   103    2
    57   105   104    1
    58   112   111    1
    59   104   106    1
    60    31    28    1
    61   108   111    1
    62   108   109    1
    63    43    42    1
    64    28    29    1
    65    28    27    1
    66    30    29    2
    67    47    48    2
    68    47    46    1
    69    49    46    1
    70    26    24   am
    71    25    24    2
    72   109   110    2
    73    46    45    1
    74    15    16    1
    75    15    14    1
    76    24    23    1
    77    42    41    1
    78    16    17    2
    79    14    12   am
    80    18    19    1
    81    41    40    1
    82    19    22    1
    83    19    20    1
    84    23    22    1
    85    12    11    1
    86    12    13    2
    87     9     8    1
    88    11    10    1
    89    21    20    2
    90     8     7    1
    91    40    37    1
    92    10     3   am
    93     6     7    1
    94     6     5    1
    95    37    38    1
    96    37    36    1
    97     4     3    2
    98     3     2    1
    99    38    39    2
   100     5     2    1
   101     2     1    1
