@<TRIPOS>MOLECULE
tmp/5gudE01.pdb
 157 146 0 0 0
SMALL
GASTEIGER

@<TRIPOS>ATOM
      1  N         20.3770  -36.3660   35.7000 N.3   181  ASP181     -0.1225
      2  CA        20.9970  -37.4430   34.9170 C.3   181  ASP181      0.1805
      3  C         22.4830  -37.0800   34.9780 C.2   181  ASP181      0.2597
      4  O         22.8770  -36.2500   35.8000 O.2   181  ASP181     -0.2718
      5  CB        20.4840  -37.4500   33.4570 C.3   181  ASP181      0.1424
      6  CG        20.8910  -38.6970   32.6770 C.2   181  ASP181      0.3668
      7  OD1       21.5310  -39.6120   33.2500 O.co2 181  ASP181     -0.2456
      8  OD2       20.5640  -38.7530   31.4680 O.co2 181  ASP181     -0.2456
      9  N         23.2980  -37.6780   34.1250 N.am  182  ILE182     -0.1980
     10  CA        24.7460  -37.3640   34.1190 C.3   182  ILE182      0.1595
     11  C         24.9820  -35.8710   33.9900 C.2   182  ILE182      0.2287
     12  O         24.4320  -35.2140   33.0950 O.2   182  ILE182     -0.2864
     13  CB        25.4730  -38.1160   32.9990 C.3   182  ILE182      0.0276
     14  CG1       25.4470  -39.6150   33.2670 C.3   182  ILE182      0.0022
     15  CG2       26.9320  -37.6400   32.8800 C.3   182  ILE182      0.0022
     16  CD1       25.7220  -40.4450   32.0040 C.3   182  ILE182      0.0001
     17  N         16.2370  -46.8230   42.9760 N.3   225  THR225     -0.1218
     18  CA        16.5420  -47.7100   41.8670 C.3   225  THR225      0.1862
     19  C         17.0510  -49.0300   42.4010 C.2   225  THR225      0.2287
     20  O         16.6170  -50.0730   41.9220 O.2   225  THR225     -0.2866
     21  CB        17.5140  -47.0810   40.8730 C.3   225  THR225      0.1770
     22  OG1       16.8950  -45.9080   40.3180 O.3   225  THR225     -0.2211
     23  CG2       17.8370  -48.0430   39.7370 C.3   225  THR225      0.0375
     24  N         29.0270  -53.5910   41.1990 N.3   253  GLY253     -0.1210
     25  CA        29.0880  -52.1610   41.4740 C.3   253  GLY253      0.1956
     26  C         29.0820  -51.8030   42.9420 C.2   253  GLY253      0.2613
     27  O         28.9400  -52.6640   43.8290 O.2   253  GLY253     -0.2717
     28  N         29.2500  -50.5120   43.2300 N.am  254  SER254     -0.1938
     29  CA        29.2920  -50.0380   44.5920 C.3   254  SER254      0.2055
     30  C         28.8660  -48.5830   44.6260 C.2   254  SER254      0.2644
     31  O         29.2670  -47.8240   45.5220 O.2   254  SER254     -0.2714
     32  CB        30.6970  -50.2260   45.2380 C.3   254  SER254      0.2130
     33  OG        31.7150  -49.8870   44.3090 O.3   254  SER254     -0.2179
     34  N         28.0310  -48.2130   43.6540 N.am  255  GLY255     -0.1939
     35  CA        27.5040  -46.8420   43.5380 C.3   255  GLY255      0.2014
     36  C         26.0920  -46.7520   44.0740 C.2   255  GLY255      0.2639
     37  O         25.7090  -47.4810   44.9840 O.2   255  GLY255     -0.2714
     38  N         25.3180  -45.8360   43.5080 N.am  256  ASN256     -0.1958
     39  CA        23.9770  -45.5720   44.0250 C.3   256  ASN256      0.1819
     40  C         23.0740  -46.8060   43.9050 C.2   256  ASN256      0.2621
     41  O         22.3880  -47.1610   44.8740 O.2   256  ASN256     -0.2715
     42  CB        23.3400  -44.4000   43.2780 C.3   256  ASN256      0.1195
     43  CG        21.9110  -44.1490   43.7170 C.2   256  ASN256      0.2630
     44  OD1       20.9920  -44.3620   42.9300 O.2   256  ASN256     -0.2716
     45  ND2       21.7180  -43.6940   44.9410 N.am  256  ASN256     -0.0877
     46  N         23.0590  -47.4460   42.7360 N.am  257  VAL257     -0.1977
     47  CA        22.1490  -48.5700   42.5470 C.3   257  VAL257      0.1596
     48  C         22.6070  -49.7230   43.4300 C.2   257  VAL257      0.2287
     49  O         21.8260  -50.2830   44.1890 O.2   257  VAL257     -0.2864
     50  CB        22.0510  -49.0430   41.0850 C.3   257  VAL257      0.0276
     51  CG1       21.0970  -50.2600   40.9770 C.3   257  VAL257      0.0022
     52  CG2       21.5240  -47.9070   40.1720 C.3   257  VAL257      0.0022
     53  N         31.5360  -54.7140   43.7080 N.3   276  SER276     -0.1202
     54  CA        32.7240  -54.3740   42.9150 C.3   276  SER276      0.2020
     55  C         32.8140  -52.9020   42.5510 C.2   276  SER276      0.2619
     56  O         31.8510  -52.1540   42.7370 O.2   276  SER276     -0.2717
     57  CB        32.7260  -55.2280   41.6500 C.3   276  SER276      0.2103
     58  OG        31.6120  -54.9220   40.8090 O.3   276  SER276     -0.2182
     59  N         33.9730  -52.5090   42.0140 N.am  277  ASP277     -0.1959
     60  CA        34.1050  -51.2800   41.2190 C.3   277  ASP277      0.1840
     61  C         35.0720  -51.5950   40.0630 C.2   277  ASP277      0.2622
     62  O         35.3930  -52.7730   39.8040 O.2   277  ASP277     -0.2715
     63  CB        34.5230  -50.0450   42.0760 C.3   277  ASP277      0.1450
     64  CG        35.8820  -50.2200   42.7810 C.2   277  ASP277      0.3671
     65  OD1       36.7470  -50.9520   42.2440 O.co2 277  ASP277     -0.2456
     66  OD2       36.0720  -49.5960   43.8550 O.co2 277  ASP277     -0.2456
     67  N         35.5150  -50.5560   39.3520 N.am  278  SER278     -0.1950
     68  CA        36.3780  -50.7330   38.1970 C.3   278  SER278      0.1924
     69  C         37.6640  -51.4640   38.5420 C.2   278  SER278      0.2314
     70  O         38.2650  -52.0780   37.6620 O.2   278  SER278     -0.2863
     71  CB        36.7390  -49.3730   37.6140 C.3   278  SER278      0.2116
     72  OG        35.6190  -48.7950   36.9750 O.3   278  SER278     -0.2180
     73  N         32.8770  -45.4970   50.4200 N.3   297  LYS297     -0.1245
     74  CA        32.5260  -44.9830   49.0950 C.3   297  LYS297      0.1561
     75  C         32.0720  -43.5180   49.0650 C.2   297  LYS297      0.2260
     76  O         32.2930  -42.8250   48.0710 O.2   297  LYS297     -0.2867
     77  CB        31.4580  -45.8760   48.4630 C.3   297  LYS297      0.0271
     78  CG        32.0220  -47.1690   47.8820 C.3   297  LYS297      0.0035
     79  CD        32.6220  -46.9370   46.5160 C.3   297  LYS297      0.0206
     80  CE        33.5820  -48.0580   46.1380 C.3   297  LYS297      0.1093
     81  NZ        34.3250  -47.6570   44.9130 N.3   297  LYS297     -0.1314
     82  N         38.4120  -46.9790   46.8450 N.3   303  ARG303     -0.1245
     83  CA        38.1810  -48.2380   46.1220 C.3   303  ARG303      0.1563
     84  C         37.6890  -49.3600   47.0440 C.2   303  ARG303      0.2260
     85  O         37.8800  -49.3120   48.2450 O.2   303  ARG303     -0.2867
     86  CB        39.4530  -48.6980   45.3890 C.3   303  ARG303      0.0307
     87  CG        40.0490  -47.6880   44.4170 C.3   303  ARG303      0.0489
     88  CD        39.2460  -47.5500   43.0940 C.3   303  ARG303      0.2205
     89  NE        38.0690  -46.6800   43.2270 N.pl3 303  ARG303     -0.0865
     90  CZ        37.0690  -46.6780   42.3490 C.cat 303  ARG303      0.5346
     91  NH1       36.0170  -45.8770   42.5200 N.pl3 303  ARG303      0.1354
     92  NH2       37.1010  -47.4990   41.3020 N.pl3 303  ARG303      0.1354
     93  N         24.5870  -54.2270   38.7540 N.3   333  CYS333     -0.1221
     94  CA        24.2230  -52.8670   39.1310 C.3   333  CYS333      0.1808
     95  C         25.3140  -51.8360   38.8430 C.2   333  CYS333      0.2601
     96  O         25.3300  -50.7560   39.4380 O.2   333  CYS333     -0.2717
     97  CB        23.8210  -52.8120   40.6180 C.3   333  CYS333      0.0970
     98  SG        22.2590  -53.6570   40.9950 S.3   333  CYS333     -0.0800
     99  N         26.2030  -52.1670   37.9110 N.am  334  ALA334     -0.1965
    100  CA        27.3580  -51.3080   37.6260 C.3   334  ALA334      0.1728
    101  C         27.2140  -50.5270   36.3340 C.2   334  ALA334      0.2617
    102  O         27.2150  -49.3150   36.3670 O.2   334  ALA334     -0.2715
    103  CB        28.6680  -52.1290   37.6120 C.3   334  ALA334      0.0334
    104  N         27.1390  -51.2120   35.2010 N.am  335  THR335     -0.1937
    105  CA        27.3180  -50.5390   33.9100 C.3   335  THR335      0.2028
    106  C         26.8900  -51.4160   32.7420 C.2   335  THR335      0.2642
    107  O         26.7800  -52.6350   32.8720 O.2   335  THR335     -0.2714
    108  CB        28.8180  -50.0890   33.7280 C.3   335  THR335      0.1808
    109  OG1       28.9250  -49.1400   32.6520 O.3   335  THR335     -0.2208
    110  CG2       29.7190  -51.2680   33.4350 C.3   335  THR335      0.0379
    111  N         26.6600  -50.7810   31.5940 N.am  336  GLN336     -0.1976
    112  CA        26.3600  -51.4800   30.3410 C.3   336  GLN336      0.1601
    113  C         27.3740  -52.5700   29.9940 C.2   336  GLN336      0.2287
    114  O         28.5850  -52.3570   30.1200 O.2   336  GLN336     -0.2864
    115  CB        26.3590  -50.4720   29.1860 C.3   336  GLN336      0.0394
    116  CG        25.0580  -49.8360   28.8710 C.3   336  GLN336      0.0908
    117  CD        25.1090  -49.0400   27.5560 C.2   336  GLN336      0.2608
    118  OE1       25.6310  -47.9140   27.5140 O.2   336  GLN336     -0.2717
    119  NE2       24.5660  -49.6200   26.4910 N.am  336  GLN336     -0.0878
    120  N         28.4510  -55.3020   31.2930 N.3   338  GLU338     -0.1245
    121  CA        29.3100  -55.8820   32.3380 C.3   338  GLU338      0.1567
    122  C         29.1080  -57.3790   32.5600 C.2   338  GLU338      0.2260
    123  O         29.9070  -58.0280   33.2390 O.2   338  GLU338     -0.2867
    124  CB        29.0670  -55.1540   33.6600 C.3   338  GLU338      0.0388
    125  CG        27.6640  -55.4400   34.2080 C.3   338  GLU338      0.1160
    126  CD        27.4990  -54.9910   35.6190 C.2   338  GLU338      0.3649
    127  OE1       28.2440  -55.4800   36.5160 O.co2 338  GLU338     -0.2457
    128  OE2       26.6070  -54.1440   35.8480 O.co2 338  GLU338     -0.2457
    129  N         19.8490  -53.9300   37.6370 N.3   358  GLY358     -0.1210
    130  CA        19.7770  -52.6040   38.2850 C.3   358  GLY358      0.1956
    131  C         20.4030  -51.5080   37.4180 C.2   358  GLY358      0.2612
    132  O         19.9410  -50.3650   37.4150 O.2   358  GLY358     -0.2717
    133  N         21.4500  -51.8800   36.6800 N.am  359  ALA359     -0.1965
    134  CA        22.1500  -50.9970   35.7600 C.3   359  ALA359      0.1728
    135  C         21.3980  -50.8920   34.4600 C.2   359  ALA359      0.2616
    136  O         20.3850  -51.5690   34.2720 O.2   359  ALA359     -0.2715
    137  CB        23.5790  -51.5230   35.5030 C.3   359  ALA359      0.0334
    138  N         21.8990  -50.0370   33.5660 N.am  360  ASN360     -0.1972
    139  CA        21.3960  -49.9630   32.1910 C.3   360  ASN360      0.1688
    140  C         22.0330  -51.0130   31.2850 C.2   360  ASN360      0.2292
    141  O         23.2450  -50.9760   31.0440 O.2   360  ASN360     -0.2864
    142  CB        21.6590  -48.5730   31.6080 C.3   360  ASN360      0.1181
    143  CG        21.0170  -48.3910   30.2590 C.2   360  ASN360      0.2629
    144  OD1       19.8710  -48.7930   30.0550 O.2   360  ASN360     -0.2716
    145  ND2       21.7550  -47.8040   29.3100 N.am  360  ASN360     -0.0877
    146  N         14.7080  -51.6500   36.8590 N.3   385  ASN385     -0.1240
    147  CA        15.4490  -50.4850   37.3670 C.3   385  ASN385      0.1653
    148  C         14.5810  -49.2280   37.3520 C.2   385  ASN385      0.2266
    149  O         15.0410  -48.1210   37.5930 O.2   385  ASN385     -0.2867
    150  CB        16.8250  -50.3260   36.6750 C.3   385  ASN385      0.1155
    151  CG        16.7540  -49.8350   35.2270 C.2   385  ASN385      0.2627
    152  OD1       15.8830  -49.0390   34.8380 O.2   385  ASN385     -0.2716
    153  ND2       17.7290  -50.2740   34.4180 N.am  385  ASN385     -0.0877
    154  N         13.5830  -45.6740   40.2570 N.3   388  GLY388     -0.1225
    155  CA        13.9450  -44.2840   40.2840 C.3   388  GLY388      0.1811
    156  C         12.8680  -43.4060   39.6360 C.2   388  GLY388      0.2280
    157  O         12.4150  -42.4170   40.2450 O.2   388  GLY388     -0.2866
@<TRIPOS>BOND
     1   119   117   am
     2   118   117    2
     3   117   116    1
     4   116   115    1
     5   115   112    1
     6   145   143   am
     7   113   114    2
     8   113   112    1
     9   144   143    2
    10   143   142    1
    11   112   111    1
    12   141   140    2
    13   140   139    1
    14   120   121    1
    15     8     6   ar
    16   111   106   am
    17   142   139    1
    18    16    14    1
    19   139   138    1
    20   121   122    1
    21   121   124    1
    22   122   123    2
    23   109   108    1
    24     6     7   ar
    25     6     5    1
    26   106   107    2
    27   106   105    1
    28    15    13    1
    29    13    14    1
    30    13    10    1
    31    12    11    2
    32   110   108    1
    33     5     2    1
    34   138   135   am
    35   124   125    1
    36   108   105    1
    37   105   104    1
    38    11    10    1
    39    10     9    1
    40     9     3   am
    41   125   126    1
    42   136   135    2
    43   153   151   am
    44   135   134    1
    45   152   151    2
    46     2     3    1
    47     2     1    1
    48     3     4    2
    49   104   101   am
    50   151   150    1
    51   137   134    1
    52   126   128   ar
    53   126   127   ar
    54   134   133    1
    55   101   102    2
    56   101   100    1
    57   150   147    1
    58   133   131   am
    59   146   147    1
    60    72    71    1
    61   148   147    1
    62   148   149    2
    63   132   131    2
    64   131   130    1
    65   103   100    1
    66    71    68    1
    67   100    99    1
    68   129   130    1
    69    70    69    2
    70    99    95   am
    71    68    69    1
    72    68    67    1
    73    93    94    1
    74    95    94    1
    75    95    96    2
    76    94    97    1
    77    67    61   am
    78   156   157    2
    79   156   155    1
    80    23    21    1
    81    62    61    2
    82    61    60    1
    83    52    50    1
    84   154   155    1
    85    22    21    1
    86    97    98    1
    87    58    57    1
    88    21    18    1
    89    51    50    1
    90    50    47    1
    91    24    25    1
    92    60    59    1
    93    60    63    1
    94    92    90    1
    95    25    26    1
    96    57    54    1
    97    18    19    1
    98    18    17    1
    99    20    19    2
   100    59    55   am
   101    63    64    1
   102    65    64   ar
   103    90    91    1
   104    90    89    2
   105    47    46    1
   106    47    48    1
   107    55    56    2
   108    55    54    1
   109    46    40   am
   110    64    66   ar
   111    54    53    1
   112    44    43    2
   113    26    28   am
   114    26    27    2
   115    88    89    1
   116    88    87    1
   117    28    29    1
   118    42    43    1
   119    42    39    1
   120    48    49    2
   121    38    39    1
   122    38    36   am
   123    35    34    1
   124    35    36    1
   125    34    30   am
   126    43    45   am
   127    40    39    1
   128    40    41    2
   129    36    37    2
   130    33    32    1
   131    87    86    1
   132    29    30    1
   133    29    32    1
   134    30    31    2
   135    81    80    1
   136    86    83    1
   137    83    82    1
   138    83    84    1
   139    80    79    1
   140    79    78    1
   141    84    85    2
   142    78    77    1
   143    76    75    2
   144    77    74    1
   145    75    74    1
   146    74    73    1
