@<TRIPOS>MOLECULE
tmp/5gudE00.pdb
 104 94 0 0 0
SMALL
GASTEIGER

@<TRIPOS>ATOM
      1  N          8.1320  -36.4040   30.9450 N.3   105  LYS105     -0.1231
      2  CA         8.9450  -36.6970   32.1030 C.3   105  LYS105      0.1693
      3  C         10.2550  -37.3220   31.6340 C.2   105  LYS105      0.2593
      4  O         10.2450  -38.2430   30.8180 O.2   105  LYS105     -0.2718
      5  CB         8.2080  -37.6690   33.0250 C.3   105  LYS105      0.0285
      6  CG         8.9090  -37.8510   34.3640 C.3   105  LYS105      0.0035
      7  CD         8.4790  -36.7330   35.3220 C.3   105  LYS105      0.0206
      8  CE         9.3420  -36.6560   36.6250 C.3   105  LYS105      0.1093
      9  NZ        10.6850  -36.0180   36.4140 N.3   105  LYS105     -0.1314
     10  N         11.3750  -36.8060   32.1410 N.am  106  GLY106     -0.1942
     11  CA        12.6860  -37.3600   31.8000 C.3   106  GLY106      0.2014
     12  C         13.7790  -36.3960   32.2260 C.2   106  GLY106      0.2639
     13  O         13.5630  -35.1820   32.3060 O.2   106  GLY106     -0.2714
     14  N         14.9820  -36.9310   32.4160 N.am  107  GLY107     -0.1954
     15  CA        16.0310  -36.0920   32.9680 C.3   107  GLY107      0.1869
     16  C         16.7780  -35.2230   31.9530 C.2   107  GLY107      0.2309
     17  O         16.4950  -35.2000   30.7350 O.2   107  GLY107     -0.2863
     18  N         12.3090  -43.2880   27.1410 N.3   126  GLN126     -0.1245
     19  CA        11.6220  -42.7960   28.3450 C.3   126  GLN126      0.1566
     20  C         10.1300  -43.0380   28.2600 C.2   126  GLN126      0.2260
     21  O          9.4780  -43.3510   29.2730 O.2   126  GLN126     -0.2867
     22  CB        11.8010  -41.2820   28.4810 C.3   126  GLN126      0.0367
     23  CG        13.1010  -40.8330   29.0680 C.3   126  GLN126      0.0905
     24  CD        13.1760  -40.9590   30.5610 C.2   126  GLN126      0.2608
     25  OE1       12.1580  -41.1130   31.2530 O.2   126  GLN126     -0.2717
     26  NE2       14.4040  -40.9170   31.0800 N.am  126  GLN126     -0.0878
     27  N          9.3990  -46.8600   29.2770 N.3   129  LYS129     -0.1245
     28  CA         9.7310  -47.2410   30.6570 C.3   129  LYS129      0.1561
     29  C          8.7950  -46.4850   31.6300 C.2   129  LYS129      0.2260
     30  O          8.3030  -47.0650   32.6040 O.2   129  LYS129     -0.2867
     31  CB        11.2180  -47.0500   30.9650 C.3   129  LYS129      0.0271
     32  CG        11.6970  -45.6490   30.8720 C.3   129  LYS129      0.0035
     33  CD        13.2010  -45.6100   31.1340 C.3   129  LYS129      0.0206
     34  CE        13.6370  -44.2010   31.4740 C.3   129  LYS129      0.1093
     35  NZ        12.7660  -43.5800   32.5210 N.3   129  LYS129     -0.1314
     36  N         13.2490  -35.8470   27.3080 N.3   141  LYS141     -0.1245
     37  CA        14.6490  -35.8420   27.7400 C.3   141  LYS141      0.1561
     38  C         15.2510  -34.5300   27.3030 C.2   141  LYS141      0.2260
     39  O         14.7620  -33.9090   26.3610 O.2   141  LYS141     -0.2867
     40  CB        15.4110  -37.0110   27.1030 C.3   141  LYS141      0.0271
     41  CG        16.7570  -37.2880   27.7640 C.3   141  LYS141      0.0035
     42  CD        16.6250  -38.1630   28.9540 C.3   141  LYS141      0.0206
     43  CE        17.9750  -38.2420   29.6540 C.3   141  LYS141      0.1093
     44  NZ        17.9960  -39.3530   30.6210 N.3   141  LYS141     -0.1314
     45  N         14.3100  -33.5600   35.4130 N.3   179  ALA179     -0.1231
     46  CA        14.9980  -34.2800   36.4970 C.3   179  ALA179      0.1694
     47  C         16.4710  -34.3020   36.1530 C.2   179  ALA179      0.2593
     48  O         16.8740  -33.7830   35.1080 O.2   179  ALA179     -0.2718
     49  CB        14.4510  -35.6940   36.6140 C.3   179  ALA179      0.0304
     50  N         17.2720  -34.8940   37.0500 N.am  180  GLY180     -0.1942
     51  CA        18.7140  -35.0250   36.8080 C.3   180  GLY180      0.2014
     52  C         19.0730  -36.2290   35.9450 C.2   180  GLY180      0.2638
     53  O         18.1990  -37.0040   35.5250 O.2   180  GLY180     -0.2714
     54  N         20.3770  -36.3660   35.7000 N.am  181  ASP181     -0.1971
     55  CA        20.9970  -37.4430   34.9170 C.3   181  ASP181      0.1709
     56  C         22.4830  -37.0800   34.9780 C.2   181  ASP181      0.2293
     57  O         22.8770  -36.2500   35.8000 O.2   181  ASP181     -0.2864
     58  CB        20.4840  -37.4500   33.4570 C.3   181  ASP181      0.1436
     59  CG        20.8910  -38.6970   32.6770 C.2   181  ASP181      0.3671
     60  OD1       21.5310  -39.6120   33.2500 O.co2 181  ASP181     -0.2456
     61  OD2       20.5640  -38.7530   31.4680 O.co2 181  ASP181     -0.2456
     62  N         11.7350  -32.8150   39.4820 N.3   209  THR209     -0.1218
     63  CA        11.9320  -33.8140   40.5270 C.3   209  THR209      0.1862
     64  C         13.4350  -33.9100   40.8470 C.2   209  THR209      0.2287
     65  O         14.2660  -33.3910   40.1150 O.2   209  THR209     -0.2866
     66  CB        11.3110  -35.2040   40.1690 C.3   209  THR209      0.1770
     67  OG1       11.9400  -35.7470   38.9900 O.3   209  THR209     -0.2211
     68  CG2        9.7670  -35.0660   39.9870 C.3   209  THR209      0.0375
     69  N         14.2420  -41.3530   47.3460 N.3   221  ARG221     -0.1245
     70  CA        14.8000  -41.1060   46.0200 C.3   221  ARG221      0.1563
     71  C         16.1790  -41.7320   45.8750 C.2   221  ARG221      0.2260
     72  O         16.4490  -42.3760   44.8580 O.2   221  ARG221     -0.2867
     73  CB        14.9060  -39.6130   45.7570 C.3   221  ARG221      0.0307
     74  CG        15.5900  -39.2930   44.4740 C.3   221  ARG221      0.0489
     75  CD        15.4830  -37.8030   44.1260 C.3   221  ARG221      0.2205
     76  NE        16.2970  -36.9880   45.0260 N.pl3 221  ARG221     -0.0865
     77  CZ        17.6130  -36.8500   44.9070 C.cat 221  ARG221      0.5346
     78  NH1       18.2430  -37.4380   43.9090 N.pl3 221  ARG221      0.1354
     79  NH2       18.3000  -36.1110   45.7710 N.pl3 221  ARG221      0.1354
     80  N         14.7080  -51.6500   36.8590 N.3   385  ASN385     -0.1240
     81  CA        15.4490  -50.4850   37.3670 C.3   385  ASN385      0.1653
     82  C         14.5810  -49.2280   37.3520 C.2   385  ASN385      0.2266
     83  O         15.0410  -48.1210   37.5930 O.2   385  ASN385     -0.2867
     84  CB        16.8250  -50.3260   36.6750 C.3   385  ASN385      0.1155
     85  CG        16.7540  -49.8350   35.2270 C.2   385  ASN385      0.2627
     86  OD1       15.8830  -49.0390   34.8380 O.2   385  ASN385     -0.2716
     87  ND2       17.7290  -50.2740   34.4180 N.am  385  ASN385     -0.0877
     88  N         13.5830  -45.6740   40.2570 N.3   388  GLY388     -0.1210
     89  CA        13.9450  -44.2840   40.2840 C.3   388  GLY388      0.1956
     90  C         12.8680  -43.4060   39.6360 C.2   388  GLY388      0.2611
     91  O         12.4150  -42.4170   40.2450 O.2   388  GLY388     -0.2717
     92  N         12.4580  -43.7530   38.4200 N.am  389  VAL389     -0.1979
     93  CA        11.4120  -42.9450   37.7540 C.3   389  VAL389      0.1595
     94  C         10.0920  -43.0830   38.5120 C.2   389  VAL389      0.2287
     95  O          9.3370  -42.1080   38.5960 O.2   389  VAL389     -0.2864
     96  CB        11.2690  -43.2130   36.2270 C.3   389  VAL389      0.0276
     97  CG1       10.8380  -44.6230   35.9320 C.3   389  VAL389      0.0022
     98  CG2       10.3050  -42.1860   35.5880 C.3   389  VAL389      0.0022
     99  N         10.1810  -40.6600   41.1710 N.3   392  SER392     -0.1217
    100  CA        10.0830  -39.2830   40.6720 C.3   392  SER392      0.1889
    101  C          8.5920  -38.9500   40.5340 C.2   392  SER392      0.2288
    102  O          8.1520  -37.8260   40.8330 O.2   392  SER392     -0.2866
    103  CB        10.8670  -39.0650   39.3670 C.3   392  SER392      0.2089
    104  OG        10.1880  -39.5620   38.2240 O.3   392  SER392     -0.2183
@<TRIPOS>BOND
     1    39    38    2
     2    40    37    1
     3    40    41    1
     4    18    19    1
     5    38    37    1
     6    36    37    1
     7    41    42    1
     8    20    19    1
     9    20    21    2
    10    19    22    1
    11    22    23    1
    12    42    43    1
    13    23    24    1
    14    27    28    1
    15    43    44    1
    16    24    26   am
    17    24    25    2
    18    28    31    1
    19    28    29    1
    20    17    16    2
    21     4     3    2
    22    32    31    1
    23    32    33    1
    24     1     2    1
    25    33    34    1
    26    61    59   ar
    27    34    35    1
    28    29    30    2
    29     3     2    1
    30     3    10   am
    31    11    10    1
    32    11    12    1
    33    16    15    1
    34     2     5    1
    35    12    13    2
    36    12    14   am
    37    14    15    1
    38    59    60   ar
    39    59    58    1
    40     5     6    1
    41    58    55    1
    42     6     7    1
    43    87    85   am
    44    86    85    2
    45    55    56    1
    46    55    54    1
    47    56    57    2
    48    48    47    2
    49    85    84    1
    50     7     8    1
    51    45    46    1
    52    53    52    2
    53    98    96    1
    54    54    52   am
    55    97    96    1
    56    52    51    1
    57    47    46    1
    58    47    50   am
    59    96    93    1
    60     9     8    1
    61    46    49    1
    62    84    81    1
    63    51    50    1
    64    80    81    1
    65    82    81    1
    66    82    83    2
    67    93    92    1
    68    93    94    1
    69   104   103    1
    70    92    90   am
    71    94    95    2
    72    67    66    1
    73   103   100    1
    74    62    63    1
    75    90    91    2
    76    90    89    1
    77    68    66    1
    78    65    64    2
    79    66    63    1
    80    88    89    1
    81    63    64    1
    82   101   100    1
    83   101   102    2
    84   100    99    1
    85    78    77    1
    86    75    74    1
    87    75    76    1
    88    74    73    1
    89    72    71    2
    90    77    76    2
    91    77    79    1
    92    73    70    1
    93    71    70    1
    94    70    69    1
