@<TRIPOS>MOLECULE
tmp/5gueC00.pdb
 241 230 0 0 0
SMALL
GASTEIGER

@<TRIPOS>ATOM
      1  N         19.4250   18.4930   31.5380 N.3    69  VAL69      -0.1245
      2  CA        18.7530   17.7620   32.6370 C.3    69  VAL69       0.1561
      3  C         17.5460   18.5940   33.0620 C.2    69  VAL69       0.2260
      4  O         16.5230   18.0700   33.4300 O.2    69  VAL69      -0.2867
      5  CB        19.6910   17.4560   33.8520 C.3    69  VAL69       0.0252
      6  CG1       20.1450   18.7290   34.5690 C.3    69  VAL69       0.0019
      7  CG2       19.0050   16.4640   34.8490 C.3    69  VAL69       0.0019
      8  N         21.1720   25.2700   38.2180 N.3    92  ASN92      -0.1240
      9  CA        21.6120   23.9240   37.9190 C.3    92  ASN92       0.1653
     10  C         22.9570   23.9790   37.2090 C.2    92  ASN92       0.2266
     11  O         23.8960   23.2880   37.6080 O.2    92  ASN92      -0.2867
     12  CB        20.5670   23.1840   37.0450 C.3    92  ASN92       0.1155
     13  CG        21.1110   21.9080   36.4400 C.2    92  ASN92       0.2627
     14  OD1       21.0000   20.8330   37.0520 O.2    92  ASN92      -0.2716
     15  ND2       21.7620   22.0200   35.2500 N.am   92  ASN92      -0.0877
     16  N         26.0870   25.1840   39.3830 N.3    95  THR95      -0.1203
     17  CA        26.3660   24.2430   40.4430 C.3    95  THR95       0.1994
     18  C         27.0950   23.0270   39.8760 C.2    95  THR95       0.2617
     19  O         28.0540   22.5470   40.4970 O.2    95  THR95      -0.2717
     20  CB        25.0540   23.8420   41.1840 C.3    95  THR95       0.1784
     21  OG1       24.5290   25.0080   41.8010 O.3    95  THR95      -0.2211
     22  CG2       25.3600   22.8670   42.2970 C.3    95  THR95       0.0376
     23  N         26.6770   22.5580   38.6930 N.am   96  PHE96      -0.1975
     24  CA        27.5030   21.5930   37.9330 C.3    96  PHE96       0.1639
     25  C         28.9520   22.0810   37.7670 C.2    96  PHE96       0.2290
     26  O         29.9020   21.3410   38.0500 O.2    96  PHE96      -0.2864
     27  CB        26.9380   21.3080   36.5280 C.3    96  PHE96       0.0560
     28  CG        26.0170   20.1160   36.4540 C.ar   96  PHE96      -0.0200
     29  CD1       24.6520   20.2930   36.2680 C.ar   96  PHE96      -0.0042
     30  CD2       26.5190   18.8160   36.5270 C.ar   96  PHE96      -0.0042
     31  CE1       23.7780   19.1900   36.1830 C.ar   96  PHE96      -0.0003
     32  CE2       25.6600   17.7060   36.4460 C.ar   96  PHE96      -0.0003
     33  CZ        24.2810   17.8950   36.2590 C.ar   96  PHE96      -0.0000
     34  N         30.8060   22.0050   41.0500 N.3    99  ASP99      -0.1239
     35  CA        31.0670   20.6420   41.4630 C.3    99  ASP99       0.1674
     36  C         32.2260   20.0270   40.6860 C.2    99  ASP99       0.2266
     37  O         33.0130   19.2780   41.2520 O.2    99  ASP99      -0.2867
     38  CB        29.8020   19.7970   41.3200 C.3    99  ASP99       0.1410
     39  CG        29.8690   18.5000   42.1000 C.2    99  ASP99       0.3668
     40  OD1       29.8570   18.5660   43.3550 O.co2  99  ASP99      -0.2456
     41  OD2       29.9110   17.4250   41.4550 O.co2  99  ASP99      -0.2456
     42  N         23.2000   23.3050   50.0610 N.3   138  PHE138     -0.1241
     43  CA        23.7960   22.3120   49.1970 C.3   138  PHE138      0.1605
     44  C         25.2960   22.4840   49.0220 C.2   138  PHE138      0.2264
     45  O         26.0590   21.5190   49.2140 O.2   138  PHE138     -0.2867
     46  CB        23.1180   22.2500   47.8160 C.3   138  PHE138      0.0534
     47  CG        23.8060   21.2950   46.8810 C.ar  138  PHE138     -0.0203
     48  CD1       23.6150   19.9270   47.0200 C.ar  138  PHE138     -0.0042
     49  CD2       24.7240   21.7560   45.9340 C.ar  138  PHE138     -0.0042
     50  CE1       24.2620   19.0420   46.1930 C.ar  138  PHE138     -0.0003
     51  CE2       25.3870   20.8630   45.1010 C.ar  138  PHE138     -0.0003
     52  CZ        25.1540   19.5040   45.2250 C.ar  138  PHE138     -0.0000
     53  N         21.9340   11.0570   50.5190 N.3   166  ARG166     -0.1245
     54  CA        21.8170   11.6080   49.1550 C.3   166  ARG166      0.1563
     55  C         20.6030   12.5450   48.9390 C.2   166  ARG166      0.2260
     56  O         20.5880   13.3150   47.9910 O.2   166  ARG166     -0.2867
     57  CB        21.8690   10.4990   48.1060 C.3   166  ARG166      0.0307
     58  CG        23.2320    9.8120   48.0710 C.3   166  ARG166      0.0489
     59  CD        24.2500   10.6770   47.3280 C.3   166  ARG166      0.2205
     60  NE        24.5750   10.1180   46.0100 N.pl3 166  ARG166     -0.0865
     61  CZ        25.1860   10.7800   45.0270 C.cat 166  ARG166      0.5346
     62  NH1       25.4340   10.1610   43.8800 N.pl3 166  ARG166      0.1354
     63  NH2       25.5550   12.0560   45.1740 N.pl3 166  ARG166      0.1354
     64  N         22.6240   15.3440   49.2640 N.3   169  ASP169     -0.1225
     65  CA        23.9270   15.2900   48.5580 C.3   169  ASP169      0.1805
     66  C         23.8340   15.1520   47.0350 C.2   169  ASP169      0.2598
     67  O         24.7090   15.6340   46.3140 O.2   169  ASP169     -0.2718
     68  CB        24.8060   14.1720   49.1040 C.3   169  ASP169      0.1424
     69  CG        26.2050   14.2020   48.4820 C.2   169  ASP169      0.3668
     70  OD1       26.9830   15.0920   48.8710 O.co2 169  ASP169     -0.2456
     71  OD2       26.5050   13.3680   47.6070 O.co2 169  ASP169     -0.2456
     72  N         22.7950   14.4950   46.5310 N.am  170  ILE170     -0.1966
     73  CA        22.6130   14.4190   45.0580 C.3   170  ILE170      0.1727
     74  C         21.8770   15.6510   44.5190 C.2   170  ILE170      0.2617
     75  O         21.6970   15.8120   43.3090 O.2   170  ILE170     -0.2715
     76  CB        21.9070   13.1330   44.6260 C.3   170  ILE170      0.0290
     77  CG1       22.3060   12.7720   43.1650 C.3   170  ILE170      0.0022
     78  CG2       20.3950   13.2720   44.8220 C.3   170  ILE170      0.0023
     79  CD1       22.3820   11.2980   42.8880 C.3   170  ILE170      0.0001
     80  N         21.4260   16.5040   45.4350 N.am  171  GLY171     -0.1940
     81  CA        20.9470   17.8200   45.0620 C.3   171  GLY171      0.2014
     82  C         19.4510   17.9000   44.8430 C.2   171  GLY171      0.2638
     83  O         18.9490   18.9210   44.3860 O.2   171  GLY171     -0.2714
     84  N         18.7330   16.8410   45.1980 N.am  172  VAL172     -0.1977
     85  CA        17.2930   16.8250   44.9440 C.3   172  VAL172      0.1596
     86  C         16.5110   17.7920   45.8020 C.2   172  VAL172      0.2287
     87  O         15.5080   18.3450   45.3300 O.2   172  VAL172     -0.2864
     88  CB        16.6040   15.4470   45.1820 C.3   172  VAL172      0.0276
     89  CG1       15.3080   15.4170   44.3790 C.3   172  VAL172      0.0022
     90  CG2       17.5060   14.3300   44.7910 C.3   172  VAL172      0.0022
     91  N         17.5800   20.6840   46.8720 N.3   174  PHE174     -0.1227
     92  CA        17.8510   21.9460   46.2060 C.3   174  PHE174      0.1736
     93  C         16.9670   22.0870   44.9500 C.2   174  PHE174      0.2595
     94  O         16.2130   23.0510   44.8270 O.2   174  PHE174     -0.2718
     95  CB        19.3520   21.9780   45.9110 C.3   174  PHE174      0.0547
     96  CG        19.8400   23.1270   45.0480 C.ar  174  PHE174     -0.0202
     97  CD1       19.1580   24.3430   44.9750 C.ar  174  PHE174     -0.0042
     98  CD2       21.0800   22.9970   44.3890 C.ar  174  PHE174     -0.0042
     99  CE1       19.6500   25.3870   44.1970 C.ar  174  PHE174     -0.0003
    100  CE2       21.5980   24.0570   43.6130 C.ar  174  PHE174     -0.0003
    101  CZ        20.8580   25.2520   43.5230 C.ar  174  PHE174     -0.0000
    102  N         17.0380   21.1120   44.0400 N.am  175  TRP175     -0.1976
    103  CA        16.1480   21.0660   42.8470 C.3   175  TRP175      0.1640
    104  C         14.6870   21.3510   43.1550 C.2   175  TRP175      0.2290
    105  O         14.0650   22.2130   42.5170 O.2   175  TRP175     -0.2864
    106  CB        16.2990   19.6740   42.1950 C.3   175  TRP175      0.0576
    107  CG        15.5060   19.4630   40.9520 C.ar  175  TRP175      0.0006
    108  CD1       14.1680   19.1680   40.8600 C.ar  175  TRP175      0.0946
    109  CD2       16.0040   19.5080   39.6170 C.ar  175  TRP175      0.0152
    110  NE1       13.8060   19.0170   39.5410 N.ar  175  TRP175     -0.2442
    111  CE2       14.9180   19.2080   38.7560 C.ar  175  TRP175      0.0810
    112  CE3       17.2710   19.7550   39.0620 C.ar  175  TRP175      0.0012
    113  CZ2       15.0620   19.1260   37.3680 C.ar  175  TRP175      0.0191
    114  CZ3       17.4180   19.6850   37.6650 C.ar  175  TRP175      0.0001
    115  CH2       16.3220   19.3790   36.8410 C.ar  175  TRP175      0.0015
    116  N         14.1220   25.0240   44.3330 N.3   178  MET178     -0.1245
    117  CA        14.2420   26.0570   43.2880 C.3   178  MET178      0.1570
    118  C         13.1810   25.8630   42.1730 C.2   178  MET178      0.2261
    119  O         12.9290   26.7790   41.3880 O.2   178  MET178     -0.2867
    120  CB        15.6570   26.1220   42.7100 C.3   178  MET178      0.0387
    121  CG        16.1670   24.8320   42.0890 C.3   178  MET178      0.0595
    122  SD        17.6630   25.2640   41.1720 S.3   178  MET178     -0.1393
    123  CE        18.4410   23.6450   41.0020 C.3   178  MET178      0.0692
    124  N         16.2940    8.9860   41.3150 N.3   205  LEU205     -0.1245
    125  CA        17.3740    9.7990   40.7450 C.3   205  LEU205      0.1561
    126  C         18.7360    9.2010   41.0540 C.2   205  LEU205      0.2260
    127  O         19.6180    9.1040   40.1630 O.2   205  LEU205     -0.2867
    128  CB        17.2900   11.2330   41.2850 C.3   205  LEU205      0.0270
    129  CG        16.0440   12.0210   40.8630 C.3   205  LEU205      0.0019
    130  CD1       15.9100   13.3060   41.7190 C.3   205  LEU205      0.0001
    131  CD2       16.0330   12.3870   39.3540 C.3   205  LEU205      0.0001
    132  N         21.6760    7.7750   38.5520 N.3   209  ASN209     -0.1240
    133  CA        22.9200    8.5140   38.4610 C.3   209  ASN209      0.1653
    134  C         24.0900    7.6320   38.8620 C.2   209  ASN209      0.2266
    135  O         25.1330    7.6400   38.1970 O.2   209  ASN209     -0.2867
    136  CB        22.9090    9.7850   39.3260 C.3   209  ASN209      0.1155
    137  CG        24.2630   10.4680   39.3230 C.2   209  ASN209      0.2627
    138  OD1       25.1610   10.0830   40.0800 O.2   209  ASN209     -0.2716
    139  ND2       24.4300   11.4670   38.4600 N.am  209  ASN209     -0.0877
    140  N         27.5020    6.6050   36.6080 N.3   213  SER213     -0.1217
    141  CA        28.7140    7.3100   37.0080 C.3   213  SER213      0.1889
    142  C         29.6290    6.4170   37.8460 C.2   213  SER213      0.2288
    143  O         30.6860    6.8580   38.2980 O.2   213  SER213     -0.2866
    144  CB        28.3530    8.6290   37.7370 C.3   213  SER213      0.2089
    145  OG        27.5960    8.3620   38.9170 O.3   213  SER213     -0.2183
    146  N         33.5540    5.9030   36.5350 N.3   216  ARG216     -0.1231
    147  CA        34.3110    7.1460   36.7630 C.3   216  ARG216      0.1694
    148  C         34.5180    7.3970   38.2720 C.2   216  ARG216      0.2591
    149  O         35.6540    7.5880   38.7320 O.2   216  ARG216     -0.2718
    150  CB        33.6320    8.3410   36.0660 C.3   216  ARG216      0.0321
    151  CG        34.1460    9.7090   36.5040 C.3   216  ARG216      0.0489
    152  CD        33.5660   10.8570   35.6760 C.3   216  ARG216      0.2205
    153  NE        32.1170   10.7560   35.4720 N.pl3 216  ARG216     -0.0865
    154  CZ        31.1860   11.2750   36.2810 C.cat 216  ARG216      0.5346
    155  NH1       31.5330   11.9370   37.3810 N.pl3 216  ARG216      0.1354
    156  NH2       29.8970   11.1320   35.9900 N.pl3 216  ARG216      0.1354
    157  N         33.4380    7.3380   39.0540 N.am  217  GLU217     -0.1979
    158  CA        33.5360    7.6960   40.4620 C.3   217  GLU217      0.1602
    159  C         34.4760    6.8030   41.2510 C.2   217  GLU217      0.2287
    160  O         35.2910    7.2810   42.0500 O.2   217  GLU217     -0.2864
    161  CB        32.1590    7.7600   41.1130 C.3   217  GLU217      0.0415
    162  CG        31.4230    9.0010   40.6700 C.3   217  GLU217      0.1163
    163  CD        29.9710    9.0110   41.0740 C.2   217  GLU217      0.3649
    164  OE1       29.5120    8.0490   41.7400 O.co2 217  GLU217     -0.2457
    165  OE2       29.2930   10.0080   40.7210 O.co2 217  GLU217     -0.2457
    166  N         35.9660    8.0350   44.7680 N.3   222  GLN222     -0.1245
    167  CA        34.7170    8.5540   45.3450 C.3   222  GLN222      0.1566
    168  C         33.8170    7.4550   45.9100 C.2   222  GLN222      0.2260
    169  O         33.6610    6.4000   45.3010 O.2   222  GLN222     -0.2867
    170  CB        33.9760    9.3930   44.3180 C.3   222  GLN222      0.0367
    171  CG        34.7130   10.6800   43.9820 C.3   222  GLN222      0.0905
    172  CD        34.0180   11.5030   42.9140 C.2   222  GLN222      0.2608
    173  OE1       34.6600   12.3120   42.2370 O.2   222  GLN222     -0.2717
    174  NE2       32.7010   11.3080   42.7530 N.am  222  GLN222     -0.0878
    175  N         30.5670    7.9240   47.1730 N.3   224  THR224     -0.1218
    176  CA        29.1730    8.2750   47.1890 C.3   224  THR224      0.1862
    177  C         28.4880    7.6340   45.9690 C.2   224  THR224      0.2287
    178  O         28.2390    8.2640   44.9500 O.2   224  THR224     -0.2866
    179  CB        29.0000    9.7960   47.3930 C.3   224  THR224      0.1770
    180  OG1       27.6010   10.1220   47.4740 O.3   224  THR224     -0.2211
    181  CG2       29.6570   10.5590   46.2890 C.3   224  THR224      0.0375
    182  N         10.4190   14.0480   36.5470 N.3   270  LEU270     -0.1245
    183  CA        11.8040   14.2450   37.0520 C.3   270  LEU270      0.1561
    184  C         12.5960   12.9470   37.0380 C.2   270  LEU270      0.2260
    185  O         13.6890   12.8870   36.5100 O.2   270  LEU270     -0.2867
    186  CB        11.7640   14.8340   38.4750 C.3   270  LEU270      0.0270
    187  CG        13.0560   14.8510   39.2940 C.3   270  LEU270      0.0019
    188  CD1       14.1150   15.6990   38.5740 C.3   270  LEU270      0.0001
    189  CD2       12.7550   15.4380   40.6840 C.3   270  LEU270      0.0001
    190  N         15.3180   12.4200   34.0760 N.3   274  ASN274     -0.1240
    191  CA        16.7420   12.2960   34.4450 C.3   274  ASN274      0.1653
    192  C         17.4260   11.0890   33.7920 C.2   274  ASN274      0.2266
    193  O         18.5930   11.1580   33.3440 O.2   274  ASN274     -0.2867
    194  CB        16.8920   12.2030   35.9670 C.3   274  ASN274      0.1155
    195  CG        18.3490   12.0470   36.3970 C.2   274  ASN274      0.2627
    196  OD1       19.1430   12.9610   36.2300 O.2   274  ASN274     -0.2716
    197  ND2       18.6850   10.9010   36.9650 N.am  274  ASN274     -0.0877
    198  N         18.0060   11.9020   30.0400 N.3   277  TRP277     -0.1227
    199  CA        19.1660   12.7880   29.9460 C.3   277  TRP277      0.1737
    200  C         20.4800   12.0550   30.2630 C.2   277  TRP277      0.2596
    201  O         21.4660   12.1790   29.5020 O.2   277  TRP277     -0.2718
    202  CB        19.0060   14.0140   30.8490 C.3   277  TRP277      0.0564
    203  CG        20.2240   14.9020   30.8770 C.ar  277  TRP277      0.0003
    204  CD1       20.6100   15.8160   29.9030 C.ar  277  TRP277      0.0946
    205  CD2       21.2230   14.9600   31.9010 C.ar  277  TRP277      0.0152
    206  NE1       21.7710   16.4350   30.2800 N.ar  277  TRP277     -0.2442
    207  CE2       22.1740   15.9360   31.5000 C.ar  277  TRP277      0.0810
    208  CE3       21.4130   14.2800   33.1310 C.ar  277  TRP277      0.0012
    209  CZ2       23.3070   16.2700   32.2960 C.ar  277  TRP277      0.0191
    210  CZ3       22.5300   14.6280   33.9420 C.ar  277  TRP277      0.0001
    211  CH2       23.4710   15.6080   33.5010 C.ar  277  TRP277      0.0015
    212  N         20.4830   11.2710   31.3360 N.am  278  THR278     -0.1953
    213  CA        21.6830   10.5610   31.7730 C.3   278  THR278      0.1897
    214  C         22.2370    9.6020   30.6990 C.2   278  THR278      0.2313
    215  O         23.4590    9.4940   30.5030 O.2   278  THR278     -0.2863
    216  CB        21.4530    9.8370   33.1280 C.3   278  THR278      0.1794
    217  OG1       21.1470   10.8070   34.1530 O.3   278  THR278     -0.2208
    218  CG2       22.7080    9.0740   33.5480 C.3   278  THR278      0.0378
    219  N         28.8210   13.2610   29.7120 N.3   283  ARG283     -0.1231
    220  CA        29.3490   13.2940   31.0830 C.3   283  ARG283      0.1694
    221  C         29.5890   11.9020   31.6870 C.2   283  ARG283      0.2592
    222  O         30.5140   11.7220   32.4830 O.2   283  ARG283     -0.2718
    223  CB        28.3720   14.0830   31.9620 C.3   283  ARG283      0.0321
    224  CG        28.9540   14.6830   33.2090 C.3   283  ARG283      0.0489
    225  CD        27.8530   15.2610   34.0970 C.3   283  ARG283      0.2205
    226  NE        28.2490   15.2620   35.5040 N.pl3 283  ARG283     -0.0865
    227  CZ        29.0580   16.1620   36.0640 C.cat 283  ARG283      0.5346
    228  NH1       29.5640   17.1560   35.3390 N.pl3 283  ARG283      0.1354
    229  NH2       29.3640   16.0660   37.3560 N.pl3 283  ARG283      0.1354
    230  N         28.7610   10.9310   31.2850 N.am  284  TYR284     -0.1976
    231  CA        28.7340    9.5790   31.8870 C.3   284  TYR284      0.1639
    232  C         29.2960    8.4430   31.0030 C.2   284  TYR284      0.2290
    233  O         28.9540    7.2750   31.2040 O.2   284  TYR284     -0.2864
    234  CB        27.3000    9.2300   32.3350 C.3   284  TYR284      0.0560
    235  CG        26.6740   10.2780   33.2350 C.ar  284  TYR284     -0.0198
    236  CD1       25.8050   11.2530   32.7130 C.ar  284  TYR284     -0.0009
    237  CD2       26.9680   10.3120   34.6030 C.ar  284  TYR284     -0.0009
    238  CE1       25.2420   12.2360   33.5410 C.ar  284  TYR284      0.0417
    239  CE2       26.4100   11.2860   35.4410 C.ar  284  TYR284      0.0417
    240  CZ        25.5490   12.2440   34.9030 C.ar  284  TYR284      0.1957
    241  OH        25.0000   13.2010   35.7320 O.3   284  TYR284     -0.2866
@<TRIPOS>BOND
     1   201   200    2
     2   219   220    1
     3   204   206   ar
     4   204   203   ar
     5   199   198    1
     6   199   200    1
     7   199   202    1
     8   200   212   am
     9   206   207   ar
    10   215   214    2
    11   214   213    1
    12   202   203    1
    13   203   205   ar
    14   232   233    2
    15   232   231    1
    16   220   221    1
    17   220   223    1
    18   230   221   am
    19   230   231    1
    20   212   213    1
    21   207   205   ar
    22   207   209   ar
    23     1     2    1
    24   221   222    2
    25   213   216    1
    26   231   234    1
    27   205   208   ar
    28   223   224    1
    29   209   211   ar
    30   234   235    1
    31     2     3    1
    32     2     5    1
    33   236   235   ar
    34   236   238   ar
    35     3     4    2
    36   216   218    1
    37   216   217    1
    38   208   210   ar
    39   224   225    1
    40   235   237   ar
    41   193   192    2
    42   211   210   ar
    43   238   240   ar
    44   192   191    1
    45     5     6    1
    46     5     7    1
    47   190   191    1
    48   225   226    1
    49   191   194    1
    50   237   239   ar
    51   240   239   ar
    52   240   241    1
    53    15    13   am
    54   228   227    1
    55   153   152    1
    56   153   154    2
    57   226   227    2
    58   152   151    1
    59   194   195    1
    60   156   154    1
    61   227   229    1
    62   150   151    1
    63   150   147    1
    64    31    33   ar
    65    31    29   ar
    66   196   195    2
    67    33    32   ar
    68    29    28   ar
    69   154   155    1
    70   195   197   am
    71    13    12    1
    72    13    14    2
    73    32    30   ar
    74    28    30   ar
    75    28    27    1
    76   185   184    2
    77    27    24    1
    78   146   147    1
    79   182   183    1
    80   140   141    1
    81   147   148    1
    82   115   113   ar
    83   115   114   ar
    84   141   144    1
    85   141   142    1
    86   184   183    1
    87    12     9    1
    88   183   186    1
    89    10    11    2
    90    10     9    1
    91   113   111   ar
    92   114   112   ar
    93   144   145    1
    94    25    24    1
    95    25    26    2
    96   142   143    2
    97     9     8    1
    98    24    23    1
    99   135   134    2
   100   148   149    2
   101   148   157   am
   102   139   137   am
   103   133   132    1
   104   133   134    1
   105   133   136    1
   106   186   187    1
   107   188   187    1
   108    23    18   am
   109   111   110   ar
   110   111   109   ar
   111   157   158    1
   112   112   109   ar
   113   187   189    1
   114   137   136    1
   115   137   138    2
   116   131   129    1
   117    16    17    1
   118   110   108   ar
   119   109   107   ar
   120    18    17    1
   121    18    19    2
   122   127   126    2
   123    17    20    1
   124   158   161    1
   125   158   159    1
   126   162   163    1
   127   162   161    1
   128    36    37    2
   129    36    35    1
   130   165   163   ar
   131   125   126    1
   132   125   128    1
   133   125   124    1
   134   108   107   ar
   135   129   128    1
   136   129   130    1
   137   107   106    1
   138   123   122    1
   139    34    35    1
   140   163   164   ar
   141   122   121    1
   142    20    21    1
   143    20    22    1
   144   159   160    2
   145    38    35    1
   146    38    39    1
   147   119   118    2
   148    41    39   ar
   149   121   120    1
   150    39    40   ar
   151   118   117    1
   152   106   103    1
   153   173   172    2
   154   105   104    2
   155   120   117    1
   156   174   172   am
   157   103   104    1
   158   103   102    1
   159    79    77    1
   160   172   171    1
   161    77    76    1
   162   117   116    1
   163    75    74    2
   164   101   100   ar
   165   101    99   ar
   166   100    98   ar
   167    62    61    1
   168   171   170    1
   169   102    93   am
   170    99    97   ar
   171   170   167    1
   172    89    88    1
   173    83    82    2
   174    98    96   ar
   175    74    73    1
   176    74    80   am
   177    76    78    1
   178    76    73    1
   179   166   167    1
   180    90    88    1
   181    94    93    2
   182    82    81    1
   183    82    84   am
   184    85    88    1
   185    85    84    1
   186    85    86    1
   187   178   177    2
   188    93    92    1
   189    97    96   ar
   190    61    63    1
   191    61    60    2
   192    96    95    1
   193    73    72    1
   194    81    80    1
   195    51    52   ar
   196    51    49   ar
   197    52    50   ar
   198   169   168    2
   199    87    86    2
   200   167   168    1
   201    95    92    1
   202    49    47   ar
   203   177   176    1
   204    60    59    1
   205    50    48   ar
   206    92    91    1
   207   181   179    1
   208    67    66    2
   209    72    66   am
   210    47    48   ar
   211    47    46    1
   212    66    65    1
   213   175   176    1
   214   176   179    1
   215    59    58    1
   216   179   180    1
   217    71    69   ar
   218    46    43    1
   219    56    55    2
   220    58    57    1
   221    57    54    1
   222    69    70   ar
   223    69    68    1
   224    65    68    1
   225    65    64    1
   226    55    54    1
   227    44    43    1
   228    44    45    2
   229    54    53    1
   230    43    42    1
