@<TRIPOS>MOLECULE
tmp/5gufA00.pdb
 151 140 0 0 0
SMALL
GASTEIGER

@<TRIPOS>ATOM
      1  N         11.3040    5.8260   38.7520 N.3    23  ASN23      -0.1240
      2  CA        10.5530    6.8190   37.9970 C.3    23  ASN23       0.1653
      3  C          9.8750    7.8430   38.8990 C.2    23  ASN23       0.2266
      4  O          9.6790    8.9900   38.4830 O.2    23  ASN23      -0.2867
      5  CB         9.5130    6.1220   37.1280 C.3    23  ASN23       0.1155
      6  CG         8.6310    7.0890   36.4000 C.2    23  ASN23       0.2627
      7  OD1        9.1040    7.9000   35.6070 O.2    23  ASN23      -0.2716
      8  ND2        7.3380    7.0300   36.6810 N.am   23  ASN23      -0.0877
      9  N         12.3580   11.1930   41.3810 N.3    26  PRO26      -0.2102
     10  CA        12.7560   12.5660   41.0040 C.3    26  PRO26       0.1504
     11  C         11.7010   13.6360   41.2940 C.2    26  PRO26       0.2575
     12  O         12.0550   14.8180   41.3920 O.2    26  PRO26      -0.2718
     13  CB        13.0480   12.4520   39.5000 C.3    26  PRO26       0.0282
     14  CG        13.3570   10.9940   39.2750 C.3    26  PRO26       0.0208
     15  CD        12.5010   10.2520   40.2500 C.3    26  PRO26       0.0893
     16  N         10.4320   13.2680   41.4740 N.am   27  VAL27      -0.1980
     17  CA         9.4160   14.2800   41.7430 C.3    27  VAL27       0.1595
     18  C          9.5360   14.8310   43.1630 C.2    27  VAL27       0.2287
     19  O          9.0330   15.9230   43.4530 O.2    27  VAL27      -0.2864
     20  CB         8.0120   13.6990   41.4900 C.3    27  VAL27       0.0276
     21  CG1        7.9930   12.8910   40.2110 C.3    27  VAL27       0.0022
     22  CG2        7.5660   12.8460   42.6770 C.3    27  VAL27       0.0022
     23  N         13.5490   16.7050   43.7940 N.3    30  GLY30      -0.1210
     24  CA        13.7740   18.0050   43.1910 C.3    30  GLY30       0.1956
     25  C         14.8360   17.9150   42.1170 C.2    30  GLY30       0.2612
     26  O         14.7740   17.0650   41.2180 O.2    30  GLY30      -0.2717
     27  N         15.8260   18.7830   42.2170 N.am   31  GLY31      -0.1956
     28  CA        16.8690   18.9120   41.2250 C.3    31  GLY31       0.1869
     29  C         16.7620   20.2340   40.4890 C.2    31  GLY31       0.2309
     30  O         15.6770   20.8060   40.3330 O.2    31  GLY31      -0.2863
     31  N         15.7830   18.3000   26.1640 N.3    48  LEU48      -0.1245
     32  CA        14.9680   17.5630   27.1280 C.3    48  LEU48       0.1561
     33  C         14.0330   18.4510   27.9240 C.2    48  LEU48       0.2260
     34  O         12.8880   18.0640   28.1670 O.2    48  LEU48      -0.2867
     35  CB        15.8550   16.7720   28.1070 C.3    48  LEU48       0.0270
     36  CG        16.6640   15.6090   27.4990 C.3    48  LEU48       0.0019
     37  CD1       17.4790   14.8570   28.5730 C.3    48  LEU48       0.0001
     38  CD2       15.7870   14.6330   26.6980 C.3    48  LEU48       0.0001
     39  N         13.6960   21.3560   31.4370 N.3    50  ASP50      -0.1225
     40  CA        14.1140   21.4740   32.8310 C.3    50  ASP50       0.1805
     41  C         13.5990   20.3400   33.7050 C.2    50  ASP50       0.2598
     42  O         14.0870   20.1730   34.8220 O.2    50  ASP50      -0.2718
     43  CB        13.6460   22.8130   33.4190 C.3    50  ASP50       0.1424
     44  CG        14.5260   23.9730   32.9960 C.2    50  ASP50       0.3668
     45  OD1       15.7130   23.7300   32.6570 O.co2  50  ASP50      -0.2456
     46  OD2       14.0330   25.1240   33.0140 O.co2  50  ASP50      -0.2456
     47  N         12.6200   19.5720   33.2350 N.am   51  GLY51      -0.1942
     48  CA        12.0660   18.5120   34.0470 C.3    51  GLY51       0.2014
     49  C         12.9940   17.3390   34.2680 C.2    51  GLY51       0.2639
     50  O         12.6600   16.4660   35.0680 O.2    51  GLY51      -0.2714
     51  N         14.1340   17.2920   33.5850 N.am   52  LYS52      -0.1963
     52  CA        15.0850   16.1860   33.6840 C.3    52  LYS52       0.1728
     53  C         16.3680   16.7540   34.2780 C.2    52  LYS52       0.2616
     54  O         17.1450   17.4200   33.5820 O.2    52  LYS52      -0.2715
     55  CB        15.3390   15.5480   32.3190 C.3    52  LYS52       0.0311
     56  CG        14.0860   15.0450   31.6410 C.3    52  LYS52       0.0038
     57  CD        13.2910   14.0950   32.5500 C.3    52  LYS52       0.0206
     58  CE        11.8340   14.1180   32.1560 C.3    52  LYS52       0.1093
     59  NZ        10.8710   13.4580   33.0590 N.3    52  LYS52      -0.1314
     60  N         16.5890   16.4980   35.5620 N.am   53  THR53      -0.1951
     61  CA        17.7230   17.0660   36.2680 C.3    53  THR53       0.1897
     62  C         18.6920   15.9540   36.6340 C.2    53  THR53       0.2313
     63  O         18.3230   14.7830   36.6740 O.2    53  THR53      -0.2863
     64  CB        17.2580   17.8360   37.5080 C.3    53  THR53       0.1794
     65  OG1       16.5930   16.9490   38.4130 O.3    53  THR53      -0.2208
     66  CG2       16.2670   18.9360   37.1010 C.3    53  THR53       0.0378
     67  N         17.8160   14.4470   39.7720 N.3    56  GLY56      -0.1210
     68  CA        16.7410   13.4990   39.5320 C.3    56  GLY56       0.1956
     69  C         17.2600   12.1380   39.1150 C.2    56  GLY56       0.2611
     70  O         16.8400   11.1060   39.6440 O.2    56  GLY56      -0.2717
     71  N         18.1980   12.1160   38.1720 N.am   57  LEU57      -0.1979
     72  CA        18.7240   10.8440   37.7040 C.3    57  LEU57       0.1596
     73  C         19.4370   10.0880   38.8220 C.2    57  LEU57       0.2287
     74  O         19.2950    8.8660   38.9360 O.2    57  LEU57      -0.2864
     75  CB        19.6700   11.0640   36.5290 C.3    57  LEU57       0.0297
     76  CG        19.0760   11.4300   35.1820 C.3    57  LEU57       0.0022
     77  CD1       20.1670   11.3070   34.1160 C.3    57  LEU57       0.0001
     78  CD2       17.9010   10.5190   34.8780 C.3    57  LEU57       0.0001
     79  N         14.7770    5.2580   33.7430 N.3    92  LEU92      -0.1245
     80  CA        15.1760    6.6610   33.6710 C.3    92  LEU92       0.1561
     81  C         15.4270    7.0890   32.2260 C.2    92  LEU92       0.2260
     82  O         15.0730    8.2090   31.8340 O.2    92  LEU92      -0.2867
     83  CB        16.4170    6.8980   34.5330 C.3    92  LEU92       0.0270
     84  CG        16.1880    6.7280   36.0390 C.3    92  LEU92       0.0019
     85  CD1       17.5150    6.6330   36.8310 C.3    92  LEU92       0.0001
     86  CD2       15.2650    7.8090   36.6110 C.3    92  LEU92       0.0001
     87  N         12.0120    7.5020   30.4200 N.3    95  ASP95      -0.1225
     88  CA        11.3560    8.7470   30.7910 C.3    95  ASP95       0.1805
     89  C         11.9960    9.9390   30.0810 C.2    95  ASP95       0.2597
     90  O         11.2970   10.8510   29.6210 O.2    95  ASP95      -0.2718
     91  CB        11.4050    8.9150   32.3050 C.3    95  ASP95       0.1424
     92  CG        10.8700   10.2420   32.7620 C.2    95  ASP95       0.3668
     93  OD1        9.6810   10.5430   32.5180 O.co2  95  ASP95      -0.2456
     94  OD2       11.6520   10.9890   33.3860 O.co2  95  ASP95      -0.2456
     95  N         13.3210    9.9450   29.9720 N.am   96  MET96      -0.1979
     96  CA        13.9780   10.9920   29.1990 C.3    96  MET96       0.1605
     97  C         13.6540   10.8810   27.7110 C.2    96  MET96       0.2287
     98  O         13.4340   11.8970   27.0450 O.2    96  MET96      -0.2864
     99  CB        15.4850   10.9440   29.4370 C.3    96  MET96       0.0413
    100  CG        15.8600   11.4640   30.8130 C.3    96  MET96       0.0598
    101  SD        17.6280   11.6940   30.9320 S.3    96  MET96      -0.1393
    102  CE        18.1330    9.9740   30.9310 C.3    96  MET96       0.0692
    103  N         10.3800   12.5580   27.2700 N.3    99  SER99      -0.1217
    104  CA        10.5290   14.0110   27.2860 C.3    99  SER99       0.1889
    105  C         11.1450   14.5180   25.9920 C.2    99  SER99       0.2288
    106  O         10.7310   15.5600   25.4590 O.2    99  SER99      -0.2866
    107  CB        11.3840   14.4410   28.4750 C.3    99  SER99       0.2089
    108  OG        10.5680   14.5900   29.5940 O.3    99  SER99      -0.2183
    109  N          8.4050   14.5910   23.5060 N.3   102  LYS102     -0.1231
    110  CA         7.4650   15.6850   23.7490 C.3   102  LYS102      0.1693
    111  C          8.0170   17.0150   23.2520 C.2   102  LYS102      0.2591
    112  O          7.2810   17.8200   22.6610 O.2   102  LYS102     -0.2718
    113  CB         7.1190   15.7920   25.2350 C.3   102  LYS102      0.0285
    114  CG         6.3030   14.6420   25.7920 C.3   102  LYS102      0.0035
    115  CD         6.1760   14.7530   27.2840 C.3   102  LYS102      0.0206
    116  CE         5.1150   15.7580   27.6700 C.3   102  LYS102      0.1093
    117  NZ         4.9230   15.7730   29.1400 N.3   102  LYS102     -0.1314
    118  N          9.3070   17.2680   23.4910 N.am  103  ARG103     -0.1980
    119  CA         9.9020   18.5230   23.0420 C.3   103  ARG103      0.1597
    120  C          9.8940   18.6160   21.5190 C.2   103  ARG103      0.2287
    121  O          9.5430   19.6600   20.9630 O.2   103  ARG103     -0.2864
    122  CB        11.3320   18.6710   23.5840 C.3   103  ARG103      0.0334
    123  CG        11.4870   18.7630   25.1180 C.3   103  ARG103      0.0492
    124  CD        10.6860   19.8870   25.7920 C.3   103  ARG103      0.2205
    125  NE         9.3320   19.4830   26.1780 N.pl3 103  ARG103     -0.0865
    126  CZ         9.0410   18.6830   27.2040 C.cat 103  ARG103      0.5346
    127  NH1       10.0100   18.1810   27.9600 N.pl3 103  ARG103      0.1354
    128  NH2        7.7770   18.3740   27.4710 N.pl3 103  ARG103      0.1354
    129  N          7.3420   21.7040   28.5830 N.3   109  ARG109     -0.1231
    130  CA         7.7230   20.9150   29.7410 C.3   109  ARG109      0.1694
    131  C          6.5890   20.8750   30.7620 C.2   109  ARG109      0.2592
    132  O          5.9660   21.8970   31.0660 O.2   109  ARG109     -0.2718
    133  CB         9.0030   21.5150   30.3340 C.3   109  ARG109      0.0321
    134  CG         9.3960   20.9850   31.6870 C.3   109  ARG109      0.0489
    135  CD         8.7900   21.7790   32.8060 C.3   109  ARG109      0.2205
    136  NE         9.1710   21.2180   34.0910 N.pl3 109  ARG109     -0.0865
    137  CZ         9.9710   21.8210   34.9600 C.cat 109  ARG109      0.5346
    138  NH1       10.4670   23.0170   34.6880 N.pl3 109  ARG109      0.1354
    139  NH2       10.2650   21.2210   36.1070 N.pl3 109  ARG109      0.1354
    140  N          6.2340   19.7090   31.2310 N.am  110  GLY110     -0.1957
    141  CA         5.1360   19.6290   32.1540 C.3   110  GLY110      0.1869
    142  C          3.7270   19.4690   31.6060 C.2   110  GLY110      0.2309
    143  O          2.8840   19.0430   32.3310 O.2   110  GLY110     -0.2863
    144  N          3.2800    9.8520   29.0550 N.3   117  ASP117     -0.1239
    145  CA         3.8020   10.2750   30.3560 C.3   117  ASP117      0.1674
    146  C          3.7970    9.1350   31.3710 C.2   117  ASP117      0.2266
    147  O          4.6140    9.1200   32.2950 O.2   117  ASP117     -0.2867
    148  CB         2.9710   11.4340   30.9200 C.3   117  ASP117      0.1410
    149  CG         3.3210   12.7850   30.2970 C.2   117  ASP117      0.3668
    150  OD1        4.3680   12.8830   29.6210 O.co2 117  ASP117     -0.2456
    151  OD2        2.5210   13.7430   30.4670 O.co2 117  ASP117     -0.2456
@<TRIPOS>BOND
     1   121   120    2
     2   120   119    1
     3   112   111    2
     4   119   118    1
     5   119   122    1
     6   111   118   am
     7   111   110    1
     8   109   110    1
     9   122   123    1
    10   110   113    1
    11   123   124    1
    12   113   114    1
    13   106   105    2
    14   114   115    1
    15   124   125    1
    16   105   104    1
    17    31    32    1
    18   125   126    2
    19    38    36    1
    20    98    97    2
    21    32    33    1
    22    32    35    1
    23   126   128    1
    24   126   127    1
    25   103   104    1
    26   115   116    1
    27   104   107    1
    28    36    35    1
    29    36    37    1
    30   116   117    1
    31    97    96    1
    32    33    34    2
    33   107   108    1
    34   129   130    1
    35   144   145    1
    36    96    99    1
    37    96    95    1
    38    99   100    1
    39   150   149   ar
    40    90    89    2
    41   130   133    1
    42   130   131    1
    43    95    89   am
    44    89    88    1
    45   149   151   ar
    46   149   148    1
    47   133   134    1
    48   145   148    1
    49   145   146    1
    50    87    88    1
    51   131   132    2
    52   131   140   am
    53    88    91    1
    54   100   101    1
    55   102   101    1
    56   140   141    1
    57   146   147    2
    58    39    40    1
    59   142   141    1
    60   142   143    2
    61    56    55    1
    62    56    57    1
    63   134   135    1
    64    82    81    2
    65    58    57    1
    66    58    59    1
    67    81    80    1
    68    91    92    1
    69    55    52    1
    70    93    92   ar
    71    45    44   ar
    72    92    94   ar
    73   135   136    1
    74    40    43    1
    75    40    41    1
    76    44    46   ar
    77    44    43    1
    78    47    41   am
    79    47    48    1
    80    54    53    2
    81    51    52    1
    82    51    49   am
    83    80    79    1
    84    80    83    1
    85    52    53    1
    86    41    42    2
    87    48    49    1
    88   136   137    2
    89    77    76    1
    90    49    50    2
    91    53    60   am
    92    83    84    1
    93   138   137    1
    94    78    76    1
    95   137   139    1
    96    76    75    1
    97    60    61    1
    98     7     6    2
    99    84    86    1
   100    84    85    1
   101    61    62    1
   102    61    64    1
   103     6     8   am
   104     6     5    1
   105    75    72    1
   106    62    63    2
   107    66    64    1
   108     5     2    1
   109    64    65    1
   110    72    71    1
   111    72    73    1
   112     2     1    1
   113     2     3    1
   114    71    69   am
   115     4     3    2
   116    73    74    2
   117    69    68    1
   118    69    70    2
   119    14    13    1
   120    14    15    1
   121    13    10    1
   122    68    67    1
   123    21    20    1
   124    15     9    1
   125    30    29    2
   126    29    28    1
   127    10    11    1
   128    10     9    1
   129    26    25    2
   130    28    27    1
   131    11    12    2
   132    11    16   am
   133    16    17    1
   134    20    17    1
   135    20    22    1
   136    17    18    1
   137    25    27   am
   138    25    24    1
   139    18    19    2
   140    24    23    1
