@<TRIPOS>MOLECULE
tmp/5gulD02.pdb
 88 79 0 0 0
SMALL
GASTEIGER

@<TRIPOS>ATOM
      1  N        -52.1530  -62.5460  -31.4800 N.3     8  ASP8       -0.1239
      2  CA       -53.3240  -62.0780  -30.7660 C.3     8  ASP8        0.1674
      3  C        -54.5000  -63.0280  -31.0790 C.2     8  ASP8        0.2266
      4  O        -54.6040  -63.5590  -32.1830 O.2     8  ASP8       -0.2867
      5  CB       -53.5880  -60.6230  -31.1890 C.3     8  ASP8        0.1410
      6  CG       -54.8470  -60.0390  -30.6380 C.2     8  ASP8        0.3668
      7  OD1      -55.0840  -59.9250  -29.3760 O.co2   8  ASP8       -0.2456
      8  OD2      -55.6090  -59.5850  -31.5250 O.co2   8  ASP8       -0.2456
      9  N        -60.2610  -64.9520  -26.6420 N.3    12  ARG12      -0.1245
     10  CA       -61.3620  -65.3540  -27.5350 C.3    12  ARG12       0.1563
     11  C        -61.2750  -66.8210  -27.9600 C.2    12  ARG12       0.2260
     12  O        -62.2930  -67.5030  -27.9490 O.2    12  ARG12      -0.2867
     13  CB       -61.4530  -64.4620  -28.7910 C.3    12  ARG12       0.0307
     14  CG       -62.1280  -63.1120  -28.5770 C.3    12  ARG12       0.0489
     15  CD       -61.9340  -62.2470  -29.8160 C.3    12  ARG12       0.2205
     16  NE       -60.5340  -61.7700  -29.9230 N.pl3  12  ARG12      -0.0865
     17  CZ       -59.8810  -61.4820  -31.0590 C.cat  12  ARG12       0.5346
     18  NH1      -60.4610  -61.5820  -32.2500 N.pl3  12  ARG12       0.1354
     19  NH2      -58.6160  -61.0690  -31.0120 N.pl3  12  ARG12       0.1354
     20  N        -48.0160  -55.2450  -25.1970 N.3    53  SER53      -0.1217
     21  CA       -48.0420  -53.7600  -25.1120 C.3    53  SER53       0.1889
     22  C        -48.0640  -53.2510  -23.6820 C.2    53  SER53       0.2288
     23  O        -48.3360  -54.0070  -22.7630 O.2    53  SER53      -0.2866
     24  CB       -49.2270  -53.1510  -25.8570 C.3    53  SER53       0.2089
     25  OG       -50.4390  -53.4630  -25.1960 O.3    53  SER53      -0.2183
     26  N        -51.3510  -54.0250  -22.2690 N.3    56  ASN56      -0.1240
     27  CA       -51.5820  -55.4090  -21.9200 C.3    56  ASN56       0.1653
     28  C        -51.2290  -55.6140  -20.4560 C.2    56  ASN56       0.2266
     29  O        -51.9800  -56.2990  -19.7520 O.2    56  ASN56      -0.2867
     30  CB       -50.7730  -56.3760  -22.7850 C.3    56  ASN56       0.1155
     31  CG       -51.1770  -56.3580  -24.2400 C.2    56  ASN56       0.2627
     32  OD1      -50.3970  -56.7440  -25.0800 O.2    56  ASN56      -0.2716
     33  ND2      -52.3930  -55.9340  -24.5350 N.am   56  ASN56      -0.0877
     34  N        -54.1880  -55.3690  -17.8140 N.3    59  ARG59      -0.1245
     35  CA       -55.1850  -56.4140  -17.6600 C.3    59  ARG59       0.1563
     36  C        -55.0880  -56.9370  -16.2280 C.2    59  ARG59       0.2260
     37  O        -54.2470  -56.4520  -15.4540 O.2    59  ARG59      -0.2867
     38  CB       -54.8990  -57.5390  -18.6490 C.3    59  ARG59       0.0307
     39  CG       -55.0970  -57.1660  -20.1240 C.3    59  ARG59       0.0489
     40  CD       -54.4150  -58.1850  -21.0330 C.3    59  ARG59       0.2205
     41  NE       -54.7440  -57.9420  -22.4370 N.pl3  59  ARG59      -0.0865
     42  CZ       -54.5030  -58.7730  -23.4470 C.cat  59  ARG59       0.5346
     43  NH1      -53.8870  -59.9570  -23.2840 N.pl3  59  ARG59       0.1354
     44  NH2      -54.9050  -58.4080  -24.6620 N.pl3  59  ARG59       0.1354
     45  N        -49.9550  -59.5500  -38.2250 N.3   162  ARG162     -0.1245
     46  CA       -50.7830  -59.4410  -37.0710 C.3   162  ARG162      0.1563
     47  C        -52.0400  -60.3120  -37.2460 C.2   162  ARG162      0.2260
     48  O        -52.6930  -60.2470  -38.2960 O.2   162  ARG162     -0.2867
     49  CB       -51.1750  -58.0150  -36.7940 C.3   162  ARG162      0.0307
     50  CG       -51.9140  -57.8710  -35.4510 C.3   162  ARG162      0.0489
     51  CD       -53.4120  -57.6440  -35.5760 C.3   162  ARG162      0.2205
     52  NE       -54.0860  -57.6250  -34.2580 N.pl3 162  ARG162     -0.0865
     53  CZ       -54.1810  -56.5650  -33.4320 C.cat 162  ARG162      0.5346
     54  NH1      -53.6430  -55.3980  -33.7350 N.pl3 162  ARG162      0.1354
     55  NH2      -54.8180  -56.6770  -32.2800 N.pl3 162  ARG162      0.1354
     56  N        -58.1510  -57.8730  -36.4170 N.3   166  ALA166     -0.1245
     57  CA       -58.0430  -56.5150  -35.9600 C.3   166  ALA166      0.1562
     58  C        -57.0680  -55.8190  -36.9050 C.2   166  ALA166      0.2260
     59  O        -55.8810  -56.1750  -36.9630 O.2   166  ALA166     -0.2867
     60  CB       -57.5390  -56.4750  -34.5200 C.3   166  ALA166      0.0290
     61  N        -55.4380  -52.9930  -37.0370 N.3   168  ARG168     -0.1245
     62  CA       -54.9520  -51.8810  -36.2150 C.3   168  ARG168      0.1563
     63  C        -53.5750  -52.2870  -35.7100 C.2   168  ARG168      0.2260
     64  O        -53.2500  -53.4600  -35.7670 O.2   168  ARG168     -0.2867
     65  CB       -55.8990  -51.5550  -35.0610 C.3   168  ARG168      0.0307
     66  CG       -56.4260  -52.7340  -34.2390 C.3   168  ARG168      0.0489
     67  CD       -57.3910  -52.1940  -33.1830 C.3   168  ARG168      0.2205
     68  NE       -57.8970  -53.1690  -32.2170 N.pl3 168  ARG168     -0.0865
     69  CZ       -59.1320  -53.6900  -32.1730 C.cat 168  ARG168      0.5346
     70  NH1      -60.0680  -53.3510  -33.0440 N.pl3 168  ARG168      0.1354
     71  NH2      -59.4570  -54.5650  -31.2130 N.pl3 168  ARG168      0.1354
     72  N        -52.4590  -51.5470  -32.4720 N.3   170  SER170     -0.1217
     73  CA       -52.5550  -51.8930  -31.0280 C.3   170  SER170      0.1889
     74  C        -51.2630  -51.6330  -30.2470 C.2   170  SER170      0.2288
     75  O        -50.7900  -52.4710  -29.4590 O.2   170  SER170     -0.2866
     76  CB       -52.9950  -53.3630  -30.8880 C.3   170  SER170      0.2089
     77  OG       -54.1250  -53.5950  -31.7430 O.3   170  SER170     -0.2183
     78  N        -48.2250  -51.5410  -31.3680 N.3   172  PHE172     -0.1241
     79  CA       -47.0760  -52.3110  -31.8180 C.3   172  PHE172      0.1605
     80  C        -46.3180  -51.7550  -33.0190 C.2   172  PHE172      0.2264
     81  O        -45.5430  -52.4860  -33.5990 O.2   172  PHE172     -0.2867
     82  CB       -47.5240  -53.7670  -32.0960 C.3   172  PHE172      0.0534
     83  CG       -48.1120  -54.4790  -30.8860 C.ar  172  PHE172     -0.0203
     84  CD1      -47.3610  -54.6180  -29.7080 C.ar  172  PHE172     -0.0042
     85  CD2      -49.3730  -55.0620  -30.9250 C.ar  172  PHE172     -0.0042
     86  CE1      -47.8890  -55.2750  -28.5990 C.ar  172  PHE172     -0.0003
     87  CE2      -49.8950  -55.7250  -29.8180 C.ar  172  PHE172     -0.0003
     88  CZ       -49.1520  -55.8270  -28.6500 C.ar  172  PHE172     -0.0000
@<TRIPOS>BOND
     1    48    47    2
     2    45    46    1
     3    47    46    1
     4    46    49    1
     5    61    62    1
     6    59    58    2
     7    58    57    1
     8    49    50    1
     9    56    57    1
    10    62    63    1
    11    62    65    1
    12    57    60    1
    13    64    63    2
    14    51    50    1
    15    51    52    1
    16    65    66    1
    17    52    53    2
    18    66    67    1
    19    54    53    1
    20    81    80    2
    21    53    55    1
    22    67    68    1
    23    70    69    1
    24    80    79    1
    25    72    73    1
    26    18    17    1
    27    68    69    2
    28     4     3    2
    29    69    71    1
    30    82    79    1
    31    82    83    1
    32    79    78    1
    33    77    76    1
    34     8     6   ar
    35     1     2    1
    36     5     2    1
    37     5     6    1
    38     3     2    1
    39    17    19    1
    40    17    16    2
    41    73    76    1
    42    73    74    1
    43    85    83   ar
    44    85    87   ar
    45    83    84   ar
    46     6     7   ar
    47    74    75    2
    48    16    15    1
    49    87    88   ar
    50    15    14    1
    51    84    86   ar
    52    13    14    1
    53    13    10    1
    54    88    86   ar
    55    11    12    2
    56    11    10    1
    57    10     9    1
    58    24    25    1
    59    24    21    1
    60    20    21    1
    61    21    22    1
    62    32    31    2
    63    44    42    1
    64    33    31   am
    65    31    30    1
    66    22    23    2
    67    42    43    1
    68    42    41    2
    69    30    27    1
    70    41    40    1
    71    26    27    1
    72    27    28    1
    73    40    39    1
    74    28    29    2
    75    39    38    1
    76    38    35    1
    77    34    35    1
    78    35    36    1
    79    36    37    2
