@<TRIPOS>MOLECULE
tmp/5gulD03.pdb
 128 123 0 0 0
SMALL
GASTEIGER

@<TRIPOS>ATOM
      1  N        -48.8660  -61.6980  -32.0440 N.3     7  PRO7       -0.2102
      2  CA       -49.7400  -62.8510  -31.8120 C.3     7  PRO7        0.1504
      3  C        -50.9340  -62.5250  -30.9190 C.2     7  PRO7        0.2576
      4  O        -50.7610  -62.3070  -29.7290 O.2     7  PRO7       -0.2718
      5  CB       -48.8160  -63.8030  -31.0840 C.3     7  PRO7        0.0282
      6  CG       -47.9930  -62.9050  -30.2280 C.3     7  PRO7        0.0208
      7  CD       -47.8960  -61.5690  -30.9400 C.3     7  PRO7        0.0893
      8  N        -52.1530  -62.5460  -31.4800 N.am    8  ASP8       -0.1960
      9  CA       -53.3240  -62.0780  -30.7660 C.3     8  ASP8        0.1840
     10  C        -54.5000  -63.0280  -31.0790 C.2     8  ASP8        0.2623
     11  O        -54.6040  -63.5590  -32.1830 O.2     8  ASP8       -0.2715
     12  CB       -53.5880  -60.6230  -31.1890 C.3     8  ASP8        0.1450
     13  CG       -54.8470  -60.0390  -30.6380 C.2     8  ASP8        0.3671
     14  OD1      -55.0840  -59.9250  -29.3760 O.co2   8  ASP8       -0.2456
     15  OD2      -55.6090  -59.5850  -31.5250 O.co2   8  ASP8       -0.2456
     16  N        -55.3420  -63.2250  -30.0810 N.am    9  GLY9       -0.1940
     17  CA       -56.4880  -64.1500  -30.1570 C.3     9  GLY9        0.2014
     18  C        -56.4640  -65.3100  -29.1620 C.2     9  GLY9        0.2638
     19  O        -56.7890  -66.4580  -29.5180 O.2     9  GLY9       -0.2714
     20  N        -56.1350  -65.0090  -27.9090 N.am   10  MET10      -0.1976
     21  CA       -56.0520  -66.0200  -26.8890 C.3    10  MET10       0.1605
     22  C        -57.2870  -66.1120  -26.0060 C.2    10  MET10       0.2287
     23  O        -57.7890  -67.2030  -25.7940 O.2    10  MET10      -0.2864
     24  CB       -54.7660  -65.8450  -26.0680 C.3    10  MET10       0.0413
     25  CG       -53.5940  -66.6640  -26.6290 C.3    10  MET10       0.0598
     26  SD       -53.2070  -65.9860  -28.2010 S.3    10  MET10      -0.1393
     27  CE       -52.0930  -67.0640  -28.9410 C.3    10  MET10       0.0692
     28  N        -53.0260  -69.7120  -23.9460 N.3    25  TYR25      -0.1241
     29  CA       -51.6230  -69.2310  -24.0270 C.3    25  TYR25       0.1605
     30  C        -50.5630  -70.3470  -24.0780 C.2    25  TYR25       0.2264
     31  O        -49.4570  -70.0990  -24.5290 O.2    25  TYR25      -0.2867
     32  CB       -51.3190  -68.1760  -22.9380 C.3    25  TYR25       0.0534
     33  CG       -51.6170  -66.7460  -23.3910 C.ar   25  TYR25      -0.0201
     34  CD1      -50.7040  -66.0320  -24.1630 C.ar   25  TYR25      -0.0009
     35  CD2      -52.8190  -66.1300  -23.0560 C.ar   25  TYR25      -0.0009
     36  CE1      -50.9910  -64.7260  -24.5880 C.ar   25  TYR25       0.0417
     37  CE2      -53.1140  -64.8390  -23.4730 C.ar   25  TYR25       0.0417
     38  CZ       -52.2000  -64.1390  -24.2390 C.ar   25  TYR25       0.1957
     39  OH       -52.5460  -62.8590  -24.6230 O.3    25  TYR25      -0.2866
     40  N        -50.5390  -71.0530  -27.8480 N.3    28  MET28      -0.1245
     41  CA       -49.6920  -69.9850  -28.4360 C.3    28  MET28       0.1570
     42  C        -48.2450  -70.3940  -28.4240 C.2    28  MET28       0.2261
     43  O        -47.5780  -70.3780  -29.4700 O.2    28  MET28      -0.2867
     44  CB       -49.8100  -68.6880  -27.6500 C.3    28  MET28       0.0387
     45  CG       -49.0240  -67.5130  -28.2700 C.3    28  MET28       0.0595
     46  SD       -48.9130  -66.1830  -27.0680 S.3    28  MET28      -0.1393
     47  CE       -47.6940  -66.8550  -25.9430 C.3    28  MET28       0.0692
     48  N        -43.9590  -59.4370  -30.4780 N.3    50  THR50      -0.1203
     49  CA       -44.4600  -58.4840  -29.4680 C.3    50  THR50       0.1994
     50  C        -45.1870  -59.2510  -28.4010 C.2    50  THR50       0.2618
     51  O        -46.3990  -59.4960  -28.5200 O.2    50  THR50      -0.2717
     52  CB       -45.4090  -57.4190  -30.0720 C.3    50  THR50       0.1784
     53  OG1      -46.5850  -58.0600  -30.5770 O.3    50  THR50      -0.2211
     54  CG2      -44.7240  -56.6350  -31.2110 C.3    50  THR50       0.0376
     55  N        -44.4620  -59.5990  -27.3340 N.am   51  ALA51      -0.1965
     56  CA       -45.0610  -60.3190  -26.2250 C.3    51  ALA51       0.1728
     57  C        -46.1250  -59.5520  -25.5270 C.2    51  ALA51       0.2616
     58  O        -47.0880  -60.1470  -25.0180 O.2    51  ALA51      -0.2715
     59  CB       -44.0200  -60.7510  -25.2040 C.3    51  ALA51       0.0334
     60  N        -45.9460  -58.2380  -25.4400 N.am   52  SER52      -0.1950
     61  CA       -46.9650  -57.3830  -24.8690 C.3    52  SER52       0.1924
     62  C        -46.8890  -55.9140  -25.2890 C.2    52  SER52       0.2314
     63  O        -45.8140  -55.3950  -25.6400 O.2    52  SER52      -0.2863
     64  CB       -46.8660  -57.4350  -23.3340 C.3    52  SER52       0.2116
     65  OG       -45.5700  -57.0720  -22.8390 O.3    52  SER52      -0.2180
     66  N        -51.3510  -54.0250  -22.2690 N.3    56  ASN56      -0.1240
     67  CA       -51.5820  -55.4090  -21.9200 C.3    56  ASN56       0.1653
     68  C        -51.2290  -55.6140  -20.4560 C.2    56  ASN56       0.2266
     69  O        -51.9800  -56.2990  -19.7520 O.2    56  ASN56      -0.2867
     70  CB       -50.7730  -56.3760  -22.7850 C.3    56  ASN56       0.1155
     71  CG       -51.1770  -56.3580  -24.2400 C.2    56  ASN56       0.2627
     72  OD1      -50.3970  -56.7440  -25.0800 O.2    56  ASN56      -0.2716
     73  ND2      -52.3930  -55.9340  -24.5350 N.am   56  ASN56      -0.0877
     74  N        -54.1880  -55.3690  -17.8140 N.3    59  ARG59      -0.1245
     75  CA       -55.1850  -56.4140  -17.6600 C.3    59  ARG59       0.1563
     76  C        -55.0880  -56.9370  -16.2280 C.2    59  ARG59       0.2260
     77  O        -54.2470  -56.4520  -15.4540 O.2    59  ARG59      -0.2867
     78  CB       -54.8990  -57.5390  -18.6490 C.3    59  ARG59       0.0307
     79  CG       -55.0970  -57.1660  -20.1240 C.3    59  ARG59       0.0489
     80  CD       -54.4150  -58.1850  -21.0330 C.3    59  ARG59       0.2205
     81  NE       -54.7440  -57.9420  -22.4370 N.pl3  59  ARG59      -0.0865
     82  CZ       -54.5030  -58.7730  -23.4470 C.cat  59  ARG59       0.5346
     83  NH1      -53.8870  -59.9570  -23.2840 N.pl3  59  ARG59       0.1354
     84  NH2      -54.9050  -58.4080  -24.6620 N.pl3  59  ARG59       0.1354
     85  N        -49.8310  -64.6550  -19.9130 N.3    67  PHE67      -0.1241
     86  CA       -48.9940  -64.3990  -21.1320 C.3    67  PHE67       0.1605
     87  C        -47.5320  -64.4050  -20.7600 C.2    67  PHE67       0.2264
     88  O        -46.7270  -64.9740  -21.4800 O.2    67  PHE67      -0.2867
     89  CB       -49.4060  -63.1900  -22.0320 C.3    67  PHE67       0.0534
     90  CG       -49.2120  -61.8160  -21.4380 C.ar   67  PHE67      -0.0203
     91  CD1      -47.9500  -61.2270  -21.3790 C.ar   67  PHE67      -0.0042
     92  CD2      -50.3010  -61.0570  -21.0670 C.ar   67  PHE67      -0.0042
     93  CE1      -47.7850  -59.9370  -20.8710 C.ar   67  PHE67      -0.0003
     94  CE2      -50.1460  -59.7740  -20.5510 C.ar   67  PHE67      -0.0003
     95  CZ       -48.8720  -59.1970  -20.4530 C.ar   67  PHE67      -0.0000
     96  N        -45.0530  -66.8650  -22.7220 N.3    71  PHE71      -0.1241
     97  CA       -43.9610  -66.3260  -23.5170 C.3    71  PHE71       0.1605
     98  C        -42.6270  -66.7640  -22.9750 C.2    71  PHE71       0.2264
     99  O        -41.6900  -67.0310  -23.7340 O.2    71  PHE71      -0.2867
    100  CB       -44.0590  -64.7640  -23.5990 C.3    71  PHE71       0.0534
    101  CG       -45.0000  -64.3030  -24.6520 C.ar   71  PHE71      -0.0203
    102  CD1      -44.6740  -64.4900  -25.9730 C.ar   71  PHE71      -0.0042
    103  CD2      -46.2100  -63.7330  -24.3460 C.ar   71  PHE71      -0.0042
    104  CE1      -45.5440  -64.1090  -26.9820 C.ar   71  PHE71      -0.0003
    105  CE2      -47.0880  -63.3580  -25.3380 C.ar   71  PHE71      -0.0003
    106  CZ       -46.7600  -63.5400  -26.6590 C.ar   71  PHE71      -0.0000
    107  N        -49.9550  -59.5500  -38.2250 N.3   162  ARG162     -0.1245
    108  CA       -50.7830  -59.4410  -37.0710 C.3   162  ARG162      0.1563
    109  C        -52.0400  -60.3120  -37.2460 C.2   162  ARG162      0.2260
    110  O        -52.6930  -60.2470  -38.2960 O.2   162  ARG162     -0.2867
    111  CB       -51.1750  -58.0150  -36.7940 C.3   162  ARG162      0.0307
    112  CG       -51.9140  -57.8710  -35.4510 C.3   162  ARG162      0.0489
    113  CD       -53.4120  -57.6440  -35.5760 C.3   162  ARG162      0.2205
    114  NE       -54.0860  -57.6250  -34.2580 N.pl3 162  ARG162     -0.0865
    115  CZ       -54.1810  -56.5650  -33.4320 C.cat 162  ARG162      0.5346
    116  NH1      -53.6430  -55.3980  -33.7350 N.pl3 162  ARG162      0.1354
    117  NH2      -54.8180  -56.6770  -32.2800 N.pl3 162  ARG162      0.1354
    118  N        -48.2250  -51.5410  -31.3680 N.3   172  PHE172     -0.1241
    119  CA       -47.0760  -52.3110  -31.8180 C.3   172  PHE172      0.1605
    120  C        -46.3180  -51.7550  -33.0190 C.2   172  PHE172      0.2264
    121  O        -45.5430  -52.4860  -33.5990 O.2   172  PHE172     -0.2867
    122  CB       -47.5240  -53.7670  -32.0960 C.3   172  PHE172      0.0534
    123  CG       -48.1120  -54.4790  -30.8860 C.ar  172  PHE172     -0.0203
    124  CD1      -47.3610  -54.6180  -29.7080 C.ar  172  PHE172     -0.0042
    125  CD2      -49.3730  -55.0620  -30.9250 C.ar  172  PHE172     -0.0042
    126  CE1      -47.8890  -55.2750  -28.5990 C.ar  172  PHE172     -0.0003
    127  CE2      -49.8950  -55.7250  -29.8180 C.ar  172  PHE172     -0.0003
    128  CZ       -49.1520  -55.8270  -28.6500 C.ar  172  PHE172     -0.0000
@<TRIPOS>BOND
     1   110   109    2
     2   107   108    1
     3   109   108    1
     4   108   111    1
     5   111   112    1
     6   113   112    1
     7   113   114    1
     8   114   115    2
     9   116   115    1
    10   121   120    2
    11   115   117    1
    12   120   119    1
    13    11    10    2
    14   122   119    1
    15   122   123    1
    16     1     2    1
    17     1     7    1
    18   119   118    1
    19     2     5    1
    20     2     3    1
    21    15    13   ar
    22     8     3   am
    23     8     9    1
    24    54    52    1
    25    12     9    1
    26    12    13    1
    27     5     6    1
    28    10     9    1
    29    10    16   am
    30     7     6    1
    31   125   123   ar
    32   125   127   ar
    33     3     4    2
    34   123   124   ar
    35    13    14   ar
    36    53    52    1
    37    48    49    1
    38    17    16    1
    39    17    18    1
    40    52    49    1
    41   127   128   ar
    42   124   126   ar
    43    19    18    2
    44    43    42    2
    45    49    50    1
    46    18    20   am
    47    27    26    1
    48   128   126   ar
    49    51    50    2
    50    41    42    1
    51    41    40    1
    52    41    44    1
    53    50    55   am
    54    45    44    1
    55    45    46    1
    56    26    25    1
    57    20    21    1
    58    55    56    1
    59    46    47    1
    60   104   106   ar
    61   104   102   ar
    62    21    24    1
    63    21    22    1
    64   106   105   ar
    65    25    24    1
    66    56    57    1
    67    56    59    1
    68    22    23    2
    69   102   101   ar
    70    63    62    2
    71    57    60   am
    72    57    58    2
    73    60    61    1
    74   105   103   ar
    75    62    61    1
    76    72    71    2
    77    61    64    1
    78    84    82    1
    79   101   103   ar
    80   101   100    1
    81    39    38    1
    82    36    38   ar
    83    36    34   ar
    84    73    71   am
    85    31    30    2
    86    71    70    1
    87    38    37   ar
    88    34    33   ar
    89    30    29    1
    90    29    28    1
    91    29    32    1
    92    99    98    2
    93   100    97    1
    94    97    98    1
    95    97    96    1
    96    37    35   ar
    97    82    83    1
    98    82    81    2
    99    33    35   ar
   100    33    32    1
   101    64    65    1
   102    70    67    1
   103    81    80    1
   104    66    67    1
   105    89    90    1
   106    89    86    1
   107    67    68    1
   108    88    87    2
   109    90    91   ar
   110    90    92   ar
   111    91    93   ar
   112    86    87    1
   113    86    85    1
   114    92    94   ar
   115    80    79    1
   116    93    95   ar
   117    94    95   ar
   118    68    69    2
   119    79    78    1
   120    78    75    1
   121    74    75    1
   122    75    76    1
   123    76    77    2
