@<TRIPOS>MOLECULE
tmp/5gupV00.pdb
 91 87 0 0 0
SMALL
GASTEIGER

@<TRIPOS>ATOM
      1  N        245.3510  225.1110  237.4370 N.3    31  THR31      -0.1218
      2  CA       246.5140  224.7190  238.2140 C.3    31  THR31       0.1862
      3  C        246.2320  224.9150  239.6940 C.2    31  THR31       0.2287
      4  O        246.7240  224.1630  240.5420 O.2    31  THR31      -0.2866
      5  CB       247.7560  225.5170  237.8180 C.3    31  THR31       0.1770
      6  OG1      247.5120  226.9120  238.0190 O.3    31  THR31      -0.2211
      7  CG2      248.0800  225.2780  236.3670 C.3    31  THR31       0.0375
      8  N        244.4470  221.9070  240.9120 N.3    34  ILE34      -0.1231
      9  CA       245.3000  220.7350  241.0650 C.3    34  ILE34       0.1692
     10  C        246.1300  220.8300  242.3370 C.2    34  ILE34       0.2591
     11  O        246.1620  219.8930  243.1460 O.2    34  ILE34      -0.2718
     12  CB       246.2400  220.5490  239.8830 C.3    34  ILE34       0.0266
     13  CG1      245.4440  220.2410  238.6230 C.3    34  ILE34       0.0019
     14  CG2      247.2020  219.4240  240.1570 C.3    34  ILE34       0.0020
     15  CD1      246.2870  220.2410  237.3700 C.3    34  ILE34       0.0001
     16  N        246.7770  221.9750  242.5340 N.am   35  VAL35      -0.1980
     17  CA       247.6280  222.1360  243.7030 C.3    35  VAL35       0.1595
     18  C        246.8120  221.9950  244.9640 C.2    35  VAL35       0.2287
     19  O        247.2440  221.3720  245.9300 O.2    35  VAL35      -0.2864
     20  CB       248.3190  223.4940  243.7230 C.3    35  VAL35       0.0276
     21  CG1      249.0810  223.6700  245.0130 C.3    35  VAL35       0.0022
     22  CG2      249.2430  223.6200  242.5410 C.3    35  VAL35       0.0022
     23  N        246.1670  218.0670  245.4830 N.3    38  TYR38      -0.1227
     24  CA       247.2050  217.3220  246.1790 C.3    38  TYR38       0.1736
     25  C        247.4360  217.8340  247.5860 C.2    38  TYR38       0.2596
     26  O        247.7750  217.0570  248.4620 O.2    38  TYR38      -0.2718
     27  CB       248.5240  217.3490  245.4280 C.3    38  TYR38       0.0548
     28  CG       248.5810  216.4720  244.2180 C.ar   38  TYR38      -0.0200
     29  CD1      248.9250  215.1400  244.3290 C.ar   38  TYR38      -0.0009
     30  CD2      248.3310  216.9800  242.9640 C.ar   38  TYR38      -0.0009
     31  CE1      248.9930  214.3370  243.2280 C.ar   38  TYR38       0.0417
     32  CE2      248.3980  216.1850  241.8570 C.ar   38  TYR38       0.0417
     33  CZ       248.7280  214.8660  241.9920 C.ar   38  TYR38       0.1957
     34  OH       248.7900  214.0760  240.8750 O.3    38  TYR38      -0.2866
     35  N        247.2620  219.1300  247.8110 N.am   39  SER39      -0.1952
     36  CA       247.5300  219.6690  249.1350 C.3    39  SER39       0.1924
     37  C        246.5600  219.0910  250.1270 C.2    39  SER39       0.2314
     38  O        246.9420  218.6950  251.2220 O.2    39  SER39      -0.2863
     39  CB       247.4110  221.1790  249.1500 C.3    39  SER39       0.2116
     40  OG       246.0690  221.5500  248.9170 O.3    39  SER39      -0.2180
     41  N        247.4650  215.3890  250.7510 N.3    42  LEU42      -0.1231
     42  CA       248.6650  215.0460  251.5030 C.3    42  LEU42       0.1693
     43  C        248.8160  215.8270  252.7990 C.2    42  LEU42       0.2591
     44  O        249.7040  215.5500  253.5970 O.2    42  LEU42      -0.2718
     45  CB       249.8910  215.2650  250.6320 C.3    42  LEU42       0.0284
     46  CG       249.9390  214.3440  249.4250 C.3    42  LEU42       0.0019
     47  CD1      251.0800  214.7170  248.5160 C.3    42  LEU42       0.0001
     48  CD2      250.0930  212.9320  249.9090 C.3    42  LEU42       0.0001
     49  N        247.9480  216.8030  253.0080 N.am   43  LYS43      -0.1980
     50  CA       247.9250  217.5200  254.2670 C.3    43  LYS43       0.1596
     51  C        246.5010  217.5800  254.7770 C.2    43  LYS43       0.2287
     52  O        245.8200  218.5910  254.6240 O.2    43  LYS43      -0.2864
     53  CB       248.5000  218.9210  254.1250 C.3    43  LYS43       0.0298
     54  CG       248.5410  219.6610  255.4480 C.3    43  LYS43       0.0038
     55  CD       249.0240  221.0820  255.2960 C.3    43  LYS43       0.0206
     56  CE       250.4990  221.1120  254.9780 C.3    43  LYS43       0.1093
     57  NZ       250.9850  222.5080  254.8350 N.3    43  LYS43      -0.1314
     58  N        241.0690  226.3590  252.2530 N.3    54  ARG54      -0.1245
     59  CA       242.3820  226.1810  251.6670 C.3    54  ARG54       0.1563
     60  C        242.2830  226.2340  250.1570 C.2    54  ARG54       0.2260
     61  O        243.0060  226.9860  249.4910 O.2    54  ARG54      -0.2867
     62  CB       242.9770  224.8400  252.0890 C.3    54  ARG54       0.0307
     63  CG       244.4060  224.6570  251.6710 C.3    54  ARG54       0.0489
     64  CD       244.8510  223.2120  251.7630 C.3    54  ARG54       0.2205
     65  NE       244.9010  222.6670  253.1150 N.pl3  54  ARG54      -0.0865
     66  CZ       245.9760  222.6970  253.8910 C.cat  54  ARG54       0.5346
     67  NH1      247.0960  223.2470  253.4490 N.pl3  54  ARG54       0.1354
     68  NH2      245.9350  222.1680  255.1030 N.pl3  54  ARG54       0.1354
     69  N        241.6560  229.4880  248.7870 N.3    57  ARG57      -0.1231
     70  CA       242.8780  230.2610  248.8130 C.3    57  ARG57       0.1694
     71  C        243.6530  230.0110  247.5400 C.2    57  ARG57       0.2592
     72  O        243.7960  230.9140  246.7120 O.2    57  ARG57      -0.2718
     73  CB       243.7150  229.8950  250.0340 C.3    57  ARG57       0.0321
     74  CG       245.0050  230.6640  250.1970 C.3    57  ARG57       0.0489
     75  CD       245.7280  230.1770  251.4450 C.3    57  ARG57       0.2205
     76  NE       247.0120  230.8360  251.6500 N.pl3  57  ARG57      -0.0865
     77  CZ       247.1570  232.0010  252.2700 C.cat  57  ARG57       0.5346
     78  NH1      248.3610  232.5360  252.4190 N.pl3  57  ARG57       0.1354
     79  NH2      246.0930  232.6330  252.7450 N.pl3  57  ARG57       0.1354
     80  N        244.1080  228.7760  247.3540 N.am   58  TYR58      -0.1976
     81  CA       244.9980  228.5090  246.2310 C.3    58  TYR58       0.1639
     82  C        244.3480  228.8000  244.8990 C.2    58  TYR58       0.2290
     83  O        244.9850  229.3560  243.9990 O.2    58  TYR58      -0.2864
     84  CB       245.4700  227.0640  246.2260 C.3    58  TYR58       0.0560
     85  CG       246.3190  226.6960  247.3990 C.ar   58  TYR58      -0.0198
     86  CD1      247.6560  227.0250  247.4340 C.ar   58  TYR58      -0.0009
     87  CD2      245.7970  225.9780  248.4510 C.ar   58  TYR58      -0.0009
     88  CE1      248.4390  226.6790  248.5060 C.ar   58  TYR58       0.0417
     89  CE2      246.5710  225.6250  249.5150 C.ar   58  TYR58       0.0417
     90  CZ       247.8870  225.9720  249.5440 C.ar   58  TYR58       0.1957
     91  OH       248.6460  225.6100  250.6280 O.3    58  TYR58      -0.2866
@<TRIPOS>BOND
     1     7     5    1
     2    15    13    1
     3     1     2    1
     4     5     6    1
     5     5     2    1
     6     2     3    1
     7    13    12    1
     8     3     4    2
     9    12    14    1
    10    12     9    1
    11    34    33    1
    12     8     9    1
    13     9    10    1
    14    32    33   ar
    15    32    30   ar
    16    33    31   ar
    17    10    16   am
    18    10    11    2
    19    16    17    1
    20    22    20    1
    21    30    28   ar
    22    31    29   ar
    23    17    20    1
    24    17    18    1
    25    20    21    1
    26    83    82    2
    27    28    29   ar
    28    28    27    1
    29    82    81    1
    30    18    19    2
    31    27    24    1
    32    23    24    1
    33    24    25    1
    34    84    81    1
    35    84    85    1
    36    81    80    1
    37    72    71    2
    38    80    71   am
    39    85    86   ar
    40    85    87   ar
    41    86    88   ar
    42    71    70    1
    43    25    35   am
    44    25    26    2
    45    35    36    1
    46    87    89   ar
    47    88    90   ar
    48    47    46    1
    49    69    70    1
    50    70    73    1
    51    40    39    1
    52    36    39    1
    53    36    37    1
    54    46    48    1
    55    46    45    1
    56    61    60    2
    57    89    90   ar
    58    90    91    1
    59    73    74    1
    60    37    38    2
    61    60    59    1
    62    74    75    1
    63    45    42    1
    64    41    42    1
    65    75    76    1
    66    42    43    1
    67    76    77    2
    68    59    62    1
    69    59    58    1
    70    63    64    1
    71    63    62    1
    72    64    65    1
    73    77    78    1
    74    77    79    1
    75    43    49   am
    76    43    44    2
    77    49    50    1
    78    65    66    2
    79    67    66    1
    80    66    68    1
    81    53    50    1
    82    53    54    1
    83    50    51    1
    84    52    51    2
    85    57    56    1
    86    56    55    1
    87    55    54    1
