@<TRIPOS>MOLECULE
tmp/5gupL00.pdb
 236 228 0 0 0
SMALL
GASTEIGER

@<TRIPOS>ATOM
      1  N        189.8970  196.5760  287.0310 N.3    21  GLY21      -0.1225
      2  CA       190.7200  196.8800  285.8770 C.3    21  GLY21       0.1811
      3  C        192.1850  197.1450  286.1630 C.2    21  GLY21       0.2280
      4  O        192.8100  197.9660  285.4910 O.2    21  GLY21      -0.2866
      5  N        194.4540  195.3500  285.4840 N.3    23  THR23      -0.1203
      6  CA       195.2900  194.6810  284.5120 C.3    23  THR23       0.1994
      7  C        196.2150  195.6670  283.8170 C.2    23  THR23       0.2618
      8  O        197.2830  195.2950  283.3450 O.2    23  THR23      -0.2717
      9  CB       194.4480  193.9270  283.4900 C.3    23  THR23       0.1784
     10  OG1      193.6220  192.9870  284.1830 O.3    23  THR23      -0.2211
     11  CG2      195.3460  193.1900  282.5100 C.3    23  THR23       0.0376
     12  N        195.8150  196.9300  283.7810 N.am   24  GLY24      -0.1942
     13  CA       196.5790  197.9730  283.1290 C.3    24  GLY24       0.2014
     14  C        197.7390  198.5160  283.9350 C.2    24  GLY24       0.2639
     15  O        198.0330  198.0330  285.0180 O.2    24  GLY24      -0.2714
     16  N        198.3550  199.5760  283.4160 N.am   25  PHE25      -0.1959
     17  CA       199.5250  200.2300  283.9980 C.3    25  PHE25       0.1771
     18  C        199.2240  200.7000  285.4110 C.2    25  PHE25       0.2619
     19  O        200.0660  200.6120  286.2890 O.2    25  PHE25      -0.2715
     20  CB       199.8730  201.4150  283.1020 C.3    25  PHE25       0.0574
     21  CG       201.0440  202.2260  283.5590 C.ar   25  PHE25      -0.0200
     22  CD1      202.1040  201.6440  284.2120 C.ar   25  PHE25      -0.0042
     23  CD2      201.0980  203.5750  283.2800 C.ar   25  PHE25      -0.0042
     24  CE1      203.1830  202.4030  284.6080 C.ar   25  PHE25      -0.0003
     25  CE2      202.1710  204.3380  283.6710 C.ar   25  PHE25      -0.0003
     26  CZ       203.2170  203.7520  284.3350 C.ar   25  PHE25      -0.0000
     27  N        198.0420  201.2490  285.6270 N.am   26  LEU26      -0.1977
     28  CA       197.6190  201.5820  286.9620 C.3    26  LEU26       0.1596
     29  C        196.3530  200.7440  287.0950 C.2    26  LEU26       0.2287
     30  O        195.4530  200.8310  286.2650 O.2    26  LEU26      -0.2864
     31  CB       197.3170  203.0650  287.1020 C.3    26  LEU26       0.0297
     32  CG       197.6520  203.5630  288.5010 C.3    26  LEU26       0.0022
     33  CD1      199.1280  203.3070  288.7330 C.3    26  LEU26       0.0001
     34  CD2      197.3130  205.0320  288.6780 C.3    26  LEU26       0.0001
     35  N        188.0820  191.1830  284.5240 N.3    46  ARG46      -0.1231
     36  CA       187.0900  191.0850  283.4740 C.3    46  ARG46       0.1694
     37  C        187.6140  190.2050  282.3570 C.2    46  ARG46       0.2592
     38  O        186.8740  189.4230  281.7630 O.2    46  ARG46      -0.2718
     39  CB       186.7350  192.4530  282.9040 C.3    46  ARG46       0.0321
     40  CG       185.5700  192.3170  281.9400 C.3    46  ARG46       0.0489
     41  CD       185.1770  193.6820  281.4220 C.3    46  ARG46       0.2205
     42  NE       186.3410  194.3460  280.8770 N.pl3  46  ARG46      -0.0865
     43  CZ       186.5270  195.6400  281.1260 C.cat  46  ARG46       0.5346
     44  NH1      185.6410  196.3060  281.8650 N.pl3  46  ARG46       0.1354
     45  NH2      187.6110  196.2610  280.6610 N.pl3  46  ARG46       0.1354
     46  N        188.9090  190.3320  282.0930 N.am   47  CYS47      -0.1970
     47  CA       189.5130  189.7710  280.8910 C.3    47  CYS47       0.1712
     48  C        189.6720  188.2660  280.9520 C.2    47  CYS47       0.2296
     49  O        188.7010  187.5150  280.8890 O.2    47  CYS47      -0.2864
     50  CB       190.8830  190.4050  280.6410 C.3    47  CYS47       0.0983
     51  SG       192.0420  190.2230  282.0150 S.3    47  CYS47      -0.0798
     52  N        183.7830  188.9490  287.3570 N.3    69  TRP69      -0.1241
     53  CA       182.7880  190.0050  287.4800 C.3    69  TRP69       0.1605
     54  C        182.4530  190.5890  286.1210 C.2    69  TRP69       0.2264
     55  O        183.0990  190.2830  285.1250 O.2    69  TRP69      -0.2867
     56  CB       183.2880  191.1180  288.4050 C.3    69  TRP69       0.0550
     57  CG       184.4170  191.8840  287.8220 C.ar   69  TRP69       0.0003
     58  CD1      185.7180  191.4970  287.7550 C.ar   69  TRP69       0.0946
     59  CD2      184.3570  193.1930  287.2450 C.ar   69  TRP69       0.0152
     60  NE1      186.4730  192.4730  287.1530 N.ar   69  TRP69      -0.2442
     61  CE2      185.6590  193.5270  286.8330 C.ar   69  TRP69       0.0810
     62  CE3      183.3310  194.1100  287.0330 C.ar   69  TRP69       0.0012
     63  CZ2      185.9590  194.7400  286.2170 C.ar   69  TRP69       0.0191
     64  CZ3      183.6290  195.3090  286.4210 C.ar   69  TRP69       0.0001
     65  CH2      184.9290  195.6130  286.0160 C.ar   69  TRP69       0.0015
     66  N        181.0690  194.6410  284.6610 N.3    71  GLY71      -0.1225
     67  CA       180.7070  195.9870  285.0510 C.3    71  GLY71       0.1811
     68  C        179.2580  196.2870  284.7440 C.2    71  GLY71       0.2280
     69  O        178.6780  197.2290  285.2780 O.2    71  GLY71      -0.2866
     70  N        190.0700  202.4860  289.0770 N.3    90  LEU90      -0.1231
     71  CA       191.1810  202.8460  288.2070 C.3    90  LEU90       0.1693
     72  C        190.8390  202.6340  286.7290 C.2    90  LEU90       0.2592
     73  O        191.6570  202.9100  285.8600 O.2    90  LEU90      -0.2718
     74  CB       192.4250  202.0340  288.5640 C.3    90  LEU90       0.0284
     75  CG       193.4220  202.6690  289.5330 C.3    90  LEU90       0.0019
     76  CD1      192.7050  203.3070  290.7030 C.3    90  LEU90       0.0001
     77  CD2      194.4270  201.6480  290.0280 C.3    90  LEU90       0.0001
     78  N        189.6180  202.1840  286.4480 N.am   91  VAL91      -0.1966
     79  CA       189.2050  201.8760  285.0900 C.3    91  VAL91       0.1727
     80  C        189.2070  203.0710  284.1600 C.2    91  VAL91       0.2617
     81  O        188.6940  204.1310  284.4940 O.2    91  VAL91      -0.2715
     82  CB       187.7850  201.2880  285.0790 C.3    91  VAL91       0.0290
     83  CG1      187.3170  200.9630  283.6650 C.3    91  VAL91       0.0023
     84  CG2      187.7870  199.9920  285.8930 C.3    91  VAL91       0.0023
     85  N        189.7990  202.8780  282.9870 N.am   92  GLY92      -0.1940
     86  CA       189.8500  203.8910  281.9530 C.3    92  GLY92       0.2014
     87  C        190.1310  203.2680  280.6000 C.2    92  GLY92       0.2639
     88  O        190.6390  202.1580  280.5290 O.2    92  GLY92      -0.2714
     89  N        189.7560  203.9410  279.5200 N.am   93  ARG93      -0.1963
     90  CA       190.0780  203.4310  278.1920 C.3    93  ARG93       0.1729
     91  C        190.2300  204.5400  277.1640 C.2    93  ARG93       0.2616
     92  O        189.3660  205.3990  277.0430 O.2    93  ARG93      -0.2715
     93  CB       189.0380  202.4250  277.7170 C.3    93  ARG93       0.0348
     94  CG       189.4410  201.7470  276.4220 C.3    93  ARG93       0.0492
     95  CD       190.8560  201.2080  276.5300 C.3    93  ARG93       0.2205
     96  NE       190.9170  200.0070  277.3580 N.pl3  93  ARG93      -0.0865
     97  CZ       192.0410  199.4760  277.8210 C.cat  93  ARG93       0.5346
     98  NH1      193.2020  200.0450  277.5450 N.pl3  93  ARG93       0.1354
     99  NH2      192.0030  198.3820  278.5650 N.pl3  93  ARG93       0.1354
    100  N        191.3430  204.5380  276.4460 N.am   94  GLU94      -0.1977
    101  CA       191.5920  205.5180  275.3860 C.3    94  GLU94       0.1602
    102  C        190.8010  205.4510  274.0580 C.2    94  GLU94       0.2287
    103  O        190.4520  206.4820  273.5020 O.2    94  GLU94      -0.2864
    104  CB       193.0950  205.6500  275.1100 C.3    94  GLU94       0.0415
    105  CG       193.8450  206.4020  276.1980 C.3    94  GLU94       0.1163
    106  CD       195.3390  206.4870  275.9440 C.2    94  GLU94       0.3649
    107  OE1      195.8140  205.8900  274.9580 O.co2  94  GLU94      -0.2457
    108  OE2      196.0450  207.1500  276.7330 O.co2  94  GLU94      -0.2457
    109  N        181.4270  198.0160  274.7690 N.3   100  PHE100     -0.1241
    110  CA       181.4440  199.0250  275.8060 C.3   100  PHE100      0.1605
    111  C        181.4510  200.3800  275.1350 C.2   100  PHE100      0.2264
    112  O        182.5110  200.8970  274.7850 O.2   100  PHE100     -0.2867
    113  CB       182.6580  198.8880  276.7100 C.3   100  PHE100      0.0534
    114  CG       182.7400  197.5830  277.4240 C.ar  100  PHE100     -0.0203
    115  CD1      182.0230  197.3670  278.5820 C.ar  100  PHE100     -0.0042
    116  CD2      183.5630  196.5780  276.9520 C.ar  100  PHE100     -0.0042
    117  CE1      182.1150  196.1620  279.2510 C.ar  100  PHE100     -0.0003
    118  CE2      183.6610  195.3730  277.6160 C.ar  100  PHE100     -0.0003
    119  CZ       182.9370  195.1640  278.7670 C.ar  100  PHE100     -0.0000
    120  N        181.4010  203.5490  280.0790 N.3   105  VAL105     -0.1231
    121  CA       182.6610  203.2210  280.7080 C.3   105  VAL105      0.1692
    122  C        183.0140  204.3020  281.7160 C.2   105  VAL105      0.2592
    123  O        183.6120  204.0410  282.7580 O.2   105  VAL105     -0.2718
    124  CB       183.7650  203.0880  279.6490 C.3   105  VAL105      0.0266
    125  CG1      185.1120  202.8460  280.2930 C.3   105  VAL105      0.0020
    126  CG2      183.4200  201.9760  278.6730 C.3   105  VAL105      0.0020
    127  N        182.5980  205.5210  281.4090 N.am  106  PHE106     -0.1976
    128  CA       182.8780  206.6560  282.2650 C.3   106  PHE106      0.1639
    129  C        181.6390  207.1190  283.0050 C.2   106  PHE106      0.2290
    130  O        181.6810  208.1030  283.7330 O.2   106  PHE106     -0.2864
    131  CB       183.4460  207.7910  281.4320 C.3   106  PHE106      0.0560
    132  CG       184.7390  207.4560  280.7720 C.ar  106  PHE106     -0.0200
    133  CD1      185.5650  206.4830  281.3000 C.ar  106  PHE106     -0.0042
    134  CD2      185.1190  208.0890  279.6070 C.ar  106  PHE106     -0.0042
    135  CE1      186.7540  206.1710  280.6960 C.ar  106  PHE106     -0.0003
    136  CE2      186.3110  207.7780  278.9980 C.ar  106  PHE106     -0.0003
    137  CZ       187.1270  206.8170  279.5420 C.ar  106  PHE106     -0.0000
    138  N        179.3210  202.4980  284.9110 N.3   109  ILE109     -0.1245
    139  CA       180.1130  201.6620  285.7890 C.3   109  ILE109      0.1561
    140  C        180.4830  202.4120  287.0790 C.2   109  ILE109      0.2260
    141  O        180.2260  201.8990  288.1670 O.2   109  ILE109     -0.2867
    142  CB       181.3840  201.1520  285.0800 C.3   109  ILE109      0.0252
    143  CG1      181.0490  200.6540  283.6690 C.3   109  ILE109      0.0019
    144  CG2      182.0350  200.0560  285.9000 C.3   109  ILE109      0.0019
    145  CD1      180.0030  199.5750  283.6110 C.3   109  ILE109      0.0001
    146  N        189.1420  207.9140  289.5420 N.3   128  ILE128     -0.1245
    147  CA       190.1210  208.6740  288.7650 C.3   128  ILE128      0.1561
    148  C        189.4840  209.4350  287.6020 C.2   128  ILE128      0.2260
    149  O        188.5790  208.9240  286.9450 O.2   128  ILE128     -0.2867
    150  CB       191.2280  207.7500  288.1970 C.3   128  ILE128      0.0252
    151  CG1      192.0250  207.0910  289.3170 C.3   128  ILE128      0.0019
    152  CG2      192.1930  208.5160  287.3190 C.3   128  ILE128      0.0019
    153  CD1      191.6670  205.6560  289.5500 C.3   128  ILE128      0.0001
    154  N        190.9470  212.4900  284.4370 N.3   130  HIS130     -0.1241
    155  CA       192.0460  213.2810  283.8970 C.3   130  HIS130      0.1621
    156  C        191.8670  214.7510  284.2830 C.2   130  HIS130      0.2264
    157  O        190.7400  215.2010  284.4290 O.2   130  HIS130     -0.2867
    158  CB       192.0880  213.1060  282.3750 C.3   130  HIS130      0.0745
    159  CG       193.3680  213.5460  281.7390 C.ar  130  HIS130      0.0817
    160  ND1      193.6460  214.8640  281.4480 N.ar  130  HIS130     -0.2268
    161  CD2      194.4380  212.8340  281.3140 C.ar  130  HIS130      0.1154
    162  CE1      194.8380  214.9450  280.8830 C.ar  130  HIS130      0.1986
    163  NE2      195.3400  213.7270  280.7910 N.ar  130  HIS130     -0.2212
    164  N        184.0650  211.2920  281.4510 N.3   145  LYS145     -0.1245
    165  CA       184.6810  211.1450  282.7590 C.3   145  LYS145      0.1561
    166  C        184.2600  212.2690  283.6880 C.2   145  LYS145      0.2260
    167  O        184.1900  212.0720  284.8940 O.2   145  LYS145     -0.2867
    168  CB       186.2070  211.0880  282.6510 C.3   145  LYS145      0.0271
    169  CG       186.7280  209.7740  282.0830 C.3   145  LYS145      0.0035
    170  CD       188.1820  209.8560  281.6710 C.3   145  LYS145      0.0206
    171  CE       189.0710  210.1530  282.8560 C.3   145  LYS145      0.1093
    172  NZ       190.4910  210.2890  282.4480 N.3   145  LYS145     -0.1314
    173  N        194.9400  212.8470  288.0150 N.3   164  PRO164     -0.2116
    174  CA       196.3850  212.8270  287.7320 C.3   164  PRO164      0.1372
    175  C        196.9400  213.6340  286.5700 C.2   164  PRO164      0.2244
    176  O        196.3940  213.6390  285.4750 O.2   164  PRO164     -0.2868
    177  CB       196.6600  211.3440  287.5360 C.3   164  PRO164      0.0268
    178  CG       195.7070  210.6900  288.4820 C.3   164  PRO164      0.0207
    179  CD       194.5310  211.6150  288.7040 C.3   164  PRO164      0.0892
    180  N        199.2530  213.3900  284.2140 N.3   166  ASP166     -0.1225
    181  CA       200.0510  212.5380  283.3070 C.3   166  ASP166      0.1805
    182  C        201.2280  211.7650  283.9300 C.2   166  ASP166      0.2597
    183  O        202.3320  212.2840  284.0660 O.2   166  ASP166     -0.2718
    184  CB       200.5360  213.3400  282.0980 C.3   166  ASP166      0.1424
    185  CG       201.0730  212.4650  281.0050 C.2   166  ASP166      0.3668
    186  OD1      200.3630  211.5190  280.6120 O.co2 166  ASP166     -0.2456
    187  OD2      202.1980  212.7220  280.5320 O.co2 166  ASP166     -0.2456
    188  N        201.0220  210.4820  284.1970 N.am  167  ILE167     -0.1980
    189  CA       202.0600  209.6660  284.8210 C.3   167  ILE167      0.1595
    190  C        202.9730  208.9770  283.8180 C.2   167  ILE167      0.2287
    191  O        202.5070  208.3980  282.8470 O.2   167  ILE167     -0.2864
    192  CB       201.4480  208.6220  285.7620 C.3   167  ILE167      0.0276
    193  CG1      200.3330  207.8660  285.0580 C.3   167  ILE167      0.0022
    194  CG2      200.8720  209.2910  286.9920 C.3   167  ILE167      0.0022
    195  CD1      199.4820  207.0550  286.0080 C.3   167  ILE167      0.0001
    196  N        204.0570  202.6810  280.4350 N.3   172  ASP172     -0.1225
    197  CA       203.1920  203.7520  279.9210 C.3   172  ASP172      0.1805
    198  C        202.7110  203.6050  278.4870 C.2   172  ASP172      0.2598
    199  O        203.4380  203.1450  277.6120 O.2   172  ASP172     -0.2718
    200  CB       203.8890  205.1160  280.0400 C.3   172  ASP172      0.1424
    201  CG       203.3250  206.1600  279.0710 C.2   172  ASP172      0.3668
    202  OD1      202.0880  206.2000  278.8720 O.co2 172  ASP172     -0.2456
    203  OD2      204.1220  206.9430  278.5030 O.co2 172  ASP172     -0.2456
    204  N        201.4660  204.0280  278.2750 N.am  173  ARG173     -0.1966
    205  CA       200.8440  204.0420  276.9620 C.3   173  ARG173      0.1729
    206  C        201.0630  205.3960  276.3040 C.2   173  ARG173      0.2616
    207  O        200.6950  205.6040  275.1510 O.2   173  ARG173     -0.2715
    208  CB       199.3640  203.7290  277.0650 C.3   173  ARG173      0.0348
    209  CG       199.2610  202.2550  277.4020 C.3   173  ARG173      0.0492
    210  CD       197.9160  201.6630  276.9480 C.3   173  ARG173      0.2205
    211  NE       196.7760  202.1550  277.7250 N.pl3 173  ARG173     -0.0865
    212  CZ       195.7080  202.7160  277.1400 C.cat 173  ARG173      0.5346
    213  NH1      195.6950  203.0320  275.8410 N.pl3 173  ARG173      0.1354
    214  NH2      194.6280  202.9730  277.8830 N.pl3 173  ARG173      0.1354
    215  N        201.6590  206.3180  277.0510 N.am  174  PHE174     -0.1974
    216  CA       201.9200  207.6590  276.5470 C.3   174  PHE174      0.1639
    217  C        203.3240  207.8620  276.0090 C.2   174  PHE174      0.2290
    218  O        203.5020  208.0510  274.8130 O.2   174  PHE174     -0.2864
    219  CB       201.6550  208.6920  277.6360 C.3   174  PHE174      0.0560
    220  CG       202.1610  210.0620  277.3030 C.ar  174  PHE174     -0.0200
    221  CD1      201.4700  210.8710  276.4260 C.ar  174  PHE174     -0.0042
    222  CD2      203.3230  210.5470  277.8850 C.ar  174  PHE174     -0.0042
    223  CE1      201.9330  212.1280  276.1240 C.ar  174  PHE174     -0.0003
    224  CE2      203.7910  211.8020  277.5860 C.ar  174  PHE174     -0.0003
    225  CZ       203.0950  212.5960  276.7060 C.ar  174  PHE174     -0.0000
    226  N        193.4640  213.9880  272.6080 N.3   282  ARG282     -0.1245
    227  CA       194.3370  213.8720  273.7700 C.3   282  ARG282      0.1563
    228  C        195.6520  214.5800  273.5030 C.2   282  ARG282      0.2260
    229  O        196.3490  215.0010  274.4250 O.2   282  ARG282     -0.2867
    230  CB       194.5880  212.4080  274.1140 C.3   282  ARG282      0.0307
    231  CG       193.3630  211.6940  274.6040 C.3   282  ARG282      0.0489
    232  CD       193.6360  210.2470  274.9110 C.3   282  ARG282      0.2205
    233  NE       192.4460  209.5930  275.4320 N.pl3 282  ARG282     -0.0865
    234  CZ       192.1280  209.5720  276.7180 C.cat 282  ARG282      0.5346
    235  NH1      191.0240  208.9580  277.1250 N.pl3 282  ARG282      0.1354
    236  NH2      192.9320  210.1490  277.6000 N.pl3 282  ARG282      0.1354
@<TRIPOS>BOND
     1   226   227    1
     2   103   102    2
     3   228   227    1
     4   228   229    2
     5   227   230    1
     6   102   101    1
     7   230   231    1
     8   231   232    1
     9   109   110    1
    10   112   111    2
    11   218   217    2
    12   232   233    1
    13   107   106   ar
    14   104   101    1
    15   104   105    1
    16   111   110    1
    17   207   206    2
    18   101   100    1
    19   233   234    2
    20   110   113    1
    21   213   212    1
    22   106   105    1
    23   106   108   ar
    24   217   216    1
    25   223   221   ar
    26   223   225   ar
    27   206   205    1
    28   206   215   am
    29    94    95    1
    30    94    93    1
    31   221   220   ar
    32   100    91   am
    33    95    96    1
    34   216   215    1
    35   216   219    1
    36   225   224   ar
    37   113   114    1
    38   234   235    1
    39   234   236    1
    40   210   209    1
    41   210   211    1
    42   116   114   ar
    43   116   118   ar
    44   205   208    1
    45   205   204    1
    46    92    91    2
    47   208   209    1
    48   212   211    2
    49   212   214    1
    50    91    90    1
    51   220   219    1
    52   220   222   ar
    53    96    97    2
    54   114   115   ar
    55    98    97    1
    56   224   222   ar
    57   199   198    2
    58   118   119   ar
    59    93    90    1
    60    97    99    1
    61    90    89    1
    62   204   198   am
    63   198   197    1
    64   203   201   ar
    65   115   117   ar
    66   126   124    1
    67   119   117   ar
    68   202   201   ar
    69   136   137   ar
    70   136   134   ar
    71   201   200    1
    72    89    87   am
    73   137   135   ar
    74   134   132   ar
    75   124   125    1
    76   124   121    1
    77   197   200    1
    78   197   196    1
    79   120   121    1
    80    88    87    2
    81   187   185   ar
    82    87    86    1
    83   186   185   ar
    84    50    47    1
    85    50    51    1
    86    45    43    1
    87   135   133   ar
    88   121   122    1
    89   132   133   ar
    90   132   131    1
    91   163   162   ar
    92   163   161   ar
    93    42    43    2
    94    42    41    1
    95   162   160   ar
    96    49    48    2
    97    47    48    1
    98    47    46    1
    99   185   184    1
   100    43    44    1
   101   161   159   ar
   102   127   122   am
   103   127   128    1
   104    41    40    1
   105   131   128    1
   106   160   159   ar
   107   164   165    1
   108   170   169    1
   109   170   171    1
   110   122   123    2
   111   159   158    1
   112    38    37    2
   113    40    39    1
   114    86    85    1
   115   169   168    1
   116    46    37   am
   117   184   181    1
   118   128   129    1
   119    37    36    1
   120   158   155    1
   121   172   171    1
   122    11     9    1
   123   168   165    1
   124   165   166    1
   125   191   190    2
   126    39    36    1
   127    85    80   am
   128   129   130    2
   129    20    21    1
   130    20    17    1
   131    13    12    1
   132    13    14    1
   133    23    21   ar
   134    23    25   ar
   135   181   182    1
   136   181   180    1
   137     8     7    2
   138    16    14   am
   139    16    17    1
   140    36    35    1
   141     9    10    1
   142     9     6    1
   143    21    22   ar
   144   145   143    1
   145    83    82    1
   146   143   142    1
   147    25    26   ar
   148   166   167    2
   149    12     7   am
   150     7     6    1
   151   190   189    1
   152   155   156    1
   153   155   154    1
   154   182   183    2
   155   182   188   am
   156    14    15    2
   157    17    18    1
   158    80    81    2
   159    80    79    1
   160   188   189    1
   161    22    24   ar
   162   156   157    2
   163    26    24   ar
   164     6     5    1
   165    66    67    1
   166    68    67    1
   167    68    69    2
   168   189   192    1
   169   138   139    1
   170   193   192    1
   171   193   195    1
   172    82    79    1
   173    82    84    1
   174   142   139    1
   175   142   144    1
   176    79    78    1
   177    55    54    2
   178    18    27   am
   179    18    19    2
   180   176   175    2
   181     4     3    2
   182    27    28    1
   183   192   194    1
   184   139   140    1
   185    73    72    2
   186     2     3    1
   187     2     1    1
   188    65    63   ar
   189    65    64   ar
   190    54    53    1
   191    63    61   ar
   192    30    29    2
   193    64    62   ar
   194    78    72   am
   195   175   174    1
   196    72    71    1
   197    61    60   ar
   198    61    59   ar
   199   149   148    2
   200    28    29    1
   201    28    31    1
   202    62    59   ar
   203   140   141    2
   204    31    32    1
   205    60    58   ar
   206    59    57   ar
   207   152   150    1
   208    52    53    1
   209    53    56    1
   210   177   174    1
   211   177   178    1
   212   148   147    1
   213   174   173    1
   214    58    57   ar
   215    57    56    1
   216   173   179    1
   217   150   147    1
   218   150   151    1
   219    71    74    1
   220    71    70    1
   221   178   179    1
   222    32    34    1
   223    32    33    1
   224    74    75    1
   225   147   146    1
   226   151   153    1
   227    75    77    1
   228    75    76    1
