@<TRIPOS>MOLECULE
tmp/5gusB00.pdb
 170 170 0 0 0
SMALL
GASTEIGER

@<TRIPOS>ATOM
      1  N        -44.7910   21.5740   16.7220 N.3    10  SER10      -0.1202
      2  CA       -44.9650   20.4220   15.7820 C.3    10  SER10       0.2020
      3  C        -45.6750   19.2640   16.4550 C.2    10  SER10       0.2619
      4  O        -45.2930   18.8700   17.5920 O.2    10  SER10      -0.2717
      5  CB       -43.6020   19.8520   15.3320 C.3    10  SER10       0.2103
      6  OG       -42.8440   20.8540   14.6860 O.3    10  SER10      -0.2182
      7  N        -46.6370   18.6640   15.7760 N.am   11  LEU11      -0.1965
      8  CA       -47.3050   17.4540   16.3210 C.3    11  LEU11       0.1728
      9  C        -47.4770   16.4510   15.1860 C.2    11  LEU11       0.2616
     10  O        -47.6210   16.8630   14.0310 O.2    11  LEU11      -0.2715
     11  CB       -48.7120   17.7770   16.8770 C.3    11  LEU11       0.0311
     12  CG       -48.6870   18.3820   18.2960 C.3    11  LEU11       0.0022
     13  CD1      -48.6960   19.8970   18.2400 C.3    11  LEU11       0.0001
     14  CD2      -49.8880   17.9300   19.0550 C.3    11  LEU11       0.0001
     15  N        -47.5670   15.1630   15.5130 N.am   12  TRP12      -0.1974
     16  CA       -47.9310   14.1880   14.4680 C.3    12  TRP12       0.1640
     17  C        -49.3480   14.5380   13.9780 C.2    12  TRP12       0.2290
     18  O        -50.1430   15.1090   14.7110 O.2    12  TRP12      -0.2864
     19  CB       -47.9640   12.7760   15.0850 C.3    12  TRP12       0.0576
     20  CG       -46.6090   12.2530   15.4870 C.ar   12  TRP12       0.0006
     21  CD1      -45.3730   12.6830   15.0320 C.ar   12  TRP12       0.0946
     22  CD2      -46.3420   11.2020   16.4350 C.ar   12  TRP12       0.0152
     23  NE1      -44.3690   11.9470   15.6340 N.ar   12  TRP12      -0.2442
     24  CE2      -44.9380   11.0390   16.4970 C.ar   12  TRP12       0.0810
     25  CE3      -47.1610   10.3900   17.2420 C.ar   12  TRP12       0.0012
     26  CZ2      -44.3330   10.0900   17.3310 C.ar   12  TRP12       0.0191
     27  CZ3      -46.5610    9.4610   18.0770 C.ar   12  TRP12       0.0001
     28  CH2      -45.1520    9.3150   18.1080 C.ar   12  TRP12       0.0015
     29  N        -52.7090   14.0420   16.1100 N.3    15  PHE15      -0.1241
     30  CA       -52.8020   14.9470   17.2640 C.3    15  PHE15       0.1605
     31  C        -52.9540   16.4060   16.8470 C.2    15  PHE15       0.2264
     32  O        -53.7010   17.1550   17.4850 O.2    15  PHE15      -0.2867
     33  CB       -51.5930   14.7460   18.1760 C.3    15  PHE15       0.0534
     34  CG       -51.5530   13.3580   18.8140 C.ar   15  PHE15      -0.0203
     35  CD1      -52.7310   12.7430   19.2590 C.ar   15  PHE15      -0.0042
     36  CD2      -50.3820   12.6810   18.9600 C.ar   15  PHE15      -0.0042
     37  CE1      -52.7160   11.4810   19.8320 C.ar   15  PHE15      -0.0003
     38  CE2      -50.3600   11.4070   19.5250 C.ar   15  PHE15      -0.0003
     39  CZ       -51.5260   10.8170   19.9580 C.ar   15  PHE15      -0.0000
     40  N        -58.7910   17.9390   21.2080 N.3    24  LYS24      -0.1245
     41  CA       -57.6380   17.8470   22.1060 C.3    24  LYS24       0.1561
     42  C        -57.3450   19.2570   22.5830 C.2    24  LYS24       0.2260
     43  O        -57.0310   20.1470   21.7510 O.2    24  LYS24      -0.2867
     44  CB       -56.4260   17.2830   21.3510 C.3    24  LYS24       0.0271
     45  CG       -55.0570   17.3640   22.0930 C.3    24  LYS24       0.0035
     46  CD       -53.9990   16.6140   21.1960 C.3    24  LYS24       0.0206
     47  CE       -52.5010   16.9300   21.5820 C.3    24  LYS24       0.1093
     48  NZ       -52.2980   16.5100   23.0010 N.3    24  LYS24      -0.1314
     49  N        -51.9250   20.0270   25.5260 N.3    27  GLU27      -0.1231
     50  CA       -50.7290   19.4110   24.9350 C.3    27  GLU27       0.1699
     51  C        -49.6460   19.3200   26.0320 C.2    27  GLU27       0.2592
     52  O        -49.2900   20.3290   26.6820 O.2    27  GLU27      -0.2718
     53  CB       -50.1930   20.3080   23.8160 C.3    27  GLU27       0.0402
     54  CG       -48.7850   19.8980   23.2520 C.3    27  GLU27       0.1161
     55  CD       -48.7040   18.4660   22.6170 C.2    27  GLU27       0.3649
     56  OE1      -49.6800   17.6850   22.6700 O.co2  27  GLU27      -0.2457
     57  OE2      -47.6320   18.0990   22.0940 O.co2  27  GLU27      -0.2457
     58  N        -49.1260   18.1410   26.2730 N.am   28  PHE28      -0.1962
     59  CA       -48.0440   18.0180   27.2650 C.3    28  PHE28       0.1771
     60  C        -46.6570   18.1060   26.6240 C.2    28  PHE28       0.2619
     61  O        -46.4880   17.6600   25.4690 O.2    28  PHE28      -0.2715
     62  CB       -48.1140   16.6520   27.8890 C.3    28  PHE28       0.0574
     63  CG       -49.3320   16.4040   28.7320 C.ar   28  PHE28      -0.0200
     64  CD1      -49.5190   17.0860   29.9290 C.ar   28  PHE28      -0.0042
     65  CD2      -50.2270   15.4140   28.3880 C.ar   28  PHE28      -0.0042
     66  CE1      -50.6640   16.7940   30.7790 C.ar   28  PHE28      -0.0003
     67  CE2      -51.3410   15.1210   29.2090 C.ar   28  PHE28      -0.0003
     68  CZ       -51.5500   15.8390   30.3950 C.ar   28  PHE28      -0.0000
     69  N        -45.6750   18.6320   27.3570 N.am   29  ARG29      -0.1977
     70  CA       -44.2880   18.6490   26.8860 C.3    29  ARG29       0.1597
     71  C        -43.4380   18.5300   28.1390 C.2    29  ARG29       0.2287
     72  O        -43.9650   18.6130   29.2480 O.2    29  ARG29      -0.2864
     73  CB       -43.9400   19.9820   26.1850 C.3    29  ARG29       0.0334
     74  CG       -44.5730   20.2450   24.7460 C.3    29  ARG29       0.0492
     75  CD       -44.1390   19.1460   23.7830 C.3    29  ARG29       0.2205
     76  NE       -45.0250   19.0780   22.5990 N.pl3  29  ARG29      -0.0865
     77  CZ       -44.5960   19.3110   21.3570 C.cat  29  ARG29       0.5346
     78  NH1      -43.3370   19.6340   21.1670 N.pl3  29  ARG29       0.1354
     79  NH2      -45.4320   19.2330   20.3190 N.pl3  29  ARG29       0.1354
     80  N        -46.7470   17.2340   11.1520 N.3    46  THR46      -0.1218
     81  CA       -45.5730   16.6780   10.5150 C.3    46  THR46       0.1862
     82  C        -45.9710   15.7200    9.3730 C.2    46  THR46       0.2287
     83  O        -47.1290   15.7370    8.9220 O.2    46  THR46      -0.2866
     84  CB       -44.6600   15.9820   11.5360 C.3    46  THR46       0.1770
     85  OG1      -45.3590   14.8850   12.1520 O.3    46  THR46      -0.2211
     86  CG2      -44.1960   16.9800   12.6000 C.3    46  THR46       0.0375
     87  N        -54.1430   11.7610   23.9410 N.3    79  LEU79      -0.1245
     88  CA       -53.2350   10.6060   23.8890 C.3    79  LEU79       0.1561
     89  C        -53.4990    9.5140   24.9610 C.2    79  LEU79       0.2260
     90  O        -54.1490    9.7530   25.9810 O.2    79  LEU79      -0.2867
     91  CB       -51.7710   11.0530   23.9000 C.3    79  LEU79       0.0270
     92  CG       -51.1380   11.1470   25.2910 C.3    79  LEU79       0.0019
     93  CD1      -49.6740   11.3360   25.0510 C.3    79  LEU79       0.0001
     94  CD2      -51.6910   12.3610   25.9780 C.3    79  LEU79       0.0001
     95  N        -48.8220    6.1950   25.9660 N.3    83  GLN83      -0.1231
     96  CA       -48.0120    7.1470   25.2430 C.3    83  GLN83       0.1698
     97  C        -47.4830    8.2360   26.2150 C.2    83  GLN83       0.2592
     98  O        -46.3440    8.6510   26.1290 O.2    83  GLN83      -0.2718
     99  CB       -48.8330    7.8070   24.1290 C.3    83  GLN83       0.0381
    100  CG       -49.1590    6.8430   22.9340 C.3    83  GLN83       0.0905
    101  CD       -50.1960    7.3970   21.9510 C.2    83  GLN83       0.2608
    102  OE1      -51.2670    7.9040   22.3380 O.2    83  GLN83      -0.2717
    103  NE2      -49.8830    7.3030   20.6700 N.am   83  GLN83      -0.0878
    104  N        -48.2970    8.6510   27.1640 N.am   84  TYR84      -0.1976
    105  CA       -47.8740    9.6800   28.1190 C.3    84  TYR84       0.1639
    106  C        -46.7380    9.1570   29.0320 C.2    84  TYR84       0.2290
    107  O        -45.6870    9.7830   29.2020 O.2    84  TYR84      -0.2864
    108  CB       -49.1090   10.0820   28.9590 C.3    84  TYR84       0.0560
    109  CG       -48.8160   11.1070   30.0510 C.ar   84  TYR84      -0.0198
    110  CD1      -48.9060   12.4510   29.7800 C.ar   84  TYR84      -0.0009
    111  CD2      -48.4830   10.7020   31.3620 C.ar   84  TYR84      -0.0009
    112  CE1      -48.6510   13.4080   30.7710 C.ar   84  TYR84       0.0417
    113  CE2      -48.2080   11.6150   32.3320 C.ar   84  TYR84       0.0417
    114  CZ       -48.3080   12.9730   32.0400 C.ar   84  TYR84       0.1957
    115  OH       -48.0330   13.8960   33.0240 O.3    84  TYR84      -0.2866
    116  N        -43.5220    8.8630   27.0180 N.3    87  TYR87      -0.1227
    117  CA       -42.8900   10.1440   26.7060 C.3    87  TYR87       0.1736
    118  C        -42.1870   10.7330   27.9490 C.2    87  TYR87       0.2595
    119  O        -41.0720   11.3090   27.8300 O.2    87  TYR87      -0.2718
    120  CB       -43.9790   11.1220   26.2340 C.3    87  TYR87       0.0548
    121  CG       -43.4660   12.4550   25.6720 C.ar   87  TYR87      -0.0200
    122  CD1      -43.1680   12.5990   24.3250 C.ar   87  TYR87      -0.0009
    123  CD2      -43.3230   13.5700   26.4920 C.ar   87  TYR87      -0.0009
    124  CE1      -42.7060   13.8290   23.7920 C.ar   87  TYR87       0.0417
    125  CE2      -42.8940   14.8120   25.9770 C.ar   87  TYR87       0.0417
    126  CZ       -42.6020   14.9350   24.6400 C.ar   87  TYR87       0.1957
    127  OH       -42.1820   16.1150   24.1320 O.3    87  TYR87      -0.2866
    128  N        -42.8080   10.5970   29.1270 N.am   88  PHE88      -0.1976
    129  CA       -42.2420   11.2190   30.3420 C.3    88  PHE88       0.1639
    130  C        -41.2980   10.3410   31.1510 C.2    88  PHE88       0.2290
    131  O        -40.8210   10.7420   32.2030 O.2    88  PHE88      -0.2864
    132  CB       -43.3240   11.8520   31.2420 C.3    88  PHE88       0.0560
    133  CG       -43.9080   13.0550   30.6180 C.ar   88  PHE88      -0.0200
    134  CD1      -43.1570   14.2160   30.5570 C.ar   88  PHE88      -0.0042
    135  CD2      -45.1280   13.0020   29.9840 C.ar   88  PHE88      -0.0042
    136  CE1      -43.6110   15.3670   29.9120 C.ar   88  PHE88      -0.0003
    137  CE2      -45.6190   14.1890   29.3500 C.ar   88  PHE88      -0.0003
    138  CZ       -44.8170   15.3640   29.3180 C.ar   88  PHE88      -0.0000
    139  N        -37.3660   25.0730   10.0570 N.3   121  GLN121     -0.1231
    140  CA       -37.3430   23.6620   10.4240 C.3   121  GLN121      0.1683
    141  C        -38.5450   23.4570   11.3450 C.2   121  GLN121      0.2434
    142  O        -38.7350   24.2430   12.2590 O.2   121  GLN121     -0.2733
    143  CB       -36.0680   23.3490   11.2260 C.3   121  GLN121      0.0380
    144  CG       -34.7670   23.3860   10.4140 C.3   121  GLN121      0.0905
    145  CD       -34.3350   21.9820    9.9420 C.2   121  GLN121      0.2608
    146  OE1      -34.8810   20.9530   10.3770 O.2   121  GLN121     -0.2717
    147  NE2      -33.3430   21.9410    9.0750 N.am  121  GLN121     -0.0878
    148  N        -39.3320   22.3920   11.1320 N.am  122  PRO122     -0.2718
    149  CA       -40.4080   22.0780   12.0910 C.3   122  PRO122      0.1520
    150  C        -39.7710   22.0050   13.4680 C.2   122  PRO122      0.2440
    151  O        -38.7570   21.3400   13.6320 O.2   122  PRO122     -0.2731
    152  CB       -40.8150   20.6570   11.6910 C.3   122  PRO122      0.0310
    153  CG       -40.5680   20.6600   10.1440 C.3   122  PRO122      0.0237
    154  CD       -39.2660   21.4300   10.0100 C.3   122  PRO122      0.0939
    155  N        -40.3090   22.7810   14.4160 N.am  123  PRO123     -0.2716
    156  CA       -39.6290   22.8800   15.7310 C.3   123  PRO123      0.1536
    157  C        -39.5780   21.6320   16.5270 C.2   123  PRO123      0.2598
    158  O        -40.6080   20.8970   16.5910 O.2   123  PRO123     -0.2715
    159  CB       -40.4210   23.9870   16.4760 C.3   123  PRO123      0.0310
    160  CG       -41.7960   24.0180   15.7820 C.3   123  PRO123      0.0237
    161  CD       -41.4750   23.6780   14.3000 C.3   123  PRO123      0.0939
    162  N        -38.4630   21.4160   17.2280 N.am  124  GLN124     -0.1978
    163  CA       -38.4160   20.3170   18.2030 C.3   124  GLN124      0.1601
    164  C        -39.3180   20.5970   19.4690 C.2   124  GLN124      0.2287
    165  O        -39.8890   19.6610   20.0670 O.2   124  GLN124     -0.2864
    166  CB       -36.9600   20.0910   18.6320 C.3   124  GLN124      0.0394
    167  CG       -36.7320   18.9130   19.5920 C.3   124  GLN124      0.0908
    168  CD       -36.1530   19.4200   20.9110 C.2   124  GLN124      0.2608
    169  OE1      -36.6940   20.3630   21.5700 O.2   124  GLN124     -0.2717
    170  NE2      -35.0120   18.8550   21.2760 N.am  124  GLN124     -0.0878
@<TRIPOS>BOND
     1    83    82    2
     2   147   145   am
     3    82    81    1
     4   145   146    2
     5   145   144    1
     6   154   153    1
     7   154   148    1
     8   139   140    1
     9   153   152    1
    10   144   143    1
    11   140   143    1
    12   140   141    1
    13    81    80    1
    14    81    84    1
    15   148   141   am
    16   148   149    1
    17   141   142    2
    18    84    85    1
    19    84    86    1
    20   152   149    1
    21   149   150    1
    22   150   151    2
    23   150   155   am
    24    17    16    1
    25    17    18    2
    26    10     9    2
    27   161   155    1
    28   161   160    1
    29   155   156    1
    30    16    19    1
    31    16    15    1
    32     6     5    1
    33    21    20   ar
    34    21    23   ar
    35    19    20    1
    36     9    15   am
    37     9     8    1
    38     5     2    1
    39    20    22   ar
    40    23    24   ar
    41   156   159    1
    42   156   157    1
    43     7     8    1
    44     7     3   am
    45     2     3    1
    46     2     1    1
    47   160   159    1
    48    29    30    1
    49     8    11    1
    50    22    24   ar
    51    22    25   ar
    52     3     4    2
    53    24    26   ar
    54   157   158    2
    55   157   162   am
    56    31    30    1
    57    31    32    2
    58    11    12    1
    59   162   163    1
    60    25    27   ar
    61    30    33    1
    62    26    28   ar
    63    27    28   ar
    64    33    34    1
    65   163   166    1
    66   163   164    1
    67    13    12    1
    68    12    14    1
    69   166   167    1
    70    34    36   ar
    71    34    35   ar
    72    36    38   ar
    73    35    37   ar
    74   164   165    2
    75    38    39   ar
    76   167   168    1
    77    37    39   ar
    78    79    77    1
    79   103   101   am
    80   168   170   am
    81   168   169    2
    82    78    77    1
    83    46    47    1
    84    46    45    1
    85    40    41    1
    86    44    45    1
    87    44    41    1
    88    77    76    2
    89    47    48    1
    90    43    42    2
    91   101   102    2
    92   101   100    1
    93    57    55   ar
    94    41    42    1
    95    76    75    1
    96    55    56   ar
    97    55    54    1
    98   100    99    1
    99    54    53    1
   100    75    74    1
   101   124   122   ar
   102   124   126   ar
   103    53    50    1
   104    88    91    1
   105    88    87    1
   106    88    89    1
   107    91    92    1
   108    99    96    1
   109   127   126    1
   110   122   121   ar
   111   126   125   ar
   112    74    73    1
   113    50    49    1
   114    50    51    1
   115    89    90    2
   116    93    92    1
   117    96    95    1
   118    96    97    1
   119    92    94    1
   120    61    60    2
   121   121   120    1
   122   121   123   ar
   123   125   123   ar
   124    51    58   am
   125    51    52    2
   126    98    97    2
   127    73    70    1
   128    97   104   am
   129   120   117    1
   130    58    59    1
   131    60    59    1
   132    60    69   am
   133   117   116    1
   134   117   118    1
   135    70    69    1
   136    70    71    1
   137   104   105    1
   138    59    62    1
   139   119   118    2
   140    62    63    1
   141   118   128   am
   142   105   108    1
   143   105   106    1
   144    71    72    2
   145    65    63   ar
   146    65    67   ar
   147    63    64   ar
   148   108   109    1
   149   106   107    2
   150   128   129    1
   151    67    68   ar
   152   138   137   ar
   153   138   136   ar
   154   137   135   ar
   155   110   109   ar
   156   110   112   ar
   157   136   134   ar
   158    64    66   ar
   159   135   133   ar
   160   109   111   ar
   161   129   130    1
   162   129   132    1
   163    68    66   ar
   164   134   133   ar
   165   133   132    1
   166   112   114   ar
   167   130   131    2
   168   111   113   ar
   169   114   113   ar
   170   114   115    1
