@<TRIPOS>MOLECULE
tmp/5gv2B00.pdb
 146 144 0 0 0
SMALL
GASTEIGER

@<TRIPOS>ATOM
      1  N         21.3420   -4.7500   62.0690 N.3   114  ALA114     -0.1245
      2  CA        22.3620   -5.8210   62.0940 C.3   114  ALA114      0.1562
      3  C         22.2580   -6.6180   63.3860 C.2   114  ALA114      0.2260
      4  O         22.2940   -7.8170   63.3450 O.2   114  ALA114     -0.2867
      5  CB        23.7580   -5.2670   61.9500 C.3   114  ALA114      0.0290
      6  N         18.9610   -8.4150   60.4980 N.3   118  VAL118     -0.1231
      7  CA        18.2250   -7.9550   59.3490 C.3   118  VAL118      0.1692
      8  C         19.2770   -7.5010   58.3480 C.2   118  VAL118      0.2593
      9  O         19.9220   -6.4840   58.5580 O.2   118  VAL118     -0.2718
     10  CB        17.2420   -6.8220   59.6720 C.3   118  VAL118      0.0266
     11  CG1       16.6470   -6.2920   58.3950 C.3   118  VAL118      0.0020
     12  CG2       16.1220   -7.3010   60.6290 C.3   118  VAL118      0.0020
     13  N         19.4320   -8.2810   57.2750 N.am  119  SER119     -0.1938
     14  CA        20.3130   -7.9250   56.1880 C.3   119  SER119      0.2055
     15  C         19.8130   -6.7160   55.4230 C.2   119  SER119      0.2643
     16  O         18.6780   -6.6620   55.0770 O.2   119  SER119     -0.2714
     17  CB        20.4570   -9.0890   55.1830 C.3   119  SER119      0.2130
     18  OG        21.4950   -8.7920   54.2450 O.3   119  SER119     -0.2179
     19  N         20.6760   -5.7700   55.1440 N.am  120  VAL120     -0.1963
     20  CA        20.3140   -4.5710   54.3690 C.3   120  VAL120      0.1727
     21  C         21.0710   -4.5220   53.0850 C.2   120  VAL120      0.2616
     22  O         22.0730   -5.2460   52.9220 O.2   120  VAL120     -0.2715
     23  CB        20.5650   -3.2630   55.1560 C.3   120  VAL120      0.0290
     24  CG1       19.8670   -3.3260   56.5130 C.3   120  VAL120      0.0023
     25  CG2       22.0420   -3.0450   55.4260 C.3   120  VAL120      0.0023
     26  N         20.6040   -3.6840   52.1690 N.am  121  LEU121     -0.1977
     27  CA        21.4330   -3.2110   51.0400 C.3   121  LEU121      0.1596
     28  C         21.3040   -1.6980   51.0560 C.2   121  LEU121      0.2287
     29  O         20.2010   -1.1840   51.2240 O.2   121  LEU121     -0.2864
     30  CB        20.9120   -3.7640   49.7120 C.3   121  LEU121      0.0297
     31  CG        21.1370   -5.2530   49.3830 C.3   121  LEU121      0.0022
     32  CD1       20.3350   -5.6600   48.1550 C.3   121  LEU121      0.0001
     33  CD2       22.6120   -5.5860   49.2100 C.3   121  LEU121      0.0001
     34  N         29.9550  -10.8700   48.7820 N.3   253  LEU253     -0.1231
     35  CA        29.2470  -10.8560   50.0590 C.3   253  LEU253      0.1693
     36  C         27.8650  -11.4680   49.7610 C.2   253  LEU253      0.2593
     37  O         27.4080  -11.5370   48.6110 O.2   253  LEU253     -0.2718
     38  CB        29.1130   -9.4370   50.5500 C.3   253  LEU253      0.0284
     39  CG        30.3990   -8.6020   50.5600 C.3   253  LEU253      0.0019
     40  CD1       30.0560   -7.1420   50.7910 C.3   253  LEU253      0.0001
     41  CD2       31.3670   -9.1160   51.6240 C.3   253  LEU253      0.0001
     42  N         27.1160  -11.9390   50.7080 N.am  254  GLY254     -0.1942
     43  CA        25.8330  -12.4380   50.1280 C.3   254  GLY254      0.2014
     44  C         24.7440  -11.3820   50.1190 C.2   254  GLY254      0.2638
     45  O         24.9870  -10.1950   49.8650 O.2   254  GLY254     -0.2714
     46  N         23.5410  -11.8700   50.4120 N.am  255  PHE255     -0.1973
     47  CA        22.4040  -11.0860   50.8420 C.3   255  PHE255      0.1639
     48  C         21.9800  -11.5170   52.2520 C.2   255  PHE255      0.2290
     49  O         20.9670  -11.0740   52.7540 O.2   255  PHE255     -0.2864
     50  CB        21.3090  -11.2620   49.7900 C.3   255  PHE255      0.0560
     51  CG        21.7370  -10.7310   48.4160 C.ar  255  PHE255     -0.0200
     52  CD1       21.8270   -9.3510   48.1890 C.ar  255  PHE255     -0.0042
     53  CD2       22.1620  -11.5980   47.4130 C.ar  255  PHE255     -0.0042
     54  CE1       22.2900   -8.8460   46.9930 C.ar  255  PHE255     -0.0003
     55  CE2       22.6120  -11.1040   46.1950 C.ar  255  PHE255     -0.0003
     56  CZ        22.6840   -9.7290   45.9810 C.ar  255  PHE255     -0.0000
     57  N         24.5290  -12.2090   55.0790 N.3   257  GLU257     -0.1231
     58  CA        25.3930  -11.6910   56.1240 C.3   257  GLU257      0.1699
     59  C         25.0160  -10.2610   56.5520 C.2   257  GLU257      0.2592
     60  O         24.9390   -9.3690   55.7240 O.2   257  GLU257     -0.2718
     61  CB        26.8560  -11.7190   55.7220 C.3   257  GLU257      0.0402
     62  CG        27.7340  -11.4540   56.9400 C.3   257  GLU257      0.1161
     63  CD        29.2150  -11.4440   56.6590 C.2   257  GLU257      0.3649
     64  OE1       29.6850  -12.2270   55.8130 O.co2 257  GLU257     -0.2457
     65  OE2       29.9450  -10.6940   57.3490 O.co2 257  GLU257     -0.2457
     66  N         24.7680  -10.0940   57.8450 N.am  258  CYS258     -0.1956
     67  CA        24.6170   -8.7920   58.5220 C.3   258  CYS258      0.1843
     68  C         25.8730   -8.2500   59.1710 C.2   258  CYS258      0.2626
     69  O         26.8470   -8.9650   59.3990 O.2   258  CYS258     -0.2714
     70  CB        23.5720   -8.9370   59.5970 C.3   258  CYS258      0.0997
     71  SG        22.0780   -9.6600   58.9140 S.3   258  CYS258     -0.0797
     72  N         25.8650   -6.9560   59.4420 N.am  259  GLY259     -0.1940
     73  CA        26.9450   -6.3020   60.1420 C.3   259  GLY259      0.2014
     74  C         28.0160   -5.6870   59.3310 C.2   259  GLY259      0.2639
     75  O         28.9010   -5.0220   59.8880 O.2   259  GLY259     -0.2714
     76  N         27.9190   -5.8170   58.0090 N.am  260  ILE260     -0.1963
     77  CA        28.9460   -5.2630   57.1180 C.3   260  ILE260      0.1727
     78  C         28.8720   -3.7380   57.1220 C.2   260  ILE260      0.2616
     79  O         29.8330   -3.0910   57.4630 O.2   260  ILE260     -0.2715
     80  CB        28.8560   -5.8440   55.6870 C.3   260  ILE260      0.0290
     81  CG1       29.0000   -7.3760   55.7480 C.3   260  ILE260      0.0022
     82  CG2       29.9380   -5.2350   54.7920 C.3   260  ILE260      0.0023
     83  CD1       28.7280   -8.1150   54.4570 C.3   260  ILE260      0.0001
     84  N         27.7120   -3.1790   56.7610 N.am  261  VAL261     -0.1963
     85  CA        27.5380   -1.7300   56.7820 C.3   261  VAL261      0.1727
     86  C         27.7960   -1.1620   58.1870 C.2   261  VAL261      0.2616
     87  O         28.3390   -0.0390   58.3280 O.2   261  VAL261     -0.2715
     88  CB        26.1170   -1.2880   56.3690 C.3   261  VAL261      0.0290
     89  CG1       26.0390    0.2390   56.2700 C.3   261  VAL261      0.0023
     90  CG2       25.6710   -1.9500   55.0750 C.3   261  VAL261      0.0023
     91  N         27.3950   -1.9220   59.2110 N.am  262  ALA262     -0.1977
     92  CA        27.5950   -1.5450   60.6180 C.3   262  ALA262      0.1597
     93  C         29.0630   -1.3740   61.0120 C.2   262  ALA262      0.2287
     94  O         29.3970   -0.3680   61.6710 O.2   262  ALA262     -0.2864
     95  CB        26.9540   -2.5580   61.5360 C.3   262  ALA262      0.0319
     96  N         25.6590   -0.3860   47.9260 N.3   279  SER279     -0.1202
     97  CA        25.7770   -1.8480   47.8740 C.3   279  SER279      0.2020
     98  C         25.5430   -2.2830   46.4200 C.2   279  SER279      0.2619
     99  O         24.5880   -1.8250   45.7940 O.2   279  SER279     -0.2717
    100  CB        24.7000   -2.5330   48.7440 C.3   279  SER279      0.2103
    101  OG        24.9320   -2.4040   50.1200 O.3   279  SER279     -0.2182
    102  N         26.4350   -3.1020   45.8670 N.am  280  THR280     -0.1938
    103  CA        26.2090   -3.7640   44.5520 C.3   280  THR280      0.2028
    104  C         25.9820   -5.2290   44.9130 C.2   280  THR280      0.2642
    105  O         25.8620   -5.5980   46.0920 O.2   280  THR280     -0.2714
    106  CB        27.3700   -3.5680   43.5400 C.3   280  THR280      0.1808
    107  OG1       28.5450   -4.2090   44.0350 O.3   280  THR280     -0.2208
    108  CG2       27.6670   -2.0900   43.3940 C.3   280  THR280      0.0379
    109  N         25.8880   -6.0630   43.8780 N.am  281  PHE281     -0.1959
    110  CA        25.4120   -7.4490   43.9730 C.3   281  PHE281      0.1771
    111  C         26.4610   -8.2730   44.7110 C.2   281  PHE281      0.2620
    112  O         26.1320   -9.2160   45.4210 O.2   281  PHE281     -0.2715
    113  CB        25.1900   -8.0030   42.5560 C.3   281  PHE281      0.0574
    114  CG        24.3240   -9.2000   42.5250 C.ar  281  PHE281     -0.0200
    115  CD1       24.8480  -10.4920   42.6310 C.ar  281  PHE281     -0.0042
    116  CD2       22.9790   -9.0450   42.3240 C.ar  281  PHE281     -0.0042
    117  CE1       24.0060  -11.6080   42.5800 C.ar  281  PHE281     -0.0003
    118  CE2       22.1480  -10.1510   42.2550 C.ar  281  PHE281     -0.0003
    119  CZ        22.6560  -11.4230   42.4330 C.ar  281  PHE281     -0.0000
    120  N         27.7300   -7.8960   44.5250 N.am  282  ASN282     -0.1958
    121  CA        28.8460   -8.5850   45.1470 C.3   282  ASN282      0.1819
    122  C         29.5590   -7.8820   46.3100 C.2   282  ASN282      0.2621
    123  O         30.0570   -8.5530   47.2120 O.2   282  ASN282     -0.2715
    124  CB        29.8530   -8.9390   44.0370 C.3   282  ASN282      0.1195
    125  CG        29.2460   -9.9030   43.0430 C.2   282  ASN282      0.2630
    126  OD1       28.7690  -10.9540   43.4190 O.2   282  ASN282     -0.2716
    127  ND2       29.1370   -9.4890   41.8170 N.am  282  ASN282     -0.0877
    128  N         29.6650   -6.5530   46.2340 N.am  283  PHE283     -0.1960
    129  CA        30.4870   -5.7650   47.1490 C.3   283  PHE283      0.1771
    130  C         29.7420   -4.5230   47.7050 C.2   283  PHE283      0.2619
    131  O         28.6910   -4.1420   47.2000 O.2   283  PHE283     -0.2715
    132  CB        31.7670   -5.3740   46.4360 C.3   283  PHE283      0.0574
    133  CG        32.6210   -6.5740   46.0870 C.ar  283  PHE283     -0.0200
    134  CD1       33.3240   -7.2780   47.0900 C.ar  283  PHE283     -0.0042
    135  CD2       32.6700   -7.0530   44.7830 C.ar  283  PHE283     -0.0042
    136  CE1       34.0700   -8.4180   46.7800 C.ar  283  PHE283     -0.0003
    137  CE2       33.4070   -8.2080   44.4590 C.ar  283  PHE283     -0.0003
    138  CZ        34.1160   -8.8750   45.4640 C.ar  283  PHE283     -0.0000
    139  N         30.2970   -3.9480   48.7770 N.am  284  ASP284     -0.1971
    140  CA        29.8730   -2.6650   49.3080 C.3   284  ASP284      0.1709
    141  C         30.8840   -1.5850   49.0380 C.2   284  ASP284      0.2293
    142  O         32.0460   -1.8730   48.8750 O.2   284  ASP284     -0.2864
    143  CB        29.6200   -2.7620   50.8110 C.3   284  ASP284      0.1436
    144  CG        28.2220   -3.3360   51.1560 C.2   284  ASP284      0.3671
    145  OD1       27.3840   -3.6220   50.2340 O.co2 284  ASP284     -0.2456
    146  OD2       27.9840   -3.4360   52.3810 O.co2 284  ASP284     -0.2456
@<TRIPOS>BOND
     1   127   125   am
     2   118   116   ar
     3   118   119   ar
     4   116   114   ar
     5   119   117   ar
     6   114   113    1
     7   114   115   ar
     8   113   110    1
     9   117   115   ar
    10   125   126    2
    11   125   124    1
    12   108   106    1
    13   106   107    1
    14   106   103    1
    15   109   110    1
    16   109   104   am
    17   110   111    1
    18   124   121    1
    19   137   135   ar
    20   137   138   ar
    21   120   111   am
    22   120   121    1
    23   103   104    1
    24   103   102    1
    25   111   112    2
    26   135   133   ar
    27   104   105    2
    28   121   122    1
    29   138   136   ar
    30    99    98    2
    31   102    98   am
    32    56    55   ar
    33    56    54   ar
    34   133   132    1
    35   133   134   ar
    36    55    53   ar
    37   128   122   am
    38   128   129    1
    39   122   123    2
    40    98    97    1
    41   132   129    1
    42   136   134   ar
    43    54    52   ar
    44   129   130    1
    45   131   130    2
    46    53    51   ar
    47   130   139   am
    48    97    96    1
    49    97   100    1
    50    32    31    1
    51    52    51   ar
    52    51    50    1
    53    37    36    2
    54   100   101    1
    55   139   140    1
    56    34    35    1
    57   142   141    2
    58   141   140    1
    59    33    31    1
    60   140   143    1
    61    31    30    1
    62    30    27    1
    63    36    35    1
    64    36    42   am
    65    50    47    1
    66    45    44    2
    67    35    38    1
    68    44    43    1
    69    44    46   am
    70    43    42    1
    71   145   144   ar
    72    46    47    1
    73    38    39    1
    74    39    40    1
    75    39    41    1
    76   143   144    1
    77    47    48    1
    78    27    28    1
    79    27    26    1
    80    28    29    2
    81   144   146   ar
    82    26    21   am
    83    48    49    2
    84    22    21    2
    85    21    20    1
    86    18    17    1
    87    20    19    1
    88    20    23    1
    89    83    81    1
    90    82    80    1
    91    90    88    1
    92    16    15    2
    93    57    58    1
    94    19    15   am
    95    23    25    1
    96    23    24    1
    97    17    14    1
    98    15    14    1
    99    80    81    1
   100    80    77    1
   101    61    58    1
   102    61    62    1
   103    60    59    2
   104    64    63   ar
   105    58    59    1
   106    14    13    1
   107    89    88    1
   108    88    85    1
   109    59    66   am
   110    63    62    1
   111    63    65   ar
   112    84    85    1
   113    84    78   am
   114    85    86    1
   115    77    78    1
   116    77    76    1
   117    78    79    2
   118    13     8   am
   119    66    67    1
   120    76    74   am
   121    86    87    2
   122    86    91   am
   123     8     9    2
   124     8     7    1
   125    11    10    1
   126    67    68    1
   127    67    70    1
   128    71    70    1
   129    68    69    2
   130    68    72   am
   131    91    92    1
   132    74    75    2
   133    74    73    1
   134     7    10    1
   135     7     6    1
   136    72    73    1
   137    10    12    1
   138    92    93    1
   139    92    95    1
   140    93    94    2
   141     5     2    1
   142     1     2    1
   143     2     3    1
   144     4     3    2
