@<TRIPOS>MOLECULE
tmp/5gv5B00.pdb
 140 130 0 0 0
SMALL
GASTEIGER

@<TRIPOS>ATOM
      1  N         31.6570   13.1530   71.6560 N.3    39  GLY39      -0.1210
      2  CA        32.6440   12.1600   71.2860 C.3    39  GLY39       0.1956
      3  C         32.8780   11.1960   72.4190 C.2    39  GLY39       0.2612
      4  O         32.5330   11.4770   73.5620 O.2    39  GLY39      -0.2717
      5  N         33.4550   10.0500   72.0870 N.am   40  THR40      -0.1952
      6  CA        33.9120    9.0860   73.0590 C.3    40  THR40       0.1897
      7  C         34.6860    9.7530   74.2050 C.2    40  THR40       0.2313
      8  O         35.4720   10.6740   73.9890 O.2    40  THR40      -0.2863
      9  CB        34.8400    8.0840   72.3660 C.3    40  THR40       0.1794
     10  OG1       34.1380    7.4570   71.2870 O.3    40  THR40      -0.2208
     11  CG2       35.3750    7.0190   73.3600 C.3    40  THR40       0.0378
     12  N         30.4480   15.0800   66.8980 N.3   104  TRP104     -0.1227
     13  CA        31.8870   14.9850   66.8950 C.3   104  TRP104      0.1737
     14  C         32.3160   13.5590   67.1170 C.2   104  TRP104      0.2596
     15  O         31.7060   12.8530   67.9230 O.2   104  TRP104     -0.2718
     16  CB        32.4840   15.7990   67.9990 C.3   104  TRP104      0.0564
     17  CG        33.9540   15.7940   67.9950 C.ar  104  TRP104      0.0003
     18  CD1       34.7860   15.9820   66.9190 C.ar  104  TRP104      0.0946
     19  CD2       34.7910   15.6690   69.1260 C.ar  104  TRP104      0.0152
     20  NE1       36.0970   15.9610   67.3210 N.ar  104  TRP104     -0.2442
     21  CE2       36.1280   15.7760   68.6750 C.ar  104  TRP104      0.0810
     22  CE3       34.5460   15.4710   70.4890 C.ar  104  TRP104      0.0012
     23  CZ2       37.2090   15.6850   69.5380 C.ar  104  TRP104      0.0191
     24  CZ3       35.6240   15.3860   71.3570 C.ar  104  TRP104      0.0001
     25  CH2       36.9340   15.4930   70.8810 C.ar  104  TRP104      0.0015
     26  N         33.3700   13.1420   66.4100 N.am  105  SER105     -0.1938
     27  CA        33.9380   11.8090   66.5800 C.3   105  SER105      0.2055
     28  C         32.7980   10.7620   66.5280 C.2   105  SER105      0.2642
     29  O         31.9560   10.7990   65.6190 O.2   105  SER105     -0.2714
     30  CB        34.7150   11.8080   67.8750 C.3   105  SER105      0.2130
     31  OG        35.7470   10.8290   67.7190 O.3   105  SER105     -0.2179
     32  N         32.7650    9.8750   67.5200 N.am  106  GLN106     -0.1976
     33  CA        31.7290    8.8480   67.6390 C.3   106  GLN106      0.1601
     34  C         30.3360    9.3740   67.4470 C.2   106  GLN106      0.2287
     35  O         29.4860    8.6740   66.9780 O.2   106  GLN106     -0.2864
     36  CB        31.7750    8.1540   69.0010 C.3   106  GLN106      0.0394
     37  CG        30.7190    7.0670   69.0980 C.3   106  GLN106      0.0908
     38  CD        30.6020    6.3650   70.4360 C.2   106  GLN106      0.2608
     39  OE1       29.6030    5.6550   70.6800 O.2   106  GLN106     -0.2717
     40  NE2       31.6030    6.5340   71.3050 N.am  106  GLN106     -0.0878
     41  N         33.5570    8.7750   62.4220 N.3   134  ASP134     -0.1239
     42  CA        34.3640    7.6010   62.1620 C.3   134  ASP134      0.1674
     43  C         33.5260    6.4260   61.7570 C.2   134  ASP134      0.2266
     44  O         33.5640    5.3980   62.4050 O.2   134  ASP134     -0.2867
     45  CB        35.2730    7.2560   63.3640 C.3   134  ASP134      0.1410
     46  CG        34.4900    6.8750   64.6420 C.2   134  ASP134      0.3668
     47  OD1       33.3980    7.4620   64.8710 O.co2 134  ASP134     -0.2456
     48  OD2       35.0030    5.9940   65.3980 O.co2 134  ASP134     -0.2456
     49  N         38.2820    3.0290   63.3500 N.3   138  THR138     -0.1218
     50  CA        39.6660    3.4730   63.1660 C.3   138  THR138      0.1862
     51  C         40.6130    2.2920   63.3530 C.2   138  THR138      0.2287
     52  O         40.3020    1.3540   64.0900 O.2   138  THR138     -0.2866
     53  CB        40.0550    4.5920   64.1410 C.3   138  THR138      0.1770
     54  OG1       41.4520    4.8370   64.0340 O.3   138  THR138     -0.2211
     55  CG2       39.7790    4.1950   65.5670 C.3   138  THR138      0.0375
     56  N         42.7390    1.9870   67.1880 N.3   141  ALA141     -0.1245
     57  CA        42.2240    1.3350   68.3720 C.3   141  ALA141      0.1562
     58  C         42.8100   -0.0380   68.6020 C.2   141  ALA141      0.2260
     59  O         42.4310   -0.6990   69.5560 O.2   141  ALA141     -0.2867
     60  CB        40.7180    1.2170   68.2780 C.3   141  ALA141      0.0290
     61  N         44.8280   -0.8480   71.9090 N.3   144  LEU144     -0.1245
     62  CA        43.9870   -0.8570   73.0990 C.3   144  LEU144      0.1561
     63  C         43.3270   -2.2270   73.2330 C.2   144  LEU144      0.2260
     64  O         43.4510   -2.8880   74.2640 O.2   144  LEU144     -0.2867
     65  CB        42.8990    0.2080   73.0250 C.3   144  LEU144      0.0270
     66  CG        43.1800    1.7200   73.0220 C.3   144  LEU144      0.0019
     67  CD1       42.9730    2.3270   74.4150 C.3   144  LEU144      0.0001
     68  CD2       44.5390    2.1000   72.4240 C.3   144  LEU144      0.0001
     69  N         34.8780    1.5640   72.1140 N.3   154  VAL154     -0.1245
     70  CA        36.1890    1.5400   71.4640 C.3   154  VAL154      0.1561
     71  C         36.3400    0.2530   70.6440 C.2   154  VAL154      0.2260
     72  O         36.7870    0.2790   69.4950 O.2   154  VAL154     -0.2867
     73  CB        37.3390    1.6850   72.4950 C.3   154  VAL154      0.0252
     74  CG1       38.6780    1.2920   71.9100 C.3   154  VAL154      0.0019
     75  CG2       37.4330    3.1160   73.0150 C.3   154  VAL154      0.0019
     76  N         34.5160    0.7700   67.5370 N.3   157  GLN157     -0.1245
     77  CA        35.0430    1.7510   66.6150 C.3   157  GLN157      0.1566
     78  C         36.3880    1.2860   66.0950 C.2   157  GLN157      0.2260
     79  O         37.1440    2.0750   65.5030 O.2   157  GLN157     -0.2867
     80  CB        35.1660    3.1210   67.2880 C.3   157  GLN157      0.0367
     81  CG        33.8310    3.7950   67.5530 C.3   157  GLN157      0.0905
     82  CD        33.9860    5.0880   68.3270 C.2   157  GLN157      0.2608
     83  OE1       34.1980    6.1670   67.7460 O.2   157  GLN157     -0.2717
     84  NE2       33.8870    4.9930   69.6540 N.am  157  GLN157     -0.0878
     85  N         43.6700   10.0400   65.9080 N.3   189  ILE189     -0.1231
     86  CA        42.7770    9.1040   66.5890 C.3   189  ILE189      0.1692
     87  C         42.0450    8.1790   65.6070 C.2   189  ILE189      0.2591
     88  O         41.9120    6.9590   65.8380 O.2   189  ILE189     -0.2718
     89  CB        41.7320    9.8740   67.4180 C.3   189  ILE189      0.0266
     90  CG1       42.4070   10.7600   68.4910 C.3   189  ILE189      0.0019
     91  CG2       40.7710    8.9120   68.0730 C.3   189  ILE189      0.0020
     92  CD1       43.1420   10.0060   69.5720 C.3   189  ILE189      0.0001
     93  N         41.5680    8.7940   64.5270 N.am  190  VAL190     -0.1980
     94  CA        40.8080    8.1440   63.4950 C.3   190  VAL190      0.1595
     95  C         41.6370    8.0990   62.2300 C.2   190  VAL190      0.2287
     96  O         42.0400    9.1460   61.7390 O.2   190  VAL190     -0.2864
     97  CB        39.5770    8.9780   63.1820 C.3   190  VAL190      0.0276
     98  CG1       38.9380    8.5270   61.8750 C.3   190  VAL190      0.0022
     99  CG2       38.6050    8.9010   64.3360 C.3   190  VAL190      0.0022
    100  N         42.5460   15.9040   65.9820 N.3   224  HIS224     -0.1226
    101  CA        41.2370   15.3300   66.1260 C.3   224  HIS224      0.1752
    102  C         40.2220   16.3090   66.7060 C.2   224  HIS224      0.2595
    103  O         39.0640   16.3250   66.3060 O.2   224  HIS224     -0.2718
    104  CB        41.3110   14.0900   66.9900 C.3   224  HIS224      0.0759
    105  CG        40.0520   13.2990   66.9690 C.ar  224  HIS224      0.0818
    106  ND1       39.4690   12.8680   65.8020 N.ar  224  HIS224     -0.2268
    107  CD2       39.2420   12.8950   67.9670 C.ar  224  HIS224      0.1154
    108  CE1       38.3550   12.2240   66.0880 C.ar  224  HIS224      0.1986
    109  NE2       38.1960   12.2260   67.3960 N.ar  224  HIS224     -0.2212
    110  N         40.6630   17.1390   67.6410 N.am  225  ALA225     -0.1980
    111  CA        39.7720   18.1120   68.2700 C.3   225  ALA225      0.1597
    112  C         39.6170   19.3830   67.4420 C.2   225  ALA225      0.2287
    113  O         38.5270   19.9350   67.3770 O.2   225  ALA225     -0.2864
    114  CB        40.2850   18.4480   69.6440 C.3   225  ALA225      0.0319
    115  N         40.5980   17.4700   74.3500 N.3   278  LEU278     -0.1245
    116  CA        40.9930   16.0760   74.5370 C.3   278  LEU278      0.1561
    117  C         41.3880   15.6220   75.9470 C.2   278  LEU278      0.2260
    118  O         41.5620   14.4390   76.1790 O.2   278  LEU278     -0.2867
    119  CB        42.1310   15.7540   73.5570 C.3   278  LEU278      0.0270
    120  CG        43.1990   16.7590   73.0790 C.3   278  LEU278      0.0019
    121  CD1       43.6310   17.7450   74.1710 C.3   278  LEU278      0.0001
    122  CD2       44.3890   15.9980   72.4850 C.3   278  LEU278      0.0001
    123  N         38.7110   13.6470   77.9880 N.3   281  ALA281     -0.1231
    124  CA        38.3430   12.4470   77.2720 C.3   281  ALA281      0.1694
    125  C         39.2900   11.3480   77.6540 C.2   281  ALA281      0.2591
    126  O         38.9010   10.3830   78.3220 O.2   281  ALA281     -0.2718
    127  CB        38.3740   12.6800   75.7790 C.3   281  ALA281      0.0304
    128  N         40.5510   11.5170   77.2720 N.am  282  ALA282     -0.1980
    129  CA        41.5650   10.5050   77.5450 C.3   282  ALA282      0.1597
    130  C         41.6920   10.2110   79.0580 C.2   282  ALA282      0.2287
    131  O         42.2210    9.1730   79.4440 O.2   282  ALA282     -0.2864
    132  CB        42.8980   10.9100   76.9270 C.3   282  ALA282      0.0319
    133  N         38.6320    7.5310   79.6440 N.3   285  ILE285     -0.1245
    134  CA        38.8990    6.2000   79.0570 C.3   285  ILE285      0.1561
    135  C         39.6680    5.3330   80.0500 C.2   285  ILE285      0.2260
    136  O         39.2370    4.2290   80.4180 O.2   285  ILE285     -0.2867
    137  CB        39.7010    6.2640   77.7380 C.3   285  ILE285      0.0252
    138  CG1       38.8480    6.8860   76.6330 C.3   285  ILE285      0.0019
    139  CG2       40.1240    4.8580   77.3030 C.3   285  ILE285      0.0019
    140  CD1       39.6500    7.4770   75.4950 C.3   285  ILE285      0.0001
@<TRIPOS>BOND
     1    96    95    2
     2    43    42    1
     3    43    44    2
     4    98    97    1
     5    42    41    1
     6    42    45    1
     7    95    94    1
     8    50    49    1
     9    50    51    1
    10    50    53    1
    11    97    94    1
    12    97    99    1
    13    51    52    2
    14    45    46    1
    15    94    93    1
    16    54    53    1
    17    53    55    1
    18    93    87   am
    19    46    47   ar
    20    46    48   ar
    21    79    78    2
    22    87    88    2
    23    87    86    1
    24    29    28    2
    25   106   108   ar
    26   106   105   ar
    27    85    86    1
    28   100   101    1
    29   108   109   ar
    30    78    77    1
    31   101   102    1
    32   101   104    1
    33   103   102    2
    34    26    27    1
    35    26    14   am
    36    28    27    1
    37    28    32   am
    38    27    30    1
    39    86    89    1
    40    77    80    1
    41    77    76    1
    42   102   110   am
    43    13    12    1
    44    13    14    1
    45    13    16    1
    46    18    20   ar
    47    18    17   ar
    48   105   104    1
    49   105   107   ar
    50    35    34    2
    51    14    15    2
    52    56    57    1
    53    80    81    1
    54    20    21   ar
    55   113   112    2
    56   109   107   ar
    57    89    91    1
    58    89    90    1
    59   112   111    1
    60    34    33    1
    61    32    33    1
    62    81    82    1
    63    33    36    1
    64   110   111    1
    65    31    30    1
    66    83    82    2
    67    17    16    1
    68    17    19   ar
    69   111   114    1
    70    60    57    1
    71    82    84   am
    72    57    58    1
    73    90    92    1
    74    58    59    2
    75    21    19   ar
    76    21    23   ar
    77    36    37    1
    78    37    38    1
    79    19    22   ar
    80    72    71    2
    81    23    25   ar
    82    38    39    2
    83    38    40   am
    84    22    24   ar
    85    71    70    1
    86    25    24   ar
    87     2     1    1
    88     2     3    1
    89    10     9    1
    90    70    69    1
    91    70    73    1
    92    61    62    1
    93    74    73    1
    94     5     3   am
    95     5     6    1
    96     9     6    1
    97     9    11    1
    98     3     4    2
    99    68    66    1
   100   122   120    1
   101    73    75    1
   102    66    65    1
   103    66    67    1
   104    65    62    1
   105     6     7    1
   106   120   119    1
   107   120   121    1
   108    62    63    1
   109    63    64    2
   110   119   116    1
   111     8     7    2
   112   115   116    1
   113   116   117    1
   114   140   138    1
   115   127   124    1
   116   117   118    2
   117   138   137    1
   118   132   129    1
   119   128   129    1
   120   128   125   am
   121   124   125    1
   122   124   123    1
   123   139   137    1
   124   129   130    1
   125   125   126    2
   126   137   134    1
   127   134   133    1
   128   134   135    1
   129   130   131    2
   130   135   136    2
