@<TRIPOS>MOLECULE
tmp/5gv5A01.pdb
 79 76 0 0 0
SMALL
GASTEIGER

@<TRIPOS>ATOM
      1  N          4.1250   44.3190   41.3570 N.3    10  SER10      -0.1202
      2  CA         3.3760   45.2080   40.4500 C.3    10  SER10       0.2020
      3  C          1.8590   45.0300   40.5180 C.2    10  SER10       0.2618
      4  O          1.1270   45.9380   40.1310 O.2    10  SER10      -0.2717
      5  CB         3.8180   45.0140   38.9820 C.3    10  SER10       0.2103
      6  OG         3.2010   43.8870   38.3480 O.3    10  SER10      -0.2182
      7  N          1.3930   43.8520   40.9520 N.am   11  GLN11      -0.1979
      8  CA        -0.0460   43.4940   40.9110 C.3    11  GLN11       0.1601
      9  C         -0.6690   43.6410   42.2920 C.2    11  GLN11       0.2287
     10  O          0.0370   43.5770   43.2970 O.2    11  GLN11      -0.2864
     11  CB        -0.2420   42.0420   40.4440 C.3    11  GLN11       0.0394
     12  CG         0.4100   41.6860   39.1160 C.3    11  GLN11       0.0908
     13  CD        -0.2950   42.3450   37.9610 C.2    11  GLN11       0.2608
     14  OE1       -1.4550   42.0600   37.7120 O.2    11  GLN11      -0.2717
     15  NE2        0.3950   43.2530   37.2570 N.am   11  GLN11      -0.0878
     16  N         -2.7820   34.5460   34.1640 N.3    69  PRO69      -0.2103
     17  CA        -3.4850   34.8910   32.9530 C.3    69  PRO69       0.1489
     18  C         -2.6690   35.8240   32.0430 C.2    69  PRO69       0.2417
     19  O         -2.0030   36.7400   32.5700 O.2    69  PRO69      -0.2734
     20  CB        -4.7050   35.6440   33.4840 C.3    69  PRO69       0.0282
     21  CG        -4.1730   36.3720   34.6730 C.3    69  PRO69       0.0208
     22  CD        -3.0430   35.5410   35.2260 C.3    69  PRO69       0.0893
     23  N         -2.7670   35.6280   30.6910 N.am   70  PRO70      -0.2729
     24  CA        -3.5500   34.5810   29.9720 C.3    70  PRO70       0.1401
     25  C         -2.7620   33.3300   29.5920 C.2    70  PRO70       0.2269
     26  O         -1.9380   33.3570   28.6940 O.2    70  PRO70      -0.2865
     27  CB        -4.0230   35.3000   28.7160 C.3    70  PRO70       0.0296
     28  CG        -2.9310   36.2620   28.4410 C.3    70  PRO70       0.0237
     29  CD        -2.2700   36.6380   29.7470 C.3    70  PRO70       0.0939
     30  N          1.6480   35.9730   29.5240 N.3    74  ASN74      -0.1225
     31  CA         2.1250   37.3130   29.9160 C.3    74  ASN74       0.1785
     32  C          3.5420   37.2850   30.5100 C.2    74  ASN74       0.2597
     33  O          4.1090   36.2190   30.7780 O.2    74  ASN74      -0.2718
     34  CB         1.1680   37.9280   30.9580 C.3    74  ASN74       0.1169
     35  CG         1.1450   39.4380   30.9250 C.2    74  ASN74       0.2627
     36  OD1        1.3540   40.0480   29.8960 O.2    74  ASN74      -0.2716
     37  ND2        0.8850   40.0430   32.0610 N.am   74  ASN74      -0.0877
     38  N          4.0750   38.4840   30.7360 N.am   75  ASP75      -0.1974
     39  CA         5.3670   38.7320   31.4060 C.3    75  ASP75       0.1709
     40  C          5.6750   37.7200   32.5130 C.2    75  ASP75       0.2293
     41  O          4.8950   37.5560   33.4480 O.2    75  ASP75      -0.2864
     42  CB         5.3720   40.1900   31.9130 C.3    75  ASP75       0.1436
     43  CG         6.6380   40.5900   32.6280 C.2    75  ASP75       0.3671
     44  OD1        7.6880   39.9310   32.4970 O.co2  75  ASP75      -0.2456
     45  OD2        6.5680   41.6050   33.3410 O.co2  75  ASP75      -0.2456
     46  N          5.7130   38.7270   35.9740 N.3    78  VAL78      -0.1245
     47  CA         4.4150   38.8300   36.5820 C.3    78  VAL78       0.1561
     48  C          3.9470   37.4450   36.9680 C.2    78  VAL78       0.2260
     49  O          3.4580   37.2770   38.0540 O.2    78  VAL78      -0.2867
     50  CB         3.4200   39.5790   35.6930 C.3    78  VAL78       0.0252
     51  CG1        2.0090   39.4610   36.2440 C.3    78  VAL78       0.0019
     52  CG2        3.8300   41.0430   35.6150 C.3    78  VAL78       0.0019
     53  N          2.5340   35.7860   41.1040 N.3    82  TYR82      -0.1241
     54  CA         1.5650   34.7630   41.5010 C.3    82  TYR82       0.1605
     55  C          2.1890   33.6300   42.3300 C.2    82  TYR82       0.2264
     56  O          1.6170   33.1760   43.3100 O.2    82  TYR82      -0.2867
     57  CB         0.8580   34.1710   40.2690 C.3    82  TYR82       0.0534
     58  CG        -0.1960   35.0750   39.6320 C.ar   82  TYR82      -0.0201
     59  CD1       -1.5410   35.0540   40.0490 C.ar   82  TYR82      -0.0009
     60  CD2        0.1420   35.9480   38.6130 C.ar   82  TYR82      -0.0009
     61  CE1       -2.5030   35.8810   39.4630 C.ar   82  TYR82       0.0417
     62  CE2       -0.8090   36.7760   38.0230 C.ar   82  TYR82       0.0417
     63  CZ        -2.1230   36.7320   38.4440 C.ar   82  TYR82       0.1957
     64  OH        -3.0040   37.5780   37.8340 O.3    82  TYR82      -0.2866
     65  N          9.4480   42.0920   26.6850 N.3   295  PRO295     -0.2116
     66  CA         9.1400   42.8600   27.8770 C.3   295  PRO295      0.1372
     67  C         10.3510   43.3070   28.6940 C.2   295  PRO295      0.2244
     68  O         11.2320   42.5160   28.9880 O.2   295  PRO295     -0.2868
     69  CB         8.3000   41.8990   28.7250 C.3   295  PRO295      0.0268
     70  CG         7.7210   40.9430   27.7610 C.3   295  PRO295      0.0207
     71  CD         8.6440   40.8640   26.5910 C.3   295  PRO295      0.0892
     72  N         12.0760   44.3340   35.2530 N.3   298  MET298     -0.1245
     73  CA        11.6890   45.1650   36.3870 C.3   298  MET298      0.1570
     74  C         12.9670   45.7520   36.9370 C.2   298  MET298      0.2261
     75  O         14.0320   45.2180   36.6800 O.2   298  MET298     -0.2867
     76  CB        11.0420   44.3110   37.4870 C.3   298  MET298      0.0387
     77  CG         9.8340   43.4690   37.0460 C.3   298  MET298      0.0595
     78  SD         8.2510   44.2870   37.2530 S.3   298  MET298     -0.1393
     79  CE         7.1740   43.1530   36.3780 C.3   298  MET298      0.0692
@<TRIPOS>BOND
     1    71    65    1
     2    71    70    1
     3    65    66    1
     4    70    69    1
     5    66    67    1
     6    66    69    1
     7    28    27    1
     8    28    29    1
     9    67    68    2
    10    26    25    2
    11    27    24    1
    12    30    31    1
    13    25    24    1
    14    29    23    1
    15    36    35    2
    16    31    32    1
    17    31    34    1
    18    24    23    1
    19    32    38   am
    20    32    33    2
    21    23    18   am
    22    38    39    1
    23    35    34    1
    24    35    37   am
    25    39    42    1
    26    39    40    1
    27    42    43    1
    28    18    19    2
    29    18    17    1
    30    44    43   ar
    31    40    41    2
    32    43    45   ar
    33    17    20    1
    34    17    16    1
    35    20    21    1
    36    16    22    1
    37    21    22    1
    38    72    73    1
    39    52    50    1
    40    50    51    1
    41    50    47    1
    42    46    47    1
    43    79    78    1
    44    73    74    1
    45    73    76    1
    46    47    48    1
    47    75    74    2
    48    48    49    2
    49    77    78    1
    50    77    76    1
    51    15    13   am
    52    14    13    2
    53    64    63    1
    54    13    12    1
    55    62    63   ar
    56    62    60   ar
    57     6     5    1
    58    63    61   ar
    59    60    58   ar
    60     5     2    1
    61    12    11    1
    62    61    59   ar
    63    58    59   ar
    64    58    57    1
    65     4     3    2
    66    57    54    1
    67    11     8    1
    68     2     3    1
    69     2     1    1
    70     3     7   am
    71     8     7    1
    72     8     9    1
    73    53    54    1
    74    54    55    1
    75     9    10    2
    76    55    56    2
