@<TRIPOS>MOLECULE
tmp/5gvkB03.pdb
 136 129 0 0 0
SMALL
GASTEIGER

@<TRIPOS>ATOM
      1  N         32.9300  -15.0720   58.4910 N.3   124  LEU124     -0.1245
      2  CA        31.4670  -15.1770   58.4660 C.3   124  LEU124      0.1561
      3  C         30.8750  -15.0780   57.0600 C.2   124  LEU124      0.2260
      4  O         30.0680  -15.9290   56.6710 O.2   124  LEU124     -0.2867
      5  CB        30.8540  -14.1220   59.3950 C.3   124  LEU124      0.0270
      6  CG        29.3330  -13.9880   59.5780 C.3   124  LEU124      0.0019
      7  CD1       28.8190  -14.9600   60.6260 C.3   124  LEU124      0.0001
      8  CD2       28.9740  -12.5650   59.9940 C.3   124  LEU124      0.0001
      9  N         31.0940  -17.9950   54.9840 N.3   127  GLY127     -0.1210
     10  CA        30.3620  -19.1500   55.5080 C.3   127  GLY127      0.1956
     11  C         30.7880  -19.6940   56.8580 C.2   127  GLY127      0.2612
     12  O         30.1960  -20.6570   57.3410 O.2   127  GLY127     -0.2717
     13  N         31.7910  -19.0720   57.4720 N.am  128  GLY128     -0.1942
     14  CA        32.1990  -19.4110   58.8470 C.3   128  GLY128      0.2014
     15  C         31.1650  -19.0110   59.8890 C.2   128  GLY128      0.2639
     16  O         30.2870  -18.2020   59.6040 O.2   128  GLY128     -0.2714
     17  N         31.2670  -19.5820   61.0930 N.am  129  HIS129     -0.1959
     18  CA        30.3970  -19.1950   62.2080 C.3   129  HIS129      0.1787
     19  C         30.9240  -18.0040   62.9900 C.2   129  HIS129      0.2620
     20  O         32.0830  -17.6560   62.8800 O.2   129  HIS129     -0.2715
     21  CB        30.1240  -20.3530   63.1650 C.3   129  HIS129      0.0785
     22  CG        28.9840  -20.0770   64.1040 C.ar  129  HIS129      0.0821
     23  ND1       29.1720  -19.7770   65.4390 N.ar  129  HIS129     -0.2267
     24  CD2       27.6480  -20.0000   63.8870 C.ar  129  HIS129      0.1154
     25  CE1       28.0010  -19.5490   66.0090 C.ar  129  HIS129      0.1986
     26  NE2       27.0610  -19.6770   65.0880 N.ar  129  HIS129     -0.2212
     27  N         30.0540  -17.3830   63.7850 N.am  130  LEU130     -0.1977
     28  CA        30.4590  -16.2790   64.6700 C.3   130  LEU130      0.1596
     29  C         31.5280  -16.7320   65.6500 C.2   130  LEU130      0.2287
     30  O         32.5040  -16.0130   65.8590 O.2   130  LEU130     -0.2864
     31  CB        29.2610  -15.7090   65.4290 C.3   130  LEU130      0.0297
     32  CG        28.1750  -14.9880   64.6300 C.3   130  LEU130      0.0022
     33  CD1       26.9870  -14.7470   65.5240 C.3   130  LEU130      0.0001
     34  CD2       28.6670  -13.6550   64.0940 C.3   130  LEU130      0.0001
     35  N         35.0610  -14.5120   64.6230 N.3   134  PHE134     -0.1241
     36  CA        34.5010  -13.3730   63.8940 C.3   134  PHE134      0.1605
     37  C         34.6780  -11.9960   64.5310 C.2   134  PHE134      0.2264
     38  O         34.3670  -11.7900   65.7020 O.2   134  PHE134     -0.2867
     39  CB        33.0340  -13.5610   63.5250 C.3   134  PHE134      0.0534
     40  CG        32.4970  -12.4250   62.6910 C.ar  134  PHE134     -0.0203
     41  CD1       32.9990  -12.1790   61.3980 C.ar  134  PHE134     -0.0042
     42  CD2       31.5540  -11.5510   63.2180 C.ar  134  PHE134     -0.0042
     43  CE1       32.5450  -11.0980   60.6490 C.ar  134  PHE134     -0.0003
     44  CE2       31.0990  -10.4700   62.4710 C.ar  134  PHE134     -0.0003
     45  CZ        31.5910  -10.2480   61.1860 C.ar  134  PHE134     -0.0000
     46  N         34.9850   -7.4600   63.0140 N.3   136  ASP136     -0.1239
     47  CA        34.9380   -6.4470   61.9640 C.3   136  ASP136      0.1674
     48  C         35.9700   -5.3660   62.3180 C.2   136  ASP136      0.2266
     49  O         36.3960   -5.2600   63.4760 O.2   136  ASP136     -0.2867
     50  CB        33.5290   -5.8370   61.9140 C.3   136  ASP136      0.1410
     51  CG        33.2220   -5.1330   60.5930 C.2   136  ASP136      0.3668
     52  OD1       34.1360   -4.5930   59.9230 O.co2 136  ASP136     -0.2456
     53  OD2       32.0290   -5.1060   60.2250 O.co2 136  ASP136     -0.2456
     54  N         33.2460   -8.5700   67.4100 N.3   141  VAL141     -0.1245
     55  CA        31.8530   -9.0120   67.4760 C.3   141  VAL141      0.1561
     56  C         31.6260  -10.2670   68.3490 C.2   141  VAL141      0.2260
     57  O         30.6910  -10.3180   69.1560 O.2   141  VAL141     -0.2867
     58  CB        31.3560   -9.2740   66.0430 C.3   141  VAL141      0.0252
     59  CG1       29.9300   -9.7830   66.0420 C.3   141  VAL141      0.0019
     60  CG2       31.5000   -8.0120   65.1950 C.3   141  VAL141      0.0019
     61  N         28.9940  -22.8340   58.9080 N.3   183  THR183     -0.1203
     62  CA        27.5380  -22.6300   59.0740 C.3   183  THR183      0.1994
     63  C         26.7850  -22.5980   57.7580 C.2   183  THR183      0.2618
     64  O         25.6770  -23.1070   57.6660 O.2   183  THR183     -0.2717
     65  CB        27.1380  -21.4540   60.0110 C.3   183  THR183      0.1784
     66  OG1       26.5250  -20.3840   59.2840 O.3   183  THR183     -0.2211
     67  CG2       28.2800  -20.9450   60.6970 C.3   183  THR183      0.0376
     68  N         27.3830  -22.0070   56.7400 N.am  184  SER184     -0.1951
     69  CA        26.7000  -21.8900   55.4680 C.3   184  SER184      0.1924
     70  C         27.6580  -22.1540   54.3170 C.2   184  SER184      0.2314
     71  O         27.7930  -21.3560   53.3960 O.2   184  SER184     -0.2863
     72  CB        25.9910  -20.5300   55.3630 C.3   184  SER184      0.2116
     73  OG        26.8750  -19.4750   55.6850 O.3   184  SER184     -0.2180
     74  N         16.5270  -17.9270   55.5860 N.3   354  ASN354     -0.1225
     75  CA        17.2860  -16.7930   56.0780 C.3   354  ASN354      0.1785
     76  C         18.1770  -16.1610   55.0230 C.2   354  ASN354      0.2597
     77  O         18.6990  -16.8390   54.1250 O.2   354  ASN354     -0.2718
     78  CB        18.1260  -17.1700   57.3250 C.3   354  ASN354      0.1169
     79  CG        19.2510  -18.1570   57.0160 C.2   354  ASN354      0.2627
     80  OD1       19.0420  -19.3790   57.0610 O.2   354  ASN354     -0.2716
     81  ND2       20.4550  -17.6330   56.7250 N.am  354  ASN354     -0.0877
     82  N         18.3620  -14.8580   55.1690 N.am  355  LYS355     -0.1966
     83  CA        19.2970  -14.1000   54.3700 C.3   355  LYS355      0.1728
     84  C         20.6970  -14.5980   54.6740 C.2   355  LYS355      0.2616
     85  O         20.9940  -15.0130   55.7930 O.2   355  LYS355     -0.2715
     86  CB        19.1770  -12.5870   54.6320 C.3   355  LYS355      0.0311
     87  CG        18.9800  -12.1980   56.0920 C.3   355  LYS355      0.0038
     88  CD        19.3000  -10.7370   56.3320 C.3   355  LYS355      0.0206
     89  CE        18.7650  -10.2860   57.6830 C.3   355  LYS355      0.1093
     90  NZ        18.7080   -8.8000   57.7690 N.3   355  LYS355     -0.1314
     91  N         21.5470  -14.5780   53.6590 N.am  356  ASN356     -0.1958
     92  CA        22.9010  -15.0660   53.7920 C.3   356  ASN356      0.1819
     93  C         23.8150  -14.2600   52.9000 C.2   356  ASN356      0.2621
     94  O         23.3840  -13.7610   51.8460 O.2   356  ASN356     -0.2715
     95  CB        22.9700  -16.5650   53.4490 C.3   356  ASN356      0.1195
     96  CG        24.0880  -17.2780   54.1970 C.2   356  ASN356      0.2630
     97  OD1       23.8580  -17.9020   55.2350 O.2   356  ASN356     -0.2716
     98  ND2       25.3030  -17.1480   53.7030 N.am  356  ASN356     -0.0877
     99  N         25.0680  -14.1110   53.3270 N.am  357  THR357     -0.1951
    100  CA        26.0880  -13.4470   52.5080 C.3   357  THR357      0.1897
    101  C         26.5140  -14.3450   51.3400 C.2   357  THR357      0.2313
    102  O         26.2480  -15.5570   51.3340 O.2   357  THR357     -0.2863
    103  CB        27.3360  -13.0900   53.3400 C.3   357  THR357      0.1794
    104  OG1       27.8360  -14.2740   53.9670 O.3   357  THR357     -0.2208
    105  CG2       27.0160  -12.0730   54.4180 C.3   357  THR357      0.0378
    106  N         27.4470   -6.9270   55.7040 N.3   364  CYS364     -0.1221
    107  CA        26.4760   -7.8500   56.3230 C.3   364  CYS364      0.1808
    108  C         25.0540   -7.2930   56.4080 C.2   364  CYS364      0.2601
    109  O         24.0910   -8.0590   56.5230 O.2   364  CYS364     -0.2717
    110  CB        26.9530   -8.2700   57.7110 C.3   364  CYS364      0.0970
    111  SG        28.4220   -9.3160   57.6680 S.3   364  CYS364     -0.0800
    112  N         24.9410   -5.9650   56.4050 N.am  365  VAL365     -0.1979
    113  CA        23.6810   -5.2710   56.1230 C.3   365  VAL365      0.1595
    114  C         23.5780   -5.2170   54.5880 C.2   365  VAL365      0.2287
    115  O         24.5670   -4.9200   53.9030 O.2   365  VAL365     -0.2864
    116  CB        23.6270   -3.8690   56.8080 C.3   365  VAL365      0.0276
    117  CG1       22.4820   -3.0040   56.2780 C.3   365  VAL365      0.0022
    118  CG2       23.4920   -4.0160   58.3240 C.3   365  VAL365      0.0022
    119  N         22.7810   -8.1650   52.4440 N.3   367  PRO367     -0.2116
    120  CA        23.5010   -9.2820   51.8190 C.3   367  PRO367      0.1372
    121  C         22.8410   -9.7080   50.5050 C.2   367  PRO367      0.2244
    122  O         21.6600   -9.3960   50.2610 O.2   367  PRO367     -0.2868
    123  CB        23.3690  -10.3980   52.8490 C.3   367  PRO367      0.0268
    124  CG        22.0340  -10.1420   53.4780 C.3   367  PRO367      0.0207
    125  CD        21.8310   -8.6480   53.4700 C.3   367  PRO367      0.0892
    126  N         20.1120  -18.4360   52.2730 N.3   371  ARG371     -0.1245
    127  CA        20.5200  -19.8240   52.4360 C.3   371  ARG371      0.1563
    128  C         19.2790  -20.6940   52.6380 C.2   371  ARG371      0.2260
    129  O         18.3190  -20.2800   53.2900 O.2   371  ARG371     -0.2867
    130  CB        21.5140  -19.9600   53.5850 C.3   371  ARG371      0.0307
    131  CG        21.9500  -21.3760   53.9330 C.3   371  ARG371      0.0489
    132  CD        22.6010  -21.4070   55.3080 C.3   371  ARG371      0.2205
    133  NE        21.6300  -21.2370   56.3920 N.pl3 371  ARG371     -0.0865
    134  CZ        21.9000  -21.3870   57.6810 C.cat 371  ARG371      0.5346
    135  NH1       23.1300  -21.7130   58.0830 N.pl3 371  ARG371      0.1354
    136  NH2       20.9360  -21.2080   58.5750 N.pl3 371  ARG371      0.1354
@<TRIPOS>BOND
     1   122   121    2
     2   121   120    1
     3   102   101    2
     4   101   100    1
     5   120   119    1
     6   120   123    1
     7    94    93    2
     8   126   127    1
     9   127   128    1
    10   127   130    1
    11   119   125    1
    12   100    99    1
    13   100   103    1
    14   128   129    2
    15   123   124    1
    16    93    99   am
    17    93    92    1
    18   103   104    1
    19   103   105    1
    20    71    70    2
    21    95    92    1
    22    95    96    1
    23   125   124    1
    24   130   131    1
    25    91    92    1
    26    91    84   am
    27    98    96   am
    28   115   114    2
    29   131   132    1
    30    77    76    2
    31    96    97    2
    32    70    69    1
    33    83    86    1
    34    83    84    1
    35    83    82    1
    36   114   113    1
    37    86    87    1
    38    84    85    2
    39     9    10    1
    40    76    82   am
    41    76    75    1
    42   132   133    1
    43    72    69    1
    44    72    73    1
    45    69    68    1
    46    10    11    1
    47    74    75    1
    48   106   107    1
    49    75    78    1
    50    87    88    1
    51   113   112    1
    52   113   116    1
    53   117   116    1
    54   107   108    1
    55   107   110    1
    56    88    89    1
    57   133   134    2
    58   112   108   am
    59   108   109    2
    60     4     3    2
    61    81    79   am
    62    68    63   am
    63   116   118    1
    64    11    12    2
    65    11    13   am
    66    79    80    2
    67    79    78    1
    68     3     2    1
    69    13    14    1
    70    64    63    2
    71   111   110    1
    72   134   135    1
    73   134   136    1
    74    89    90    1
    75    63    62    1
    76     2     1    1
    77     2     5    1
    78    14    15    1
    79    61    62    1
    80    62    65    1
    81    66    65    1
    82     5     6    1
    83     6     8    1
    84     6     7    1
    85    16    15    2
    86    15    17   am
    87    52    51   ar
    88    65    67    1
    89    53    51   ar
    90    51    50    1
    91    43    45   ar
    92    43    41   ar
    93    17    18    1
    94    45    44   ar
    95    41    40   ar
    96    50    47    1
    97    47    48    1
    98    47    46    1
    99    18    19    1
   100    18    21    1
   101    48    49    2
   102    44    42   ar
   103    40    42   ar
   104    40    39    1
   105    20    19    2
   106    19    27   am
   107    21    22    1
   108    39    36    1
   109    27    28    1
   110    24    22   ar
   111    24    26   ar
   112    36    37    1
   113    36    35    1
   114    34    32    1
   115    22    23   ar
   116    37    38    2
   117    32    31    1
   118    32    33    1
   119    28    31    1
   120    28    29    1
   121    26    25   ar
   122    60    58    1
   123    23    25   ar
   124    29    30    2
   125    59    58    1
   126    58    55    1
   127    54    55    1
   128    55    56    1
   129    56    57    2
