@<TRIPOS>MOLECULE
tmp/5gvlA01.pdb
 129 122 0 0 0
SMALL
GASTEIGER

@<TRIPOS>ATOM
      1  N         15.9130  -39.5840  -19.5150 N.3   124  LEU124     -0.1245
      2  CA        16.7080  -38.3540  -19.5220 C.3   124  LEU124      0.1561
      3  C         16.8870  -37.7500  -18.1330 C.2   124  LEU124      0.2260
      4  O         18.0070  -37.3720  -17.7790 O.2   124  LEU124     -0.2867
      5  CB        16.0800  -37.3220  -20.4490 C.3   124  LEU124      0.0270
      6  CG        16.8150  -36.0110  -20.7240 C.3   124  LEU124      0.0019
      7  CD1       17.6080  -36.0990  -22.0230 C.3   124  LEU124      0.0001
      8  CD2       15.8230  -34.8570  -20.7750 C.3   124  LEU124      0.0001
      9  N         19.4340  -39.6190  -16.0950 N.3   127  GLY127     -0.1210
     10  CA        20.8360  -39.5300  -16.5190 C.3   127  GLY127      0.1956
     11  C         21.1490  -40.0580  -17.9020 C.2   127  GLY127      0.2612
     12  O         22.3050  -40.0040  -18.3460 O.2   127  GLY127     -0.2717
     13  N         20.1190  -40.5490  -18.5850 N.am  128  GLY128     -0.1942
     14  CA        20.2540  -41.1050  -19.9320 C.3   128  GLY128      0.2014
     15  C         20.2320  -40.0830  -21.0500 C.2   128  GLY128      0.2639
     16  O         19.8270  -38.9340  -20.8440 O.2   128  GLY128     -0.2714
     17  N         20.6830  -40.4970  -22.2370 N.am  129  HIS129     -0.1959
     18  CA        20.7360  -39.5950  -23.3830 C.3   129  HIS129      0.1787
     19  C         19.4100  -39.4580  -24.1150 C.2   129  HIS129      0.2620
     20  O         18.5250  -40.3020  -23.9800 O.2   129  HIS129     -0.2715
     21  CB        21.8740  -39.9270  -24.3550 C.3   129  HIS129      0.0785
     22  CG        22.2500  -38.7650  -25.2230 C.ar  129  HIS129      0.0821
     23  ND1       21.8910  -38.6820  -26.5520 N.ar  129  HIS129     -0.2267
     24  CD2       22.8690  -37.5950  -24.9280 C.ar  129  HIS129      0.1154
     25  CE1       22.3170  -37.5360  -27.0530 C.ar  129  HIS129      0.1986
     26  NE2       22.9110  -36.8560  -26.0870 N.ar  129  HIS129     -0.2212
     27  N         19.2800  -38.3680  -24.8690 N.am  130  LEU130     -0.1977
     28  CA        18.1760  -38.1760  -25.8050 C.3   130  LEU130      0.1596
     29  C         18.0510  -39.3690  -26.7530 C.2   130  LEU130      0.2287
     30  O         16.9590  -39.9130  -26.9180 O.2   130  LEU130     -0.2864
     31  CB        18.3690  -36.8860  -26.6110 C.3   130  LEU130      0.0297
     32  CG        18.2680  -35.5250  -25.9080 C.3   130  LEU130      0.0022
     33  CD1       18.8520  -34.4480  -26.8030 C.3   130  LEU130      0.0001
     34  CD2       16.8370  -35.1720  -25.5300 C.3   130  LEU130      0.0001
     35  N         14.3240  -41.3860  -25.7210 N.3   134  PHE134     -0.1241
     36  CA        13.6210  -40.4160  -24.9030 C.3   134  PHE134      0.1605
     37  C         12.4030  -39.7820  -25.5650 C.2   134  PHE134      0.2264
     38  O         12.4670  -39.2810  -26.6920 O.2   134  PHE134     -0.2867
     39  CB        14.5580  -39.3290  -24.3780 C.3   134  PHE134      0.0534
     40  CG        13.8500  -38.2800  -23.5750 C.ar  134  PHE134     -0.0203
     41  CD1       13.4060  -38.5530  -22.2790 C.ar  134  PHE134     -0.0042
     42  CD2       13.5740  -37.0370  -24.1340 C.ar  134  PHE134     -0.0042
     43  CE1       12.7190  -37.5900  -21.5510 C.ar  134  PHE134     -0.0003
     44  CE2       12.8840  -36.0730  -23.4060 C.ar  134  PHE134     -0.0003
     45  CZ        12.4630  -36.3480  -22.1130 C.ar  134  PHE134     -0.0000
     46  N          8.5760  -37.4920  -24.1920 N.3   136  ASP136     -0.1239
     47  CA         7.7690  -36.7890  -23.2060 C.3   136  ASP136      0.1674
     48  C          6.3350  -37.2870  -23.3680 C.2   136  ASP136      0.2266
     49  O          5.9670  -37.8160  -24.4220 O.2   136  ASP136     -0.2867
     50  CB         7.8130  -35.2940  -23.5330 C.3   136  ASP136      0.1410
     51  CG         7.4470  -34.4130  -22.3660 C.2   136  ASP136      0.3668
     52  OD1        7.0570  -34.9230  -21.2920 O.co2 136  ASP136     -0.2456
     53  OD2        7.5480  -33.1820  -22.5350 O.co2 136  ASP136     -0.2456
     54  N         10.2240  -36.6640  -28.3400 N.3   141  VAL141     -0.1245
     55  CA        11.2990  -35.6720  -28.3740 C.3   141  VAL141      0.1561
     56  C         12.4820  -36.1010  -29.2560 C.2   141  VAL141      0.2260
     57  O         12.9840  -35.3180  -30.0640 O.2   141  VAL141     -0.2867
     58  CB        11.7640  -35.3250  -26.9430 C.3   141  VAL141      0.0252
     59  CG1       12.7260  -34.1510  -26.9440 C.3   141  VAL141      0.0019
     60  CG2       10.5640  -35.0010  -26.0610 C.3   141  VAL141      0.0019
     61  N         24.6980  -40.1920  -20.0840 N.3   183  THR183     -0.1203
     62  CA        25.1200  -38.7900  -20.2310 C.3   183  THR183      0.1994
     63  C         25.4640  -38.1200  -18.9010 C.2   183  THR183      0.2618
     64  O         26.4460  -37.3800  -18.8210 O.2   183  THR183     -0.2717
     65  CB        24.1600  -37.9360  -21.1030 C.3   183  THR183      0.1784
     66  OG1       23.8200  -36.7080  -20.4410 O.3   183  THR183     -0.2211
     67  CG2       22.9380  -38.6330  -21.3530 C.3   183  THR183      0.0376
     68  N         24.6620  -38.3730  -17.8720 N.am  184  SER184     -0.1951
     69  CA        24.9080  -37.7780  -16.5620 C.3   184  SER184      0.1924
     70  C         24.6990  -38.7580  -15.4240 C.2   184  SER184      0.2314
     71  O         23.9370  -38.5140  -14.4910 O.2   184  SER184     -0.2863
     72  CB        24.1090  -36.4760  -16.3660 C.3   184  SER184      0.2116
     73  OG        22.8270  -36.5270  -16.9680 O.3   184  SER184     -0.2180
     74  N         26.4490  -26.9520  -16.6240 N.3   354  ASN354     -0.1225
     75  CA        25.0780  -27.0200  -17.0930 C.3   354  ASN354      0.1785
     76  C         24.1370  -27.4500  -16.0030 C.2   354  ASN354      0.2597
     77  O         24.5000  -28.2150  -15.1150 O.2   354  ASN354     -0.2718
     78  CB        24.9330  -27.9440  -18.3120 C.3   354  ASN354      0.1169
     79  CG        25.2420  -29.4010  -17.9990 C.2   354  ASN354      0.2627
     80  OD1       26.4120  -29.8110  -17.9870 O.2   354  ASN354     -0.2716
     81  ND2       24.1910  -30.1920  -17.7540 N.am  354  ASN354     -0.0877
     82  N         22.9210  -26.9450  -16.0860 N.am  355  LYS355     -0.1966
     83  CA        21.8300  -27.4170  -15.2760 C.3   355  LYS355      0.1728
     84  C         21.5430  -28.8720  -15.6400 C.2   355  LYS355      0.2616
     85  O         21.6140  -29.2520  -16.8050 O.2   355  LYS355     -0.2715
     86  CB        20.5900  -26.5430  -15.4840 C.3   355  LYS355      0.0311
     87  CG        20.2020  -26.3300  -16.9430 C.3   355  LYS355      0.0038
     88  CD        18.7690  -25.8610  -17.0960 C.3   355  LYS355      0.0206
     89  CE        18.2760  -26.1010  -18.5130 C.3   355  LYS355      0.1093
     90  NZ        17.6400  -24.8750  -19.0450 N.3   355  LYS355     -0.1314
     91  N         21.2430  -29.6710  -14.6230 N.am  356  ASN356     -0.1958
     92  CA        20.9370  -31.0810  -14.7790 C.3   356  ASN356      0.1819
     93  C         19.7670  -31.4870  -13.8960 C.2   356  ASN356      0.2621
     94  O         19.5790  -30.9360  -12.8010 O.2   356  ASN356     -0.2715
     95  CB        22.1670  -31.9150  -14.4330 C.3   356  ASN356      0.1195
     96  CG        22.2320  -33.1990  -15.2250 C.2   356  ASN356      0.2630
     97  OD1       22.8980  -33.2690  -16.2570 O.2   356  ASN356     -0.2716
     98  ND2       21.5190  -34.2140  -14.7650 N.am  356  ASN356     -0.0877
     99  N         18.9780  -32.4470  -14.3690 N.am  357  THR357     -0.1951
    100  CA        17.8740  -33.0060  -13.5740 C.3   357  THR357      0.1897
    101  C         18.3770  -33.8920  -12.4310 C.2   357  THR357      0.2313
    102  O         19.5250  -34.3450  -12.4300 O.2   357  THR357     -0.2863
    103  CB        16.8980  -33.8230  -14.4410 C.3   357  THR357      0.1794
    104  OG1       17.6320  -34.8230  -15.1540 O.3   357  THR357     -0.2208
    105  CG2       16.1570  -32.9390  -15.4290 C.3   357  THR357      0.0378
    106  N         11.7870  -30.2450  -16.8050 N.3   364  CYS364     -0.1235
    107  CA        12.9740  -30.2580  -17.6700 C.3   364  CYS364      0.1677
    108  C         13.5110  -28.8700  -17.9780 C.2   364  CYS364      0.2270
    109  O         14.7020  -28.7150  -18.2700 O.2   364  CYS364     -0.2867
    110  CB        12.6950  -31.0170  -18.9710 C.3   364  CYS364      0.0956
    111  SG        12.9350  -32.7960  -18.8040 S.3   364  CYS364     -0.0801
    112  N         15.4450  -27.4990  -13.6100 N.3   367  PRO367     -0.2116
    113  CA        15.8260  -28.6630  -12.7990 C.3   367  PRO367      0.1372
    114  C         16.4190  -28.2850  -11.4310 C.2   367  PRO367      0.2244
    115  O         16.7400  -27.1090  -11.1890 O.2   367  PRO367     -0.2868
    116  CB        16.8930  -29.3220  -13.6600 C.3   367  PRO367      0.0268
    117  CG        17.5810  -28.1640  -14.3180 C.3   367  PRO367      0.0207
    118  CD        16.5770  -27.0500  -14.4540 C.3   367  PRO367      0.0892
    119  N         25.3100  -30.2570  -13.3020 N.3   371  ARG371     -0.1245
    120  CA        26.3000  -31.2900  -13.5030 C.3   371  ARG371      0.1563
    121  C         27.6670  -30.6510  -13.7400 C.2   371  ARG371      0.2260
    122  O         27.7830  -29.6610  -14.4570 O.2   371  ARG371     -0.2867
    123  CB        25.8920  -32.2140  -14.6480 C.3   371  ARG371      0.0307
    124  CG        26.7800  -33.4310  -14.8490 C.3   371  ARG371      0.0489
    125  CD        26.6240  -34.0080  -16.2440 C.3   371  ARG371      0.2205
    126  NE        26.9570  -33.0650  -17.3170 N.pl3 371  ARG371     -0.0865
    127  CZ        26.8180  -33.3130  -18.6210 C.cat 371  ARG371      0.5346
    128  NH1       26.3630  -34.4800  -19.0520 N.pl3 371  ARG371      0.1354
    129  NH2       27.1470  -32.3920  -19.5050 N.pl3 371  ARG371      0.1354
@<TRIPOS>BOND
     1    57    56    2
     2    56    55    1
     3    55    54    1
     4    55    58    1
     5    25    23   ar
     6    25    26   ar
     7    59    58    1
     8    58    60    1
     9    30    29    2
    10    33    32    1
    11    29    28    1
    12    38    37    2
    13    31    32    1
    14    31    28    1
    15    23    22   ar
    16    26    24   ar
    17    32    34    1
    18    28    27    1
    19    35    36    1
    20    37    36    1
    21    22    24   ar
    22    22    21    1
    23    36    39    1
    24    27    19   am
    25    49    48    2
    26    39    40    1
    27    21    18    1
    28    46    47    1
    29    42    40   ar
    30    42    44   ar
    31    19    20    2
    32    19    18    1
    33    40    41   ar
    34    50    47    1
    35    50    51    1
    36    44    45   ar
    37    18    17    1
    38    48    47    1
    39    53    51   ar
    40    51    52   ar
    41    41    43   ar
    42    17    15   am
    43    45    43   ar
    44     7     6    1
    45    67    65    1
    46    65    66    1
    47    65    62    1
    48    15    16    2
    49    15    14    1
    50     8     6    1
    51     6     5    1
    52     5     2    1
    53    62    61    1
    54    62    63    1
    55    14    13    1
    56     2     1    1
    57     2     3    1
    58   129   127    1
    59   128   127    1
    60    90    89    1
    61   110   111    1
    62   110   107    1
    63    63    64    2
    64    63    68   am
    65   127   126    2
    66    13    11   am
    67    89    88    1
    68    12    11    2
    69    78    79    1
    70    78    75    1
    71   109   108    2
    72     3     4    2
    73    79    80    2
    74    79    81   am
    75   108   107    1
    76    11    10    1
    77    68    69    1
    78   107   106    1
    79   126   125    1
    80    88    87    1
    81    75    74    1
    82    75    76    1
    83    73    72    1
    84    87    86    1
    85    85    84    2
    86    69    72    1
    87    69    70    1
    88    10     9    1
    89    97    96    2
    90   125   124    1
    91    82    76   am
    92    82    83    1
    93    76    77    2
    94    84    83    1
    95    84    91   am
    96    86    83    1
    97   105   103    1
    98    70    71    2
    99    96    98   am
   100    96    95    1
   101   104   103    1
   102   124   123    1
   103    92    91    1
   104    92    95    1
   105    92    93    1
   106   123   120    1
   107   122   121    2
   108   118   117    1
   109   118   112    1
   110   103   100    1
   111    99    93   am
   112    99   100    1
   113   117   116    1
   114    93    94    2
   115   121   120    1
   116   116   113    1
   117   112   113    1
   118   100   101    1
   119   120   119    1
   120   113   114    1
   121   101   102    2
   122   114   115    2
