@<TRIPOS>MOLECULE
tmp/5gvmA01.pdb
 136 129 0 0 0
SMALL
GASTEIGER

@<TRIPOS>ATOM
      1  N         34.9390   36.5280   19.5870 N.3   124  LEU124     -0.1245
      2  CA        34.1450   37.7800   19.6190 C.3   124  LEU124      0.1561
      3  C         33.8890   38.3720   18.2320 C.2   124  LEU124      0.2260
      4  O         32.7380   38.6300   17.8600 O.2   124  LEU124     -0.2867
      5  CB        34.8460   38.8070   20.5320 C.3   124  LEU124      0.0270
      6  CG        34.2040   40.1780   20.8060 C.3   124  LEU124      0.0019
      7  CD1       32.9540   40.0370   21.6560 C.3   124  LEU124      0.0001
      8  CD2       35.1840   41.1000   21.5100 C.3   124  LEU124      0.0001
      9  N         31.2980   36.6050   16.1080 N.3   127  GLY127     -0.1210
     10  CA        29.9210   36.6300   16.5960 C.3   127  GLY127      0.1956
     11  C         29.7130   36.0510   17.9820 C.2   127  GLY127      0.2612
     12  O         28.5820   36.0380   18.4560 O.2   127  GLY127     -0.2717
     13  N         30.7810   35.5950   18.6460 N.am  128  GLY128     -0.1942
     14  CA        30.6680   35.0690   20.0120 C.3   128  GLY128      0.2014
     15  C         30.5510   36.1270   21.0990 C.2   128  GLY128      0.2639
     16  O         30.9210   37.2820   20.8990 O.2   128  GLY128     -0.2714
     17  N         30.0020   35.7470   22.2520 N.am  129  HIS129     -0.1959
     18  CA        29.9500   36.6550   23.3940 C.3   129  HIS129      0.1787
     19  C         31.2730   36.7760   24.1590 C.2   129  HIS129      0.2620
     20  O         32.1140   35.8980   24.1080 O.2   129  HIS129     -0.2715
     21  CB        28.8220   36.2870   24.3640 C.3   129  HIS129      0.0785
     22  CG        28.4430   37.4170   25.2770 C.ar  129  HIS129      0.0821
     23  ND1       28.5670   37.3370   26.6430 N.ar  129  HIS129     -0.2267
     24  CD2       28.0300   38.6830   25.0110 C.ar  129  HIS129      0.1154
     25  CE1       28.2190   38.4900   27.1860 C.ar  129  HIS129      0.1986
     26  NE2       27.8870   39.3240   26.2140 N.ar  129  HIS129     -0.2212
     27  N         31.4280   37.8940   24.8630 N.am  130  LEU130     -0.1977
     28  CA        32.5390   38.1000   25.8000 C.3   130  LEU130      0.1596
     29  C         32.6890   36.9600   26.7900 C.2   130  LEU130      0.2287
     30  O         33.8080   36.5270   27.0460 O.2   130  LEU130     -0.2864
     31  CB        32.3750   39.4160   26.5800 C.3   130  LEU130      0.0297
     32  CG        32.5390   40.7000   25.7580 C.3   130  LEU130      0.0022
     33  CD1       32.2550   41.9120   26.6170 C.3   130  LEU130      0.0001
     34  CD2       33.9320   40.8260   25.1570 C.3   130  LEU130      0.0001
     35  N         36.4110   35.0910   25.8490 N.3   134  PHE134     -0.1241
     36  CA        37.1010   36.0680   25.0150 C.3   134  PHE134      0.1605
     37  C         38.3740   36.6340   25.6450 C.2   134  PHE134      0.2264
     38  O         38.3640   37.0830   26.7970 O.2   134  PHE134     -0.2867
     39  CB        36.2070   37.2330   24.6180 C.3   134  PHE134      0.0534
     40  CG        36.9390   38.2840   23.8350 C.ar  134  PHE134     -0.0203
     41  CD1       37.4530   37.9880   22.5650 C.ar  134  PHE134     -0.0042
     42  CD2       37.1900   39.5390   24.3880 C.ar  134  PHE134     -0.0042
     43  CE1       38.1630   38.9370   21.8500 C.ar  134  PHE134     -0.0003
     44  CE2       37.9070   40.4880   23.6690 C.ar  134  PHE134     -0.0003
     45  CZ        38.3860   40.1860   22.3970 C.ar  134  PHE134     -0.0000
     46  N         42.4760   38.5340   24.0660 N.3   136  ASP136     -0.1239
     47  CA        43.3330   38.9660   22.9490 C.3   136  ASP136      0.1674
     48  C         44.8230   38.7750   23.2990 C.2   136  ASP136      0.2266
     49  O         45.1660   38.3800   24.4160 O.2   136  ASP136     -0.2867
     50  CB        42.9870   40.4160   22.5140 C.3   136  ASP136      0.1410
     51  CG        43.7230   41.5040   23.3120 C.2   136  ASP136      0.3668
     52  OD1       44.0870   41.3110   24.4930 O.co2 136  ASP136     -0.2456
     53  OD2       43.9340   42.5910   22.7330 O.co2 136  ASP136     -0.2456
     54  N         40.5160   39.5720   28.5360 N.3   141  VAL141     -0.1245
     55  CA        39.4890   40.6160   28.5610 C.3   141  VAL141      0.1561
     56  C         38.2760   40.1880   29.4030 C.2   141  VAL141      0.2260
     57  O         37.7150   40.9900   30.1600 O.2   141  VAL141     -0.2867
     58  CB        39.0380   40.9500   27.1110 C.3   141  VAL141      0.0252
     59  CG1       37.8350   41.8840   27.0760 C.3   141  VAL141      0.0019
     60  CG2       40.2040   41.5390   26.3200 C.3   141  VAL141      0.0019
     61  N         26.1400   36.1050   19.8750 N.3   183  THR183     -0.1203
     62  CA        25.5810   37.4780   20.0260 C.3   183  THR183      0.1994
     63  C         25.3110   38.1720   18.7020 C.2   183  THR183      0.2618
     64  O         24.2830   38.8310   18.5640 O.2   183  THR183     -0.2717
     65  CB        26.3850   38.4150   20.9670 C.3   183  THR183      0.1784
     66  OG1       26.9880   39.5080   20.2570 O.3   183  THR183     -0.2211
     67  CG2       27.4070   37.6880   21.7110 C.3   183  THR183      0.0376
     68  N         26.2150   37.9970   17.7380 N.am  184  SER184     -0.1951
     69  CA        26.1180   38.6370   16.4200 C.3   184  SER184      0.1924
     70  C         26.2090   37.6250   15.2900 C.2   184  SER184      0.2314
     71  O         26.8110   37.9010   14.2530 O.2   184  SER184     -0.2863
     72  CB        27.2310   39.6880   16.2840 C.3   184  SER184      0.2116
     73  OG        27.2570   40.4980   17.4350 O.3   184  SER184     -0.2180
     74  N         24.3040   49.1580   16.6560 N.3   354  ASN354     -0.1225
     75  CA        25.6560   49.0770   17.1450 C.3   354  ASN354      0.1785
     76  C         26.6560   48.7190   16.0710 C.2   354  ASN354      0.2597
     77  O         26.3410   48.0030   15.1140 O.2   354  ASN354     -0.2718
     78  CB        25.7770   48.1380   18.3580 C.3   354  ASN354      0.1169
     79  CG        25.5110   46.6960   18.0250 C.2   354  ASN354      0.2627
     80  OD1       24.3770   46.2370   18.1230 O.2   354  ASN354     -0.2716
     81  ND2       26.5420   45.9820   17.6080 N.am  354  ASN354     -0.0877
     82  N         27.8570   49.2540   16.2460 N.am  355  LYS355     -0.1966
     83  CA        29.0220   48.8410   15.4920 C.3   355  LYS355      0.1728
     84  C         29.3370   47.3880   15.7910 C.2   355  LYS355      0.2616
     85  O         29.0780   46.8900   16.8850 O.2   355  LYS355     -0.2715
     86  CB        30.2530   49.7300   15.7520 C.3   355  LYS355      0.0311
     87  CG        30.4830   50.1710   17.1890 C.3   355  LYS355      0.0038
     88  CD        31.9400   50.5130   17.4550 C.3   355  LYS355      0.0206
     89  CE        32.0940   51.4110   18.6720 C.3   355  LYS355      0.1093
     90  NZ        33.2130   50.9650   19.5380 N.3   355  LYS355     -0.1314
     91  N         29.8900   46.6980   14.8050 N.am  356  ASN356     -0.1958
     92  CA        30.0540   45.2530   14.9180 C.3   356  ASN356      0.1819
     93  C         31.1460   44.8210   13.9930 C.2   356  ASN356      0.2621
     94  O         31.2780   45.3440   12.8960 O.2   356  ASN356     -0.2715
     95  CB        28.7410   44.5440   14.5830 C.3   356  ASN356      0.1195
     96  CG        28.5840   43.2170   15.3170 C.2   356  ASN356      0.2630
     97  OD1       27.9130   43.1350   16.3540 O.2   356  ASN356     -0.2716
     98  ND2       29.2180   42.1850   14.8040 N.am  356  ASN356     -0.0877
     99  N         31.9460   43.8680   14.4380 N.am  357  THR357     -0.1951
    100  CA        32.9540   43.2700   13.5770 C.3   357  THR357      0.1897
    101  C         32.3480   42.4270   12.4480 C.2   357  THR357      0.2313
    102  O         31.1330   42.1070   12.4490 O.2   357  THR357     -0.2863
    103  CB        33.8420   42.3630   14.3950 C.3   357  THR357      0.1794
    104  OG1       32.9910   41.4750   15.1220 O.3   357  THR357     -0.2208
    105  CG2       34.7070   43.1890   15.3570 C.3   357  THR357      0.0378
    106  N         39.2090   45.4450   16.7190 N.3   364  CYS364     -0.1221
    107  CA        37.9550   46.0350   17.2160 C.3   364  CYS364      0.1808
    108  C         38.0530   47.5570   17.3740 C.2   364  CYS364      0.2601
    109  O         37.0690   48.2070   17.7460 O.2   364  CYS364     -0.2717
    110  CB        37.5660   45.4040   18.5520 C.3   364  CYS364      0.0970
    111  SG        37.4100   43.6100   18.4470 S.3   364  CYS364     -0.0800
    112  N         39.2380   48.1160   17.1110 N.am  365  VAL365     -0.1979
    113  CA        39.4230   49.5690   17.0450 C.3   365  VAL365      0.1595
    114  C         38.6830   50.1250   15.8260 C.2   365  VAL365      0.2287
    115  O         38.1120   51.2120   15.9040 O.2   365  VAL365     -0.2864
    116  CB        40.9120   50.0200   16.9760 C.3   365  VAL365      0.0276
    117  CG1       41.0290   51.4820   17.4160 C.3   365  VAL365      0.0022
    118  CG2       41.8360   49.1430   17.8300 C.3   365  VAL365      0.0022
    119  N         35.8630   48.5090   13.5930 N.3   367  PRO367     -0.2116
    120  CA        34.9310   47.4960   13.0810 C.3   367  PRO367      0.1372
    121  C         34.2960   47.9060   11.7530 C.2   367  PRO367      0.2244
    122  O         33.9250   49.0690   11.5700 O.2   367  PRO367     -0.2868
    123  CB        33.8690   47.3980   14.1830 C.3   367  PRO367      0.0268
    124  CG        33.8900   48.7330   14.8310 C.3   367  PRO367      0.0207
    125  CD        35.3280   49.1800   14.7900 C.3   367  PRO367      0.0892
    126  N         25.5730   45.8120   13.3010 N.3   371  ARG371     -0.1245
    127  CA        24.5350   44.8500   13.5170 C.3   371  ARG371      0.1563
    128  C         23.2160   45.5950   13.7160 C.2   371  ARG371      0.2260
    129  O         23.1760   46.6350   14.4000 O.2   371  ARG371     -0.2867
    130  CB        24.8720   43.9900   14.7290 C.3   371  ARG371      0.0307
    131  CG        23.8130   42.9640   15.1060 C.3   371  ARG371      0.0489
    132  CD        24.1070   42.3430   16.4540 C.3   371  ARG371      0.2205
    133  NE        23.8210   43.2650   17.5530 N.pl3 371  ARG371     -0.0865
    134  CZ        23.8130   42.9530   18.8460 C.cat 371  ARG371      0.5346
    135  NH1       24.0890   41.7040   19.2560 N.pl3 371  ARG371      0.1354
    136  NH2       23.5200   43.9000   19.7330 N.pl3 371  ARG371      0.1354
@<TRIPOS>BOND
     1   122   121    2
     2   121   120    1
     3   101   102    2
     4   101   100    1
     5    94    93    2
     6   120   119    1
     7   120   123    1
     8   126   127    1
     9   127   128    1
    10   127   130    1
    11   100   103    1
    12   100    99    1
    13   119   125    1
    14   128   129    2
    15    93    99   am
    16    93    92    1
    17   123   124    1
    18    71    70    2
    19   103   104    1
    20   103   105    1
    21    95    92    1
    22    95    96    1
    23   130   131    1
    24   125   124    1
    25    98    96   am
    26    91    92    1
    27    91    84   am
    28   131   132    1
    29    77    76    2
    30    70    69    1
    31    96    97    2
    32    83    86    1
    33    83    84    1
    34    83    82    1
    35    86    87    1
    36    84    85    2
    37   114   115    2
    38   114   113    1
    39    76    82   am
    40    76    75    1
    41     9    10    1
    42    72    69    1
    43    72    73    1
    44    69    68    1
    45   132   133    1
    46    10    11    1
    47    74    75    1
    48   106   107    1
    49   116   113    1
    50   116   117    1
    51   116   118    1
    52   113   112    1
    53   112   108   am
    54    75    78    1
    55    87    88    1
    56   107   108    1
    57   107   110    1
    58   108   109    2
    59    88    89    1
    60   133   134    2
    61    81    79   am
    62    68    63   am
    63     4     3    2
    64    11    12    2
    65    11    13   am
    66    79    80    2
    67    79    78    1
    68     3     2    1
    69   111   110    1
    70    64    63    2
    71    13    14    1
    72    89    90    1
    73    63    62    1
    74   134   135    1
    75   134   136    1
    76     1     2    1
    77     2     5    1
    78    61    62    1
    79    14    15    1
    80    62    65    1
    81    66    65    1
    82     5     6    1
    83     6     8    1
    84     6     7    1
    85    16    15    2
    86    65    67    1
    87    15    17   am
    88    43    45   ar
    89    43    41   ar
    90    17    18    1
    91    45    44   ar
    92    50    47    1
    93    50    51    1
    94    41    40   ar
    95    53    51   ar
    96    47    48    1
    97    47    46    1
    98    48    49    2
    99    51    52   ar
   100    18    19    1
   101    18    21    1
   102    44    42   ar
   103    40    42   ar
   104    40    39    1
   105    20    19    2
   106    19    27   am
   107    21    22    1
   108    39    36    1
   109    27    28    1
   110    24    22   ar
   111    24    26   ar
   112    36    37    1
   113    36    35    1
   114    34    32    1
   115    22    23   ar
   116    37    38    2
   117    32    31    1
   118    32    33    1
   119    28    31    1
   120    28    29    1
   121    26    25   ar
   122    60    58    1
   123    23    25   ar
   124    29    30    2
   125    59    58    1
   126    58    55    1
   127    54    55    1
   128    55    56    1
   129    56    57    2
