@<TRIPOS>MOLECULE
tmp/5gvnB01.pdb
 136 129 0 0 0
SMALL
GASTEIGER

@<TRIPOS>ATOM
      1  N        -32.9800   33.2920   59.3190 N.3   124  LEU124     -0.1245
      2  CA       -31.5080   33.4010   59.3360 C.3   124  LEU124      0.1561
      3  C        -30.9030   33.2820   57.9450 C.2   124  LEU124      0.2260
      4  O        -30.1170   34.1370   57.5420 O.2   124  LEU124     -0.2867
      5  CB       -30.8940   32.3370   60.2650 C.3   124  LEU124      0.0270
      6  CG       -29.3670   32.3190   60.4840 C.3   124  LEU124      0.0019
      7  CD1      -28.9480   33.3830   61.4850 C.3   124  LEU124      0.0001
      8  CD2      -28.8630   30.9610   60.9540 C.3   124  LEU124      0.0001
      9  N        -31.0320   36.3070   55.7230 N.3   127  GLY127     -0.1210
     10  CA       -30.3400   37.4990   56.2090 C.3   127  GLY127      0.1956
     11  C        -30.8210   38.0230   57.5470 C.2   127  GLY127      0.2612
     12  O        -30.3450   39.0450   58.0010 O.2   127  GLY127     -0.2717
     13  N        -31.7500   37.3200   58.1860 N.am  128  GLY128     -0.1942
     14  CA       -32.1670   37.6540   59.5380 C.3   128  GLY128      0.2014
     15  C        -31.1110   37.3000   60.5730 C.2   128  GLY128      0.2639
     16  O        -30.1440   36.5910   60.2680 O.2   128  GLY128     -0.2714
     17  N        -31.2700   37.8540   61.7810 N.am  129  HIS129     -0.1959
     18  CA       -30.4440   37.5050   62.9230 C.3   129  HIS129      0.1787
     19  C        -31.0280   36.3470   63.7140 C.2   129  HIS129      0.2620
     20  O        -32.2060   36.0120   63.5870 O.2   129  HIS129     -0.2715
     21  CB       -30.2530   38.7060   63.8450 C.3   129  HIS129      0.0785
     22  CG       -29.0980   38.5490   64.7880 C.ar  129  HIS129      0.0821
     23  ND1      -29.2580   38.5150   66.1520 N.ar  129  HIS129     -0.2267
     24  CD2      -27.7820   38.3240   64.5590 C.ar  129  HIS129      0.1154
     25  CE1      -28.0870   38.2980   66.7270 C.ar  129  HIS129      0.1986
     26  NE2      -27.1730   38.1960   65.7800 N.ar  129  HIS129     -0.2212
     27  N        -30.1680   35.7400   64.5290 N.am  130  LEU130     -0.1977
     28  CA       -30.5570   34.6900   65.4940 C.3   130  LEU130      0.1596
     29  C        -31.6420   35.1510   66.4770 C.2   130  LEU130      0.2287
     30  O        -32.6060   34.4370   66.7120 O.2   130  LEU130     -0.2864
     31  CB       -29.3230   34.2230   66.2620 C.3   130  LEU130      0.0297
     32  CG       -28.2500   33.5700   65.3860 C.3   130  LEU130      0.0022
     33  CD1      -26.9400   33.5030   66.1360 C.3   130  LEU130      0.0001
     34  CD2      -28.6970   32.1770   64.9700 C.3   130  LEU130      0.0001
     35  N        -35.0920   32.7990   65.3430 N.3   134  PHE134     -0.1241
     36  CA       -34.5660   31.6780   64.5920 C.3   134  PHE134      0.1605
     37  C        -34.7970   30.3500   65.2830 C.2   134  PHE134      0.2264
     38  O        -34.4120   30.1800   66.4400 O.2   134  PHE134     -0.2867
     39  CB       -33.0670   31.8040   64.3280 C.3   134  PHE134      0.0534
     40  CG       -32.5310   30.6660   63.5220 C.ar  134  PHE134     -0.0203
     41  CD1      -33.0120   30.4380   62.2300 C.ar  134  PHE134     -0.0042
     42  CD2      -31.6220   29.7830   64.0610 C.ar  134  PHE134     -0.0042
     43  CE1      -32.5590   29.3690   61.4780 C.ar  134  PHE134     -0.0003
     44  CE2      -31.1680   28.7050   63.3120 C.ar  134  PHE134     -0.0003
     45  CZ       -31.6330   28.5030   62.0170 C.ar  134  PHE134     -0.0000
     46  N        -35.1730   25.8100   63.9990 N.3   136  ASP136     -0.1239
     47  CA       -34.9090   24.7490   63.0270 C.3   136  ASP136      0.1674
     48  C        -35.8610   23.5930   63.3680 C.2   136  ASP136      0.2266
     49  O        -36.2600   23.4600   64.5220 O.2   136  ASP136     -0.2867
     50  CB       -33.4440   24.3030   63.1940 C.3   136  ASP136      0.1410
     51  CG       -32.8730   23.6060   61.9770 C.2   136  ASP136      0.3668
     52  OD1      -33.6160   23.2610   61.0300 O.co2 136  ASP136     -0.2456
     53  OD2      -31.6420   23.3960   61.9780 O.co2 136  ASP136     -0.2456
     54  N        -33.3220   27.0320   68.1870 N.3   141  VAL141     -0.1245
     55  CA       -31.9040   27.3860   68.2450 C.3   141  VAL141      0.1561
     56  C        -31.6670   28.6650   69.0650 C.2   141  VAL141      0.2260
     57  O        -30.6940   28.7680   69.8110 O.2   141  VAL141     -0.2867
     58  CB       -31.3430   27.5300   66.8000 C.3   141  VAL141      0.0252
     59  CG1      -29.9460   28.1440   66.7740 C.3   141  VAL141      0.0019
     60  CG2      -31.3400   26.1720   66.0970 C.3   141  VAL141      0.0019
     61  N        -29.0620   41.1100   59.2810 N.3   183  THR183     -0.1203
     62  CA       -27.6070   40.8780   59.4720 C.3   183  THR183      0.1994
     63  C        -26.8260   40.8700   58.1650 C.2   183  THR183      0.2618
     64  O        -25.7300   41.4050   58.1030 O.2   183  THR183     -0.2717
     65  CB       -27.2310   39.6390   60.3200 C.3   183  THR183      0.1784
     66  OG1      -26.8180   38.5470   59.4890 O.3   183  THR183     -0.2211
     67  CG2      -28.3170   39.2380   61.2210 C.3   183  THR183      0.0376
     68  N        -27.4100   40.2920   57.1270 N.am  184  SER184     -0.1951
     69  CA       -26.7640   40.1910   55.8190 C.3   184  SER184      0.1924
     70  C        -27.7740   40.5490   54.7380 C.2   184  SER184      0.2314
     71  O        -28.1080   39.7340   53.8850 O.2   184  SER184     -0.2863
     72  CB       -26.2130   38.7590   55.6110 C.3   184  SER184      0.2116
     73  OG       -25.7540   38.1910   56.8350 O.3   184  SER184     -0.2180
     74  N        -16.8720   36.1430   55.7780 N.3   354  ASN354     -0.1225
     75  CA       -17.6240   35.0190   56.2680 C.3   354  ASN354      0.1785
     76  C        -18.4750   34.4320   55.1840 C.2   354  ASN354      0.2597
     77  O        -18.8950   35.1200   54.2780 O.2   354  ASN354     -0.2718
     78  CB       -18.4510   35.3640   57.5210 C.3   354  ASN354      0.1169
     79  CG       -19.5410   36.3780   57.2550 C.2   354  ASN354      0.2627
     80  OD1      -19.3140   37.5860   57.3270 O.2   354  ASN354     -0.2716
     81  ND2      -20.7200   35.8930   56.9280 N.am  354  ASN354     -0.0877
     82  N        -18.6730   33.1290   55.2840 N.am  355  LYS355     -0.1966
     83  CA       -19.6470   32.4090   54.5030 C.3   355  LYS355      0.1728
     84  C        -21.0420   32.8880   54.8660 C.2   355  LYS355      0.2616
     85  O        -21.2950   33.3080   55.9970 O.2   355  LYS355     -0.2715
     86  CB       -19.5430   30.8830   54.7240 C.3   355  LYS355      0.0311
     87  CG       -19.4440   30.4560   56.1860 C.3   355  LYS355      0.0038
     88  CD       -19.8360   29.0040   56.4270 C.3   355  LYS355      0.0206
     89  CE       -19.0620   28.4230   57.6010 C.3   355  LYS355      0.1093
     90  NZ       -19.9680   27.8080   58.6040 N.3   355  LYS355     -0.1314
     91  N        -21.9520   32.8030   53.9060 N.am  356  ASN356     -0.1958
     92  CA       -23.2520   33.4100   54.0590 C.3   356  ASN356      0.1819
     93  C        -24.2210   32.7790   53.0970 C.2   356  ASN356      0.2621
     94  O        -23.9180   32.6340   51.9190 O.2   356  ASN356     -0.2715
     95  CB       -23.1430   34.9220   53.7870 C.3   356  ASN356      0.1195
     96  CG       -24.2500   35.7200   54.4750 C.2   356  ASN356      0.2630
     97  OD1      -24.0360   36.2840   55.5500 O.2   356  ASN356     -0.2716
     98  ND2      -25.4390   35.7020   53.9060 N.am  356  ASN356     -0.0877
     99  N        -25.3990   32.4220   53.5830 N.am  357  THR357     -0.1951
    100  CA       -26.4580   31.8980   52.7170 C.3   357  THR357      0.1897
    101  C        -26.8630   32.8650   51.5840 C.2   357  THR357      0.2313
    102  O        -26.6140   34.0680   51.6490 O.2   357  THR357     -0.2863
    103  CB       -27.7130   31.5600   53.5340 C.3   357  THR357      0.1794
    104  OG1      -28.0500   32.6920   54.3450 O.3   357  THR357     -0.2208
    105  CG2      -27.4660   30.3520   54.4340 C.3   357  THR357      0.0378
    106  N        -29.0530   26.3200   56.0790 N.3   364  CYS364     -0.1221
    107  CA       -27.7840   26.9670   56.4960 C.3   364  CYS364      0.1808
    108  C        -26.5740   25.9830   56.5270 C.2   364  CYS364      0.2601
    109  O        -25.4970   26.3290   57.0370 O.2   364  CYS364     -0.2717
    110  CB       -27.9560   27.6440   57.8710 C.3   364  CYS364      0.0970
    111  SG       -28.5300   29.3630   57.8180 S.3   364  CYS364     -0.0800
    112  N        -26.7430   24.7880   55.9460 N.am  365  VAL365     -0.1979
    113  CA       -25.7950   23.6670   56.0950 C.3   365  VAL365      0.1595
    114  C        -24.6040   23.8730   55.1560 C.2   365  VAL365      0.2287
    115  O        -23.4540   23.7350   55.5700 O.2   365  VAL365     -0.2864
    116  CB       -26.4660   22.2870   55.8100 C.3   365  VAL365      0.0276
    117  CG1      -25.4620   21.1440   55.9600 C.3   365  VAL365      0.0022
    118  CG2      -27.6600   22.0420   56.7390 C.3   365  VAL365      0.0022
    119  N        -23.7530   27.0830   52.9360 N.3   367  PRO367     -0.2116
    120  CA       -23.9980   28.4030   52.3430 C.3   367  PRO367      0.1372
    121  C        -23.1980   28.6090   51.0530 C.2   367  PRO367      0.2244
    122  O        -21.9870   28.3470   51.0160 O.2   367  PRO367     -0.2868
    123  CB       -23.5620   29.3930   53.4410 C.3   367  PRO367      0.0268
    124  CG       -22.7230   28.6050   54.3760 C.3   367  PRO367      0.0207
    125  CD       -23.2190   27.1900   54.3040 C.3   367  PRO367      0.0892
    126  N        -20.1820   36.9560   52.5290 N.3   371  ARG371     -0.1245
    127  CA       -20.5190   38.3100   52.7750 C.3   371  ARG371      0.1563
    128  C        -19.2530   39.1200   53.0450 C.2   371  ARG371      0.2260
    129  O        -18.3770   38.7100   53.8350 O.2   371  ARG371     -0.2867
    130  CB       -21.4650   38.3630   53.9640 C.3   371  ARG371      0.0307
    131  CG       -21.9120   39.7360   54.3810 C.3   371  ARG371      0.0489
    132  CD       -22.6410   39.6290   55.7060 C.3   371  ARG371      0.2205
    133  NE       -21.7030   39.4310   56.7990 N.pl3 371  ARG371     -0.0865
    134  CZ       -21.9790   39.5600   58.0850 C.cat 371  ARG371      0.5346
    135  NH1      -23.1970   39.9040   58.4970 N.pl3 371  ARG371      0.1354
    136  NH2      -21.0140   39.3570   58.9690 N.pl3 371  ARG371      0.1354
@<TRIPOS>BOND
     1   122   121    2
     2   121   120    1
     3   101   102    2
     4   101   100    1
     5    94    93    2
     6   120   119    1
     7   120   123    1
     8   126   127    1
     9   100   103    1
    10   100    99    1
    11   127   128    1
    12   127   130    1
    13   119   125    1
    14   128   129    2
    15    93    99   am
    16    93    92    1
    17   123   124    1
    18   103   104    1
    19   103   105    1
    20    95    92    1
    21    95    96    1
    22    71    70    2
    23    91    92    1
    24    91    84   am
    25    98    96   am
    26   130   131    1
    27    77    76    2
    28   125   124    1
    29   131   132    1
    30    96    97    2
    31    83    86    1
    32    83    84    1
    33    83    82    1
    34    86    87    1
    35    70    69    1
    36    84    85    2
    37   114   115    2
    38   114   113    1
    39    76    82   am
    40    76    75    1
    41    72    69    1
    42    72    73    1
    43   132   133    1
    44     9    10    1
    45    74    75    1
    46   116   117    1
    47   116   113    1
    48   116   118    1
    49    69    68    1
    50   112   113    1
    51   112   108   am
    52   106   107    1
    53    87    88    1
    54    10    11    1
    55    75    78    1
    56    88    89    1
    57   107   108    1
    58   107   110    1
    59   108   109    2
    60   133   134    2
    61    81    79   am
    62    68    63   am
    63    79    80    2
    64    79    78    1
    65     4     3    2
    66    11    12    2
    67    11    13   am
    68    89    90    1
    69   111   110    1
    70     3     2    1
    71   134   135    1
    72   134   136    1
    73    64    63    2
    74    63    62    1
    75    13    14    1
    76    61    62    1
    77     1     2    1
    78     2     5    1
    79    62    65    1
    80    66    65    1
    81    14    15    1
    82     5     6    1
    83    16    15    2
    84    65    67    1
    85     6     8    1
    86     6     7    1
    87    15    17   am
    88    52    51   ar
    89    43    45   ar
    90    43    41   ar
    91    17    18    1
    92    51    53   ar
    93    51    50    1
    94    45    44   ar
    95    41    40   ar
    96    18    19    1
    97    18    21    1
    98    47    50    1
    99    47    48    1
   100    47    46    1
   101    44    42   ar
   102    48    49    2
   103    40    42   ar
   104    40    39    1
   105    20    19    2
   106    19    27   am
   107    21    22    1
   108    39    36    1
   109    27    28    1
   110    24    22   ar
   111    24    26   ar
   112    36    37    1
   113    36    35    1
   114    22    23   ar
   115    34    32    1
   116    37    38    2
   117    32    33    1
   118    32    31    1
   119    28    31    1
   120    28    29    1
   121    26    25   ar
   122    60    58    1
   123    23    25   ar
   124    29    30    2
   125    59    58    1
   126    58    55    1
   127    54    55    1
   128    55    56    1
   129    56    57    2
