@<TRIPOS>MOLECULE
tmp/5gvpC01.pdb
 129 122 0 0 0
SMALL
GASTEIGER

@<TRIPOS>ATOM
      1  N          1.9150   35.3400   19.1540 N.3   124  LEU124     -0.1245
      2  CA         2.5810   34.0120   19.1390 C.3   124  LEU124      0.1561
      3  C          3.0320   33.5520   20.5180 C.2   124  LEU124      0.2260
      4  O          2.7050   32.4450   20.9450 O.2   124  LEU124     -0.2867
      5  CB         3.8000   34.0290   18.2100 C.3   124  LEU124      0.0270
      6  CG         4.6060   32.7310   18.0160 C.3   124  LEU124      0.0019
      7  CD1        3.9510   31.8160   16.9870 C.3   124  LEU124      0.0001
      8  CD2        6.0400   33.0470   17.6010 C.3   124  LEU124      0.0001
      9  N          0.2850   32.2720   22.7920 N.3   127  GLY127     -0.1210
     10  CA        -0.4590   31.0920   22.3270 C.3   127  GLY127      0.1956
     11  C         -1.0700   31.2170   20.9320 C.2   127  GLY127      0.2612
     12  O         -1.5970   30.2550   20.4210 O.2   127  GLY127     -0.2717
     13  N         -0.9820   32.3820   20.3020 N.am  128  GLY128     -0.1942
     14  CA        -1.4870   32.5520   18.9470 C.3   128  GLY128      0.2014
     15  C         -0.6470   31.8270   17.9070 C.2   128  GLY128      0.2639
     16  O          0.4750   31.4230   18.1880 O.2   128  GLY128     -0.2714
     17  N         -1.2150   31.6160   16.7210 N.am  129  HIS129     -0.1959
     18  CA        -0.4760   31.0660   15.6000 C.3   129  HIS129      0.1787
     19  C          0.2450   32.1530   14.8140 C.2   129  HIS129      0.2620
     20  O         -0.0850   33.3270   14.8960 O.2   129  HIS129     -0.2715
     21  CB        -1.3690   30.2250   14.6790 C.3   129  HIS129      0.0785
     22  CG        -0.5910   29.3680   13.7200 C.ar  129  HIS129      0.0821
     23  ND1       -0.6200   29.5710   12.3620 N.ar  129  HIS129     -0.2267
     24  CD2        0.3000   28.3660   13.9280 C.ar  129  HIS129      0.1154
     25  CE1        0.1980   28.7230   11.7680 C.ar  129  HIS129      0.1986
     26  NE2        0.7590   27.9700   12.6950 N.ar  129  HIS129     -0.2212
     27  N          1.2730   31.7190   14.0910 N.am  130  LEU130     -0.1977
     28  CA         1.9930   32.5520   13.1260 C.3   130  LEU130      0.1596
     29  C          1.0560   33.2670   12.1610 C.2   130  LEU130      0.2287
     30  O          1.1390   34.4810   11.9960 O.2   130  LEU130     -0.2864
     31  CB         2.9700   31.6880   12.3210 C.3   130  LEU130      0.0297
     32  CG         4.1550   31.1350   13.1140 C.3   130  LEU130      0.0022
     33  CD1        4.9390   30.1740   12.2400 C.3   130  LEU130      0.0001
     34  CD2        5.0750   32.2530   13.5870 C.3   130  LEU130      0.0001
     35  N          1.3820   37.3390   13.2360 N.3   134  PHE134     -0.1241
     36  CA         2.6310   37.4540   13.9630 C.3   134  PHE134      0.1605
     37  C          3.7060   38.3180   13.2990 C.2   134  PHE134      0.2264
     38  O          4.0670   38.0960   12.1470 O.2   134  PHE134     -0.2867
     39  CB         3.2620   36.1040   14.2690 C.3   134  PHE134      0.0534
     40  CG         4.4730   36.2390   15.1180 C.ar  134  PHE134     -0.0203
     41  CD1        4.3760   36.8110   16.3900 C.ar  134  PHE134     -0.0042
     42  CD2        5.7150   35.9130   14.6250 C.ar  134  PHE134     -0.0042
     43  CE1        5.5000   36.9990   17.1710 C.ar  134  PHE134     -0.0003
     44  CE2        6.8410   36.1000   15.4020 C.ar  134  PHE134     -0.0003
     45  CZ         6.7320   36.6400   16.6820 C.ar  134  PHE134     -0.0000
     46  N          7.4340   40.7960   14.8390 N.3   136  ASP136     -0.1239
     47  CA         8.3460   41.1940   15.9260 C.3   136  ASP136      0.1674
     48  C          8.8230   42.6090   15.5650 C.2   136  ASP136      0.2266
     49  O          8.6380   43.0410   14.4330 O.2   136  ASP136     -0.2867
     50  CB         9.5350   40.2030   16.0160 C.3   136  ASP136      0.1410
     51  CG        10.4350   40.4300   17.2540 C.2   136  ASP136      0.3668
     52  OD1        9.9450   40.9210   18.3000 O.co2 136  ASP136     -0.2456
     53  OD2       11.6490   40.1090   17.1880 O.co2 136  ASP136     -0.2456
     54  N          7.1940   38.6810   10.4250 N.3   141  VAL141     -0.1245
     55  CA         7.6320   37.2900   10.3360 C.3   141  VAL141      0.1561
     56  C          6.6430   36.4460    9.5130 C.2   141  VAL141      0.2260
     57  O          7.0430   35.5610    8.7670 O.2   141  VAL141     -0.2867
     58  CB         7.8140   36.6870   11.7600 C.3   141  VAL141      0.0252
     59  CG1        8.1180   35.1920   11.7210 C.3   141  VAL141      0.0019
     60  CG2        8.9140   37.4230   12.5110 C.3   141  VAL141      0.0019
     61  N         -2.7790   28.0970   19.1790 N.3   183  THR183     -0.1203
     62  CA        -1.8590   26.9440   19.0240 C.3   183  THR183      0.1994
     63  C         -1.4840   26.3210   20.3630 C.2   183  THR183      0.2618
     64  O         -1.4800   25.1060   20.4760 O.2   183  THR183     -0.2717
     65  CB        -0.6150   27.1890   18.1220 C.3   183  THR183      0.1784
     66  OG1        0.6180   27.1370   18.8590 O.3   183  THR183     -0.2211
     67  CG2       -0.7170   28.4430   17.3850 C.3   183  THR183      0.0376
     68  N         -1.2460   27.1550   21.3760 N.am  184  SER184     -0.1951
     69  CA        -0.8300   26.7010   22.7050 C.3   184  SER184      0.1924
     70  C         -1.7010   27.3410   23.7980 C.2   184  SER184      0.2314
     71  O         -1.2120   28.0330   24.6960 O.2   184  SER184     -0.2863
     72  CB         0.6550   27.0360   22.9240 C.3   184  SER184      0.2116
     73  OG         1.4020   26.9010   21.7220 O.3   184  SER184     -0.2180
     74  N          7.5150   19.9160   22.6360 N.3   354  ASN354     -0.1225
     75  CA         8.1390   21.1280   22.1500 C.3   354  ASN354      0.1785
     76  C          8.2460   22.1670   23.2160 C.2   354  ASN354      0.2597
     77  O          7.4280   22.2390   24.1170 O.2   354  ASN354     -0.2718
     78  CB         7.4380   21.6970   20.9010 C.3   354  ASN354      0.1169
     79  CG         6.0020   22.0890   21.1550 C.2   354  ASN354      0.2627
     80  OD1        5.1050   21.2740   21.0020 O.2   354  ASN354     -0.2716
     81  ND2        5.7900   23.3130   21.5770 N.am  354  ASN354     -0.0877
     82  N          9.3090   22.9420   23.1030 N.am  355  LYS355     -0.1966
     83  CA         9.4810   24.1760   23.8150 C.3   355  LYS355      0.1728
     84  C          8.3460   25.1510   23.5310 C.2   355  LYS355      0.2616
     85  O          7.7950   25.2020   22.4240 O.2   355  LYS355     -0.2715
     86  CB        10.8340   24.8300   23.4530 C.3   355  LYS355      0.0311
     87  CG        11.1020   25.0450   21.9600 C.3   355  LYS355      0.0038
     88  CD        12.3700   25.8740   21.7380 C.3   355  LYS355      0.0206
     89  CE        13.1490   25.4230   20.5130 C.3   355  LYS355      0.1093
     90  NZ        13.7970   26.5660   19.8190 N.3   355  LYS355     -0.1314
     91  N          8.0150   25.9530   24.5330 N.am  356  ASN356     -0.1958
     92  CA         6.8530   26.8120   24.4300 C.3   356  ASN356      0.1819
     93  C          6.9600   27.9660   25.3800 C.2   356  ASN356      0.2621
     94  O          7.3280   27.7940   26.5480 O.2   356  ASN356     -0.2715
     95  CB         5.5780   26.0120   24.7100 C.3   356  ASN356      0.1195
     96  CG         4.3650   26.5920   24.0020 C.2   356  ASN356      0.2630
     97  OD1        4.0370   26.1870   22.8780 O.2   356  ASN356     -0.2716
     98  ND2        3.7320   27.5660   24.6230 N.am  356  ASN356     -0.0877
     99  N          6.6110   29.1460   24.8850 N.am  357  THR357     -0.1951
    100  CA         6.5640   30.3560   25.7090 C.3   357  THR357      0.1897
    101  C          5.5440   30.2390   26.8470 C.2   357  THR357      0.2313
    102  O          4.6710   29.3640   26.8130 O.2   357  THR357     -0.2863
    103  CB         6.1900   31.5620   24.8390 C.3   357  THR357      0.1794
    104  OG1        5.0050   31.2420   24.0890 O.3   357  THR357     -0.2208
    105  CG2        7.3380   31.8950   23.8780 C.3   357  THR357      0.0378
    106  N         10.3790   35.8840   22.9200 N.3   364  CYS364     -0.1235
    107  CA        10.3960   34.4840   22.4650 C.3   364  CYS364      0.1677
    108  C         11.8200   33.8540   22.4300 C.2   364  CYS364      0.2270
    109  O         11.9820   32.7310   21.9250 O.2   364  CYS364     -0.2867
    110  CB         9.7510   34.3850   21.0640 C.3   364  CYS364      0.0956
    111  SG         8.6430   32.9720   20.8500 S.3   364  CYS364     -0.0801
    112  N         12.0580   30.5500   25.7760 N.3   367  PRO367     -0.2116
    113  CA        10.8180   30.0560   26.3700 C.3   367  PRO367      0.1372
    114  C         11.0850   29.2710   27.6570 C.2   367  PRO367      0.2244
    115  O         11.9990   28.4340   27.6990 O.2   367  PRO367     -0.2868
    116  CB        10.2490   29.1310   25.2830 C.3   367  PRO367      0.0268
    117  CG        11.4450   28.6710   24.5280 C.3   367  PRO367      0.0207
    118  CD        12.3250   29.8860   24.4820 C.3   367  PRO367      0.0892
    119  N          5.2220   22.3730   25.9770 N.3   371  ARG371     -0.1245
    120  CA         3.8640   22.0980   25.7110 C.3   371  ARG371      0.1563
    121  C          3.7620   20.6210   25.4240 C.2   371  ARG371      0.2260
    122  O          4.6090   20.0610   24.7200 O.2   371  ARG371     -0.2867
    123  CB         3.4240   22.9310   24.5150 C.3   371  ARG371      0.0307
    124  CG         1.9650   22.7950   24.1370 C.3   371  ARG371      0.0489
    125  CD         1.7160   23.3890   22.7660 C.3   371  ARG371      0.2205
    126  NE         2.3030   22.5720   21.7050 N.pl3 371  ARG371     -0.0865
    127  CZ         1.9940   22.6560   20.4170 C.cat 371  ARG371      0.5346
    128  NH1        1.0710   23.5280   19.9700 N.pl3 371  ARG371      0.1354
    129  NH2        2.5970   21.8410   19.5620 N.pl3 371  ARG371      0.1354
@<TRIPOS>BOND
     1    57    56    2
     2    56    55    1
     3    55    54    1
     4    55    58    1
     5    59    58    1
     6    58    60    1
     7    25    23   ar
     8    25    26   ar
     9    30    29    2
    10    38    37    2
    11    29    28    1
    12    33    32    1
    13    31    32    1
    14    31    28    1
    15    23    22   ar
    16    26    24   ar
    17    32    34    1
    18    28    27    1
    19    35    36    1
    20    37    36    1
    21    22    24   ar
    22    22    21    1
    23    36    39    1
    24    27    19   am
    25    39    40    1
    26    49    48    2
    27    42    40   ar
    28    42    44   ar
    29    21    18    1
    30    19    20    2
    31    19    18    1
    32    46    47    1
    33    40    41   ar
    34    44    45   ar
    35    48    47    1
    36    18    17    1
    37    47    50    1
    38    50    51    1
    39    41    43   ar
    40    45    43   ar
    41    17    15   am
    42     7     6    1
    43    53    51   ar
    44    51    52   ar
    45    67    65    1
    46     8     6    1
    47    15    16    2
    48    15    14    1
    49     6     5    1
    50    65    66    1
    51    65    62    1
    52     5     2    1
    53    14    13    1
    54    62    61    1
    55    62    63    1
    56     2     1    1
    57     2     3    1
    58   129   127    1
    59    90    89    1
    60   128   127    1
    61    13    11   am
    62    63    64    2
    63    63    68   am
    64   127   126    2
    65    12    11    2
    66    89    88    1
    67     3     4    2
    68   111   110    1
    69    78    79    1
    70    78    75    1
    71    11    10    1
    72    80    79    2
    73   110   107    1
    74    79    81   am
    75    68    69    1
    76   126   125    1
    77    73    72    1
    78    88    87    1
    79   109   108    2
    80    87    86    1
    81    75    74    1
    82    75    76    1
    83    10     9    1
    84    85    84    2
    85   108   107    1
    86   107   106    1
    87    69    72    1
    88    69    70    1
    89   125   124    1
    90    97    96    2
    91    82    76   am
    92    82    83    1
    93    76    77    2
    94    86    83    1
    95    84    83    1
    96    84    91   am
    97    70    71    2
    98   105   103    1
    99    96    98   am
   100    96    95    1
   101   104   103    1
   102   124   123    1
   103    92    91    1
   104    92    95    1
   105    92    93    1
   106   118   117    1
   107   118   112    1
   108   123   120    1
   109   117   116    1
   110   122   121    2
   111   103   100    1
   112    99    93   am
   113    99   100    1
   114   116   113    1
   115    93    94    2
   116   121   120    1
   117   100   101    1
   118   120   119    1
   119   112   113    1
   120   113   114    1
   121   102   101    2
   122   114   115    2
