@<TRIPOS>MOLECULE
tmp/5gvrA00.pdb
 73 71 0 0 0
SMALL
GASTEIGER

@<TRIPOS>ATOM
      1  N         19.0860  -31.1700    1.1800 N.3    58  PHE58      -0.1227
      2  CA        18.3630  -31.0950   -0.1110 C.3    58  PHE58       0.1736
      3  C         17.2410  -30.0850   -0.0680 C.2    58  PHE58       0.2596
      4  O         16.9270  -29.5150    0.9810 O.2    58  PHE58      -0.2718
      5  CB        17.8620  -32.4530   -0.5140 C.3    58  PHE58       0.0547
      6  CG        17.1650  -33.1930    0.5840 C.ar   58  PHE58      -0.0202
      7  CD1       15.9500  -32.7200    1.1430 C.ar   58  PHE58      -0.0042
      8  CD2       17.6950  -34.3830    1.0680 C.ar   58  PHE58      -0.0042
      9  CE1       15.3140  -33.4190    2.1640 C.ar   58  PHE58      -0.0003
     10  CE2       17.0670  -35.0940    2.0860 C.ar   58  PHE58      -0.0003
     11  CZ        15.8690  -34.6240    2.6320 C.ar   58  PHE58      -0.0000
     12  N         16.5720  -29.9080   -1.2000 N.am   59  THR59      -0.1939
     13  CA        15.4900  -28.9670   -1.3340 C.3    59  THR59       0.2028
     14  C         14.4050  -29.3230   -0.3500 C.2    59  THR59       0.2643
     15  O         14.0030  -30.5150   -0.2070 O.2    59  THR59      -0.2714
     16  CB        15.0000  -28.9750   -2.7970 C.3    59  THR59       0.1808
     17  OG1       16.0950  -28.5030   -3.6560 O.3    59  THR59      -0.2208
     18  CG2       13.7340  -28.1050   -3.0170 C.3    59  THR59       0.0379
     19  N         13.9090  -28.3290    0.3620 N.am   60  GLY60      -0.1939
     20  CA        13.0520  -28.5050    1.5370 C.3    60  GLY60       0.2014
     21  C         13.6500  -28.3210    2.8680 C.2    60  GLY60       0.2640
     22  O         12.9490  -28.1420    3.8380 O.2    60  GLY60      -0.2714
     23  N         14.9760  -28.3510    2.9390 N.am   61  SER61      -0.1935
     24  CA        15.6880  -28.1800    4.2050 C.3    61  SER61       0.2055
     25  C         15.8760  -26.7220    4.5530 C.2    61  SER61       0.2644
     26  O         16.1670  -26.4190    5.6840 O.2    61  SER61      -0.2714
     27  CB        17.0880  -28.7130    4.0940 C.3    61  SER61       0.2130
     28  OG        17.7910  -28.1000    3.0110 O.3    61  SER61      -0.2179
     29  N         15.6900  -25.8330    3.6040 N.am   62  GLY62      -0.1939
     30  CA        15.9420  -24.3660    3.8030 C.3    62  GLY62       0.2014
     31  C         17.3960  -23.9900    3.5060 C.2    62  GLY62       0.2642
     32  O         17.8680  -22.9110    3.8750 O.2    62  GLY62      -0.2714
     33  N         18.0810  -24.8610    2.7750 N.am   63  LYS63      -0.1917
     34  CA        19.4800  -24.6080    2.4310 C.3    63  LYS63       0.1944
     35  C         19.6400  -23.2880    1.7090 C.2    63  LYS63       0.2659
     36  O         20.7270  -22.6760    1.8540 O.2    63  LYS63      -0.2711
     37  CB        20.0460  -25.7670    1.6140 C.2    63  LYS63      -0.0002
     38  CG        19.3430  -26.0570    0.2970 C.2    63  LYS63      -0.0270
     39  CD        20.0390  -27.0150   -0.6240 C.3    63  LYS63       0.0462
     40  CE        19.3200  -27.1380   -1.9550 C.3    63  LYS63       0.1140
     41  NZ        20.2090  -27.6620   -3.0210 N.3    63  LYS63      -0.1310
     42  N         18.7330  -22.8690    0.8660 N.am   64  THR64      -0.1934
     43  CA        18.9660  -21.7660   -0.0410 C.3    64  THR64       0.2028
     44  C         19.2160  -20.5280    0.7670 C.2    64  THR64       0.2642
     45  O         20.0830  -19.7610    0.3840 O.2    64  THR64      -0.2714
     46  CB        17.8400  -21.5370   -1.0470 C.3    64  THR64       0.1808
     47  OG1       17.7080  -22.7870   -1.7750 O.3    64  THR64      -0.2208
     48  CG2       18.0930  -20.4720   -1.9970 C.3    64  THR64       0.0379
     49  N         18.5040  -20.2830    1.8730 N.am   65  LEU65      -0.1977
     50  CA        18.7760  -19.1110    2.6500 C.3    65  LEU65       0.1596
     51  C         20.1580  -19.0970    3.2360 C.2    65  LEU65       0.2287
     52  O         20.6930  -18.0190    3.3960 O.2    65  LEU65      -0.2864
     53  CB        17.7710  -18.9590    3.7940 C.3    65  LEU65       0.0297
     54  CG        16.3960  -18.5960    3.2670 C.3    65  LEU65       0.0022
     55  CD1       15.5500  -18.3700    4.5370 C.3    65  LEU65       0.0001
     56  CD2       16.2800  -17.3450    2.3790 C.3    65  LEU65       0.0001
     57  N         15.9470  -19.3090  -10.3350 N.3   104  GLN104     -0.1245
     58  CA        15.2660  -19.1920   -9.0920 C.3   104  GLN104      0.1566
     59  C         16.0620  -18.5200   -7.9930 C.2   104  GLN104      0.2260
     60  O         15.5900  -17.5570   -7.3450 O.2   104  GLN104     -0.2867
     61  CB        14.7460  -20.5180   -8.6220 C.3   104  GLN104      0.0367
     62  CG        14.1770  -20.5320   -7.2020 C.3   104  GLN104      0.0905
     63  CD        13.6450  -21.9120   -6.8540 C.2   104  GLN104      0.2608
     64  OE1       12.5020  -22.2640   -7.2660 O.2   104  GLN104     -0.2717
     65  NE2       14.3810  -22.6580   -6.1360 N.am  104  GLN104     -0.0878
     66  N         15.6280  -14.8340   -6.0550 N.3   108  ILE108     -0.1245
     67  CA        15.6360  -14.7170   -4.6250 C.3   108  ILE108      0.1561
     68  C         16.5960  -13.5530   -4.2720 C.2   108  ILE108      0.2260
     69  O         16.2850  -12.6620   -3.4740 O.2   108  ILE108     -0.2867
     70  CB        16.0320  -16.0050   -3.9520 C.3   108  ILE108      0.0252
     71  CG1       14.8610  -17.0100   -4.0990 C.3   108  ILE108      0.0019
     72  CG2       16.3720  -15.7680   -2.5040 C.3   108  ILE108      0.0019
     73  CD1       15.2140  -18.4240   -3.7920 C.3   108  ILE108      0.0001
@<TRIPOS>BOND
     1    57    58    1
     2    58    61    1
     3    58    59    1
     4    61    62    1
     5    59    60    2
     6    64    63    2
     7    62    63    1
     8    63    65   am
     9    66    67    1
    10    67    68    1
    11    67    70    1
    12    68    69    2
    13    71    70    1
    14    71    73    1
    15    70    72    1
    16    17    16    1
    17    41    40    1
    18    18    16    1
    19    16    13    1
    20    48    46    1
    21    40    39    1
    22    47    46    1
    23    13    12    1
    24    13    14    1
    25    12     3   am
    26    46    43    1
    27    39    38    1
    28     5     2    1
    29     5     6    1
    30    14    15    2
    31    14    19   am
    32     2     3    1
    33     2     1    1
    34     3     4    2
    35    43    44    1
    36    43    42    1
    37    38    37    2
    38    19    20    1
    39    45    44    2
    40     6     8   ar
    41     6     7   ar
    42    44    49   am
    43    42    35   am
    44     8    10   ar
    45     7     9   ar
    46    20    21    1
    47    37    34    1
    48    35    36    2
    49    35    34    1
    50    49    50    1
    51    10    11   ar
    52     9    11   ar
    53    56    54    1
    54    34    33    1
    55    50    51    1
    56    50    53    1
    57    33    31   am
    58    21    23   am
    59    21    22    2
    60    23    24    1
    61    28    27    1
    62    51    52    2
    63    54    53    1
    64    54    55    1
    65    31    30    1
    66    31    32    2
    67    29    30    1
    68    29    25   am
    69    27    24    1
    70    24    25    1
    71    25    26    2
