@<TRIPOS>MOLECULE
tmp/5gvvA00.pdb
 155 147 0 0 0
SMALL
GASTEIGER

@<TRIPOS>ATOM
      1  N         18.6100   -6.7220   13.5590 N.3     9  ALA9       -0.1231
      2  CA        19.7920   -7.2030   12.8430 C.3     9  ALA9        0.1694
      3  C         20.3690   -8.4070   13.5740 C.2     9  ALA9        0.2593
      4  O         20.6750   -8.3230   14.7650 O.2     9  ALA9       -0.2718
      5  CB        20.8330   -6.1050   12.7460 C.3     9  ALA9        0.0304
      6  N         20.5220   -9.5290   12.8770 N.am   10  GLY10      -0.1942
      7  CA        21.0530  -10.7120   13.5260 C.3    10  GLY10       0.2014
      8  C         21.2560  -11.8860   12.5940 C.2    10  GLY10       0.2638
      9  O         20.6500  -11.9530   11.5190 O.2    10  GLY10      -0.2714
     10  N         22.1150  -12.8140   13.0050 N.am   11  ASP11      -0.1971
     11  CA        22.3820  -14.0120   12.2120 C.3    11  ASP11       0.1709
     12  C         21.4820  -15.1670   12.6380 C.2    11  ASP11       0.2293
     13  O         20.7850  -15.0790   13.6520 O.2    11  ASP11      -0.2864
     14  CB        23.8590  -14.4150   12.3200 C.3    11  ASP11       0.1436
     15  CG        24.2780  -14.7470   13.7460 C.2    11  ASP11       0.3671
     16  OD1       23.7750  -14.1050   14.6930 O.co2  11  ASP11      -0.2456
     17  OD2       25.1210  -15.6530   13.9210 O.co2  11  ASP11      -0.2456
     18  N         22.2360  -17.9470   13.9110 N.3    13  ALA13      -0.1231
     19  CA        22.6250  -18.5340   15.1890 C.3    13  ALA13       0.1694
     20  C         21.9140  -17.8310   16.3370 C.2    13  ALA13       0.2592
     21  O         21.7870  -18.3830   17.4270 O.2    13  ALA13      -0.2718
     22  CB        24.1340  -18.4670   15.3710 C.3    13  ALA13       0.0304
     23  N         21.4560  -16.6090   16.0770 N.am   14  TYR14      -0.1976
     24  CA        20.7580  -15.8050   17.0720 C.3    14  TYR14       0.1639
     25  C         19.2470  -15.8380   16.8180 C.2    14  TYR14       0.2290
     26  O         18.5010  -15.0300   17.3750 O.2    14  TYR14      -0.2864
     27  CB        21.2620  -14.3600   16.9800 C.3    14  TYR14       0.0560
     28  CG        21.5650  -13.6720   18.2960 C.ar   14  TYR14      -0.0198
     29  CD1       22.6010  -14.1060   19.1160 C.ar   14  TYR14      -0.0009
     30  CD2       20.8400  -12.5570   18.6980 C.ar   14  TYR14      -0.0009
     31  CE1       22.8890  -13.4570   20.3160 C.ar   14  TYR14       0.0417
     32  CE2       21.1190  -11.9060   19.8950 C.ar   14  TYR14       0.0417
     33  CZ        22.1420  -12.3610   20.6950 C.ar   14  TYR14       0.1957
     34  OH        22.4210  -11.7090   21.8780 O.3    14  TYR14      -0.2866
     35  N         28.7670   -8.4940   10.2940 N.3    69  HIS69      -0.1241
     36  CA        28.5420   -9.1620   11.5750 C.3    69  HIS69       0.1621
     37  C         29.8580   -9.4170   12.3150 C.2    69  HIS69       0.2264
     38  O         30.8650   -9.7100   11.6710 O.2    69  HIS69      -0.2867
     39  CB        27.7450  -10.4530   11.3720 C.3    69  HIS69       0.0745
     40  CG        26.2840  -10.2250   11.1380 C.ar   69  HIS69       0.0817
     41  ND1       25.8020   -9.5950   10.0090 N.ar   69  HIS69      -0.2268
     42  CD2       25.2010  -10.5290   11.8900 C.ar   69  HIS69       0.1154
     43  CE1       24.4810   -9.5290   10.0770 C.ar   69  HIS69       0.1986
     44  NE2       24.0960  -10.0890   11.2070 N.ar   69  HIS69      -0.2212
     45  N         28.0780   -7.2390   15.3950 N.3    70  THR70      -0.1218
     46  CA        27.1370   -6.2460   15.8920 C.3    70  THR70       0.1862
     47  C         27.1690   -4.9500   15.0920 C.2    70  THR70       0.2287
     48  O         26.6990   -3.9120   15.5610 O.2    70  THR70      -0.2866
     49  CB        27.4530   -5.9340   17.3690 C.3    70  THR70       0.1770
     50  OG1       26.6300   -4.8590   17.8350 O.3    70  THR70      -0.2211
     51  CG2       28.9180   -5.5520   17.5210 C.3    70  THR70       0.0375
     52  N         23.9570   -2.6560   11.8400 N.3    73  ARG73      -0.1245
     53  CA        23.0310   -1.5310   11.9590 C.3    73  ARG73       0.1563
     54  C         23.5080   -0.3040   11.1750 C.2    73  ARG73       0.2260
     55  O         22.7340    0.6230   10.9260 O.2    73  ARG73      -0.2867
     56  CB        22.7710   -1.1920   13.4380 C.3    73  ARG73       0.0307
     57  CG        24.0120   -0.8340   14.2480 C.3    73  ARG73       0.0489
     58  CD        23.7240   -0.7960   15.7510 C.3    73  ARG73       0.2205
     59  NE        24.1140   -2.0390   16.4170 N.pl3  73  ARG73      -0.0865
     60  CZ        23.8640   -2.3160   17.6940 C.cat  73  ARG73       0.5346
     61  NH1       24.2580   -3.4700   18.2180 N.pl3  73  ARG73       0.1354
     62  NH2       23.2140   -1.4430   18.4490 N.pl3  73  ARG73       0.1354
     63  N         15.3100    1.1130   15.4320 N.3    87  TYR87      -0.1241
     64  CA        16.1970   -0.0470   15.5170 C.3    87  TYR87       0.1605
     65  C         16.1270   -0.6980   16.8990 C.2    87  TYR87       0.2264
     66  O         16.0790   -0.0070   17.9200 O.2    87  TYR87      -0.2867
     67  CB        17.6570    0.3100   15.1940 C.3    87  TYR87       0.0534
     68  CG        18.5940   -0.8010   15.6080 C.ar   87  TYR87      -0.0201
     69  CD1       18.7690   -1.9210   14.8040 C.ar   87  TYR87      -0.0009
     70  CD2       19.2620   -0.7590   16.8290 C.ar   87  TYR87      -0.0009
     71  CE1       19.6000   -2.9610   15.1930 C.ar   87  TYR87       0.0417
     72  CE2       20.0920   -1.7930   17.2270 C.ar   87  TYR87       0.0417
     73  CZ        20.2570   -2.8900   16.4050 C.ar   87  TYR87       0.1957
     74  OH        21.0870   -3.9190   16.8030 O.3    87  TYR87      -0.2866
     75  N         17.9810   -3.9480   19.2870 N.3    89  ASP89      -0.1225
     76  CA        18.7990   -5.1320   19.5330 C.3    89  ASP89       0.1805
     77  C         17.8540   -6.3310   19.6600 C.2    89  ASP89       0.2598
     78  O         16.6380   -6.1580   19.7790 O.2    89  ASP89      -0.2718
     79  CB        19.5840   -4.9650   20.8330 C.3    89  ASP89       0.1424
     80  CG        21.0160   -4.4880   20.6140 C.2    89  ASP89       0.3668
     81  OD1       21.3430   -4.0250   19.4990 O.co2  89  ASP89      -0.2456
     82  OD2       21.8120   -4.5620   21.5790 O.co2  89  ASP89      -0.2456
     83  N         18.3950   -7.5460   19.6530 N.am   90  SER90      -0.1938
     84  CA        17.5440   -8.7260   19.7610 C.3    90  SER90       0.2055
     85  C         17.7230   -9.4540   21.0880 C.2    90  SER90       0.2643
     86  O         17.0990  -10.4970   21.3160 O.2    90  SER90      -0.2714
     87  CB        17.8100   -9.6760   18.6030 C.3    90  SER90       0.2130
     88  OG        19.1870   -9.9840   18.5570 O.3    90  SER90      -0.2179
     89  N         18.5790   -8.9130   21.9530 N.am   91  ASP91      -0.1971
     90  CA        18.6960   -9.4090   23.3200 C.3    91  ASP91       0.1709
     91  C         17.7880   -8.5670   24.2090 C.2    91  ASP91       0.2293
     92  O         18.1760   -8.1410   25.2980 O.2    91  ASP91      -0.2864
     93  CB        20.1450   -9.3210   23.8060 C.3    91  ASP91       0.1436
     94  CG        20.6880   -7.9050   23.7700 C.2    91  ASP91       0.3671
     95  OD1       20.1940   -7.0940   22.9540 O.co2  91  ASP91      -0.2456
     96  OD2       21.6260   -7.6020   24.5440 O.co2  91  ASP91      -0.2456
     97  N         23.1210    4.1590   25.1000 N.3   125  ASN125     -0.1240
     98  CA        23.1410    2.7520   24.7130 C.3   125  ASN125      0.1653
     99  C         22.5800    2.5970   23.3020 C.2   125  ASN125      0.2266
    100  O         21.5610    3.1980   22.9680 O.2   125  ASN125     -0.2867
    101  CB        22.3530    1.8930   25.6980 C.3   125  ASN125      0.1155
    102  CG        22.3410    0.4270   25.3090 C.2   125  ASN125      0.2627
    103  OD1       21.5160   -0.0060   24.5070 O.2   125  ASN125     -0.2716
    104  ND2       23.2600   -0.3450   25.8770 N.am  125  ASN125     -0.0877
    105  N         29.0010    0.7340   19.4180 N.3   161  GLN161     -0.1245
    106  CA        28.3830    1.7020   20.3080 C.3   161  GLN161      0.1566
    107  C         29.3260    2.8750   20.5480 C.2   161  GLN161      0.2260
    108  O         28.9130    4.0350   20.4730 O.2   161  GLN161     -0.2867
    109  CB        28.0010    1.0380   21.6310 C.3   161  GLN161      0.0367
    110  CG        27.2990    1.9660   22.6110 C.3   161  GLN161      0.0905
    111  CD        26.6580    1.2170   23.7580 C.2   161  GLN161      0.2608
    112  OE1       25.8110    0.3500   23.5470 O.2   161  GLN161     -0.2717
    113  NE2       27.0570    1.5460   24.9800 N.am  161  GLN161     -0.0878
    114  N         16.3640   -4.6100   28.2610 N.3   209  HIS209     -0.1241
    115  CA        17.5590   -4.9040   27.4730 C.3   209  HIS209      0.1621
    116  C         18.5480   -5.7360   28.2870 C.2   209  HIS209      0.2264
    117  O         19.1420   -5.2490   29.2580 O.2   209  HIS209     -0.2867
    118  CB        18.2130   -3.5990   27.0020 C.3   209  HIS209      0.0745
    119  CG        19.2580   -3.7860   25.9490 C.ar  209  HIS209      0.0817
    120  ND1       19.9630   -2.7320   25.4000 N.ar  209  HIS209     -0.2268
    121  CD2       19.7130   -4.9020   25.3250 C.ar  209  HIS209      0.1154
    122  CE1       20.8050   -3.1900   24.4950 C.ar  209  HIS209      0.1986
    123  NE2       20.6780   -4.5050   24.4310 N.ar  209  HIS209     -0.2212
    124  N         21.6720   -6.6090   28.3070 N.3   211  ILE211     -0.1231
    125  CA        23.0490   -6.3690   27.8880 C.3   211  ILE211      0.1692
    126  C         24.0070   -7.2730   28.6530 C.2   211  ILE211      0.2593
    127  O         23.6110   -7.9200   29.6300 O.2   211  ILE211     -0.2718
    128  CB        23.4690   -4.9000   28.1140 C.3   211  ILE211      0.0266
    129  CG1       23.4920   -4.5700   29.6140 C.3   211  ILE211      0.0019
    130  CG2       22.5340   -3.9500   27.3730 C.3   211  ILE211      0.0020
    131  CD1       24.0930   -3.2080   29.9390 C.3   211  ILE211      0.0001
    132  N         25.2610   -7.3050   28.1930 N.am  212  SER212     -0.1938
    133  CA        26.3500   -8.1120   28.7770 C.3   212  SER212      0.2055
    134  C         26.2670   -9.5810   28.3690 C.2   212  SER212      0.2642
    135  O         25.3950   -9.9690   27.5990 O.2   212  SER212     -0.2714
    136  CB        26.4350   -7.9780   30.3060 C.3   212  SER212      0.2130
    137  OG        25.5430   -8.8720   30.9590 O.3   212  SER212     -0.2179
    138  N         27.1870  -10.3930   28.8730 N.am  213  GLN213     -0.1976
    139  CA        27.2050  -11.8050   28.5160 C.3   213  GLN213      0.1601
    140  C         26.3600  -12.6420   29.4730 C.2   213  GLN213      0.2287
    141  O         26.2800  -13.8660   29.3330 O.2   213  GLN213     -0.2864
    142  CB        28.6420  -12.3270   28.4630 C.3   213  GLN213      0.0394
    143  CG        29.5610  -11.5150   27.5470 C.3   213  GLN213      0.0908
    144  CD        29.1350  -11.5410   26.0820 C.2   213  GLN213      0.2608
    145  OE1       28.2410  -10.7980   25.6620 O.2   213  GLN213     -0.2717
    146  NE2       29.7950  -12.3800   25.2930 N.am  213  GLN213     -0.0878
    147  N         23.2690  -13.4760   29.7540 N.3   215  LYS215     -0.1245
    148  CA        21.9810  -13.5470   29.0630 C.3   215  LYS215      0.1561
    149  C         21.0120  -14.4940   29.7700 C.2   215  LYS215      0.2260
    150  O         21.4150  -15.5560   30.2490 O.2   215  LYS215     -0.2867
    151  CB        22.1770  -13.9930   27.6090 C.3   215  LYS215      0.0271
    152  CG        23.2370  -13.2030   26.8230 C.3   215  LYS215      0.0035
    153  CD        22.9110  -11.7130   26.7510 C.3   215  LYS215      0.0206
    154  CE        23.4980  -11.0870   25.4890 C.3   215  LYS215      0.1093
    155  NZ        23.6510   -9.6020   25.6100 N.3   215  LYS215     -0.1314
@<TRIPOS>BOND
     1    41    43   ar
     2    41    40   ar
     3    43    44   ar
     4    35    36    1
     5    55    54    2
     6    40    39    1
     7    40    42   ar
     8    54    53    1
     9    44    42   ar
    10    39    36    1
    11     9     8    2
    12    36    37    1
    13    38    37    2
    14    52    53    1
    15    53    56    1
    16    11    14    1
    17    11    12    1
    18    11    10    1
    19    14    15    1
    20     8    10   am
    21     8     7    1
    22    12    13    2
    23     5     2    1
    24     2     1    1
    25     2     3    1
    26     6     7    1
    27     6     3   am
    28    56    57    1
    29     3     4    2
    30    15    17   ar
    31    15    16   ar
    32    18    19    1
    33    57    58    1
    34    69    71   ar
    35    69    68   ar
    36    47    48    2
    37    47    46    1
    38    19    22    1
    39    19    20    1
    40    71    73   ar
    41    67    64    1
    42    67    68    1
    43    45    46    1
    44    63    64    1
    45    64    65    1
    46    68    70   ar
    47    58    59    1
    48    46    49    1
    49    23    20   am
    50    23    24    1
    51    20    21    2
    52    73    74    1
    53    73    72   ar
    54    59    60    2
    55    25    24    1
    56    25    26    2
    57    70    72   ar
    58    65    66    2
    59    27    24    1
    60    27    28    1
    61    49    51    1
    62    49    50    1
    63    60    61    1
    64    60    62    1
    65    28    30   ar
    66    28    29   ar
    67    88    87    1
    68    87    84    1
    69    30    32   ar
    70    29    31   ar
    71    75    76    1
    72   105   106    1
    73    81    80   ar
    74    76    77    1
    75    76    79    1
    76    83    77   am
    77    83    84    1
    78    77    78    2
    79    84    85    1
    80    32    33   ar
    81   106   107    1
    82   106   109    1
    83    31    33   ar
    84   108   107    2
    85    80    79    1
    86    80    82   ar
    87    33    34    1
    88    85    86    2
    89    85    89   am
    90   109   110    1
    91    89    90    1
    92   110   111    1
    93    95    94   ar
    94   100    99    2
    95    99    98    1
    96    90    93    1
    97    90    91    1
    98   112   111    2
    99   111   113   am
   100    94    93    1
   101    94    96   ar
   102    91    92    2
   103   123   122   ar
   104   123   121   ar
   105   122   120   ar
   106   103   102    2
   107    98    97    1
   108    98   101    1
   109   146   144   am
   110   102   101    1
   111   102   104   am
   112   121   119   ar
   113   120   119   ar
   114   154   155    1
   115   154   153    1
   116   145   144    2
   117   119   118    1
   118   144   143    1
   119   153   152    1
   120   152   151    1
   121   118   115    1
   122   130   128    1
   123   115   114    1
   124   115   116    1
   125   143   142    1
   126   135   134    2
   127   151   148    1
   128   125   128    1
   129   125   124    1
   130   125   126    1
   131   128   129    1
   132   132   126   am
   133   132   133    1
   134   116   117    2
   135   134   133    1
   136   134   138   am
   137   142   139    1
   138   139   138    1
   139   139   140    1
   140   126   127    2
   141   133   136    1
   142   148   147    1
   143   148   149    1
   144   141   140    2
   145   129   131    1
   146   149   150    2
   147   136   137    1
