@<TRIPOS>MOLECULE
tmp/5gwaA00.pdb
 124 117 0 0 0
SMALL
GASTEIGER

@<TRIPOS>ATOM
      1  N         11.4560   -6.7120   20.0750 N.3    44  GLN44      -0.1231
      2  CA        10.1990   -5.9450   20.1040 C.3    44  GLN44       0.1698
      3  C         10.4490   -4.5960   19.4430 C.2    44  GLN44       0.2592
      4  O         11.0840   -4.5660   18.3810 O.2    44  GLN44      -0.2718
      5  CB         9.6960   -5.8180   21.5120 C.3    44  GLN44       0.0381
      6  CG         8.9670   -7.0310   22.0170 C.3    44  GLN44       0.0905
      7  CD         7.6260   -7.2280   21.3540 C.2    44  GLN44       0.2608
      8  OE1        7.1860   -6.4230   20.5370 O.2    44  GLN44      -0.2717
      9  NE2        6.9710   -8.3660   21.6730 N.am   44  GLN44      -0.0878
     10  N         10.0750   -3.5000   20.0770 N.am   45  SER45      -0.1952
     11  CA        10.0430   -2.2170   19.3760 C.3    45  SER45       0.1924
     12  C         11.4250   -1.6520   19.0760 C.2    45  SER45       0.2314
     13  O         11.5100   -0.7080   18.2790 O.2    45  SER45      -0.2863
     14  CB         9.2670   -1.1450   20.1350 C.3    45  SER45       0.2116
     15  OG         7.8550   -1.3740   20.1450 O.3    45  SER45      -0.2180
     16  N         12.5220   -0.8150   15.4510 N.3    48  LYS48      -0.1245
     17  CA        12.0630    0.3770   14.7270 C.3    48  LYS48       0.1561
     18  C         13.2570    1.2910   14.4230 C.2    48  LYS48       0.2260
     19  O         13.1780    2.1490   13.5340 O.2    48  LYS48      -0.2867
     20  CB        10.9780    1.1150   15.5040 C.3    48  LYS48       0.0271
     21  CG         9.6930    0.2880   15.6040 C.3    48  LYS48       0.0035
     22  CD         8.7470    0.8250   16.6680 C.3    48  LYS48       0.0206
     23  CE         7.5710   -0.1130   16.8420 C.3    48  LYS48       0.1093
     24  NZ         6.5830    0.4240   17.8090 N.3    48  LYS48      -0.1314
     25  N         -0.6760   -0.3690   20.4520 N.3    82  TRP82      -0.1241
     26  CA        -0.1810    0.9130   20.9120 C.3    82  TRP82       0.1605
     27  C          0.0000    1.8740   19.7440 C.2    82  TRP82       0.2264
     28  O          0.7800    1.6000   18.8310 O.2    82  TRP82      -0.2867
     29  CB         1.1340    0.7150   21.6570 C.3    82  TRP82       0.0550
     30  CG         1.8810    1.9930   21.9400 C.ar   82  TRP82       0.0003
     31  CD1        2.8610    2.5420   21.1590 C.ar   82  TRP82       0.0946
     32  CD2        1.7560    2.8570   23.0800 C.ar   82  TRP82       0.0152
     33  NE1        3.3520    3.6830   21.7350 N.ar   82  TRP82      -0.2442
     34  CE2        2.6860    3.9060   22.9200 C.ar   82  TRP82       0.0810
     35  CE3        0.9880    2.8220   24.2470 C.ar   82  TRP82       0.0012
     36  CZ2        2.8650    4.8950   23.8650 C.ar   82  TRP82       0.0191
     37  CZ3        1.0960    3.8560   25.1340 C.ar   82  TRP82       0.0001
     38  CH2        2.0110    4.9100   24.9330 C.ar   82  TRP82       0.0015
     39  N          7.2130    5.2290   19.6760 N.3   109  SER109     -0.1217
     40  CA         7.0400    3.8000   19.4210 C.3   109  SER109      0.1889
     41  C          5.7000    3.4160   18.8360 C.2   109  SER109      0.2288
     42  O          5.1920    2.3290   19.1010 O.2   109  SER109     -0.2866
     43  CB         7.3240    2.9940   20.6720 C.3   109  SER109      0.2089
     44  OG         7.9120    1.7390   20.3200 O.3   109  SER109     -0.2183
     45  N          3.0240    1.6560   16.7910 N.3   111  ASN111     -0.1240
     46  CA         3.0450    0.3800   16.0560 C.3   111  ASN111      0.1653
     47  C          2.4550    0.4930   14.6630 C.2   111  ASN111      0.2266
     48  O          2.8910   -0.2270   13.7560 O.2   111  ASN111     -0.2867
     49  CB         2.3410   -0.7050   16.8460 C.3   111  ASN111      0.1155
     50  CG         3.1970   -1.2620   17.9690 C.2   111  ASN111      0.2627
     51  OD1        4.4050   -1.1910   17.9350 O.2   111  ASN111     -0.2716
     52  ND2        2.5500   -1.8840   18.9460 N.am  111  ASN111     -0.0877
     53  N          4.6820   -5.4980   13.2530 N.3   145  GLU145     -0.1245
     54  CA         3.9920   -5.4190   14.5280 C.3   145  GLU145      0.1567
     55  C          2.6830   -6.1710   14.5000 C.2   145  GLU145      0.2260
     56  O          2.3710   -6.8780   15.4600 O.2   145  GLU145     -0.2867
     57  CB         3.7720   -3.9550   14.9530 C.3   145  GLU145      0.0388
     58  CG         5.0650   -3.3040   15.4320 C.3   145  GLU145      0.1160
     59  CD         5.5280   -3.7640   16.7940 C.2   145  GLU145      0.3649
     60  OE1        4.7260   -4.3760   17.5460 O.co2 145  GLU145     -0.2457
     61  OE2        6.6820   -3.4530   17.2120 O.co2 145  GLU145     -0.2457
     62  N          1.6180   -9.3740   17.0070 N.3   149  HIS149     -0.1241
     63  CA         0.4450   -9.3240   17.9010 C.3   149  HIS149      0.1621
     64  C         -0.4930  -10.5060   17.6570 C.2   149  HIS149      0.2264
     65  O         -1.4240  -10.7200   18.4440 O.2   149  HIS149     -0.2867
     66  CB        -0.3090   -7.9970   17.7090 C.3   149  HIS149      0.0745
     67  CG         0.3530   -6.8330   18.3670 C.ar  149  HIS149      0.0817
     68  ND1        1.5770   -6.3320   17.9630 N.ar  149  HIS149     -0.2268
     69  CD2       -0.0450   -6.0590   19.4080 C.ar  149  HIS149      0.1154
     70  CE1        1.9120   -5.3140   18.7380 C.ar  149  HIS149      0.1986
     71  NE2        0.9480   -5.1390   19.6330 N.ar  149  HIS149     -0.2212
     72  N          9.6190    7.4360   25.5850 N.3   195  THR195     -0.1203
     73  CA         9.3640    6.1410   26.2210 C.3   195  THR195      0.1994
     74  C         10.5300    5.7340   27.0890 C.2   195  THR195      0.2618
     75  O         11.6230    6.2390   26.9810 O.2   195  THR195     -0.2717
     76  CB         9.0680    5.0550   25.1710 C.3   195  THR195      0.1784
     77  OG1       10.2200    4.8730   24.3260 O.3   195  THR195     -0.2211
     78  CG2        7.8990    5.4830   24.3110 C.3   195  THR195      0.0376
     79  N         10.2640    4.8230   28.0120 N.am  196  GLY196     -0.1956
     80  CA        11.3320    4.2670   28.8120 C.3   196  GLY196      0.1869
     81  C         12.1730    5.1950   29.6190 C.2   196  GLY196      0.2309
     82  O         13.3610    5.0150   29.7460 O.2   196  GLY196     -0.2863
     83  N         14.4850    3.5070   32.1710 N.3   199  ARG199     -0.1245
     84  CA        15.3410    2.4280   31.6630 C.3   199  ARG199      0.1563
     85  C         16.7700    2.9210   31.5660 C.2   199  ARG199      0.2260
     86  O         17.3390    3.2450   32.5850 O.2   199  ARG199     -0.2867
     87  CB        14.7420    1.8350   30.3740 C.3   199  ARG199      0.0307
     88  CG        13.3580    1.2490   30.5980 C.3   199  ARG199      0.0489
     89  CD        12.7890    0.5090   29.4040 C.3   199  ARG199      0.2205
     90  NE        11.4020    0.1110   29.6350 N.pl3 199  ARG199     -0.0865
     91  CZ        10.7030   -0.6940   28.8390 C.cat 199  ARG199      0.5346
     92  NH1       11.2360   -1.1960   27.7400 N.pl3 199  ARG199      0.1354
     93  NH2        9.4530   -0.9540   29.1170 N.pl3 199  ARG199      0.1354
     94  N         13.2610    2.0400   22.8750 N.3   214  THR214     -0.1203
     95  CA        12.8650    1.0310   23.8630 C.3   214  THR214      0.1994
     96  C         12.1240   -0.1210   23.1680 C.2   214  THR214      0.2618
     97  O         11.7180   -0.0410   21.9950 O.2   214  THR214     -0.2717
     98  CB        11.9040    1.6970   24.8770 C.3   214  THR214      0.1784
     99  OG1       10.8940    2.3760   24.1510 O.3   214  THR214     -0.2211
    100  CG2       12.6380    2.6740   25.7280 C.3   214  THR214      0.0376
    101  N         11.8740   -1.1970   23.9150 N.am  215  GLY215     -0.1942
    102  CA        10.9110   -2.2180   23.4620 C.3   215  GLY215      0.2014
    103  C         10.3820   -2.9720   24.6520 C.2   215  GLY215      0.2640
    104  O         11.1160   -3.1340   25.6520 O.2   215  GLY215     -0.2714
    105  N          9.1660   -3.4700   24.5010 N.am  216  SER216     -0.1935
    106  CA         8.4960   -4.1800   25.6060 C.3   216  SER216      0.2055
    107  C          7.6250   -5.2750   25.0000 C.2   216  SER216      0.2644
    108  O          7.1090   -5.1250   23.8920 O.2   216  SER216     -0.2714
    109  CB         7.6570   -3.1930   26.4110 C.3   216  SER216      0.2130
    110  OG         8.3970   -2.0800   26.8810 O.3   216  SER216     -0.2179
    111  N          7.5060   -6.3950   25.6950 N.am  217  SER217     -0.1935
    112  CA         6.4500   -7.3460   25.3860 C.3   217  SER217      0.2055
    113  C          5.3700   -7.3010   26.4560 C.2   217  SER217      0.2643
    114  O          5.5860   -6.7790   27.5350 O.2   217  SER217     -0.2714
    115  CB         6.9920   -8.7740   25.3140 C.3   217  SER217      0.2130
    116  OG         7.3830   -9.1940   26.5970 O.3   217  SER217     -0.2179
    117  N          4.3370   -8.0920   26.2380 N.am  218  ASP218     -0.1971
    118  CA         3.3940   -8.3430   27.3040 C.3   218  ASP218      0.1709
    119  C          3.9260   -9.5090   28.1600 C.2   218  ASP218      0.2293
    120  O          5.0670   -9.9760   27.9960 O.2   218  ASP218     -0.2864
    121  CB         2.0070   -8.6710   26.7290 C.3   218  ASP218      0.1436
    122  CG         0.8590   -8.0400   27.5440 C.2   218  ASP218      0.3671
    123  OD1        0.5750   -8.5570   28.6480 O.co2 218  ASP218     -0.2456
    124  OD2        0.1730   -7.1000   27.0320 O.co2 218  ASP218     -0.2456
@<TRIPOS>BOND
     1    53    54    1
     2    19    18    2
     3    48    47    2
     4    18    17    1
     5    55    54    1
     6    55    56    2
     7    54    57    1
     8    47    46    1
     9    17    16    1
    10    17    20    1
    11    57    58    1
    12    58    59    1
    13    20    21    1
    14    21    22    1
    15    46    45    1
    16    46    49    1
    17    22    23    1
    18    59    61   ar
    19    59    60   ar
    20    23    24    1
    21    49    50    1
    22    62    63    1
    23    64    63    1
    24    64    65    2
    25    66    63    1
    26    66    67    1
    27    51    50    2
    28    68    67   ar
    29    68    70   ar
    30    50    52   am
    31    13    12    2
    32    67    69   ar
    33     4     3    2
    34    70    71   ar
    35    28    27    2
    36    41    42    2
    37    41    40    1
    38    12    11    1
    39    11    10    1
    40    11    14    1
    41    69    71   ar
    42    40    39    1
    43    40    43    1
    44     3    10   am
    45     3     2    1
    46    27    26    1
    47     1     2    1
    48     2     5    1
    49    14    15    1
    50    44    43    1
    51    25    26    1
    52     8     7    2
    53    26    29    1
    54    31    33   ar
    55    31    30   ar
    56     7     9   am
    57     7     6    1
    58     5     6    1
    59    29    30    1
    60    33    34   ar
    61    30    32   ar
    62    97    96    2
    63    94    95    1
    64    34    32   ar
    65    34    36   ar
    66    32    35   ar
    67    96    95    1
    68    96   101   am
    69   102   101    1
    70   102   103    1
    71    95    98    1
    72    36    38   ar
    73   108   107    2
    74    99    98    1
    75    35    37   ar
    76    78    76    1
    77    77    76    1
    78   105   103   am
    79   105   106    1
    80   103   104    2
    81    98   100    1
    82    38    37   ar
    83   107   106    1
    84   107   111   am
    85    76    73    1
    86   115   112    1
    87   115   116    1
    88   112   111    1
    89   112   113    1
    90    72    73    1
    91   106   109    1
    92    73    74    1
    93   117   113   am
    94   117   118    1
    95   109   110    1
    96   113   114    2
    97   121   118    1
    98   121   122    1
    99    75    74    2
   100   124   122   ar
   101    74    79   am
   102   118   119    1
   103   122   123   ar
   104    92    91    1
   105   120   119    2
   106    79    80    1
   107    80    81    1
   108    91    93    1
   109    91    90    2
   110    89    90    1
   111    89    88    1
   112    81    82    2
   113    87    88    1
   114    87    84    1
   115    85    84    1
   116    85    86    2
   117    84    83    1
