@<TRIPOS>MOLECULE
tmp/5gweC01.pdb
 132 129 0 0 0
SMALL
GASTEIGER

@<TRIPOS>ATOM
      1  N        101.4890   37.1400   44.2960 N.3    60  GLN60      -0.1245
      2  CA       101.7460   38.3950   43.6090 C.3    60  GLN60       0.1566
      3  C        101.4700   38.3090   42.1040 C.2    60  GLN60       0.2260
      4  O        101.7780   39.2430   41.3650 O.2    60  GLN60      -0.2867
      5  CB       103.1940   38.8340   43.8310 C.3    60  GLN60       0.0367
      6  CG       103.5360   39.1240   45.3220 C.3    60  GLN60       0.0905
      7  CD       102.7370   40.2680   45.9080 C.2    60  GLN60       0.2608
      8  OE1      102.4560   41.2610   45.2270 O.2    60  GLN60      -0.2717
      9  NE2      102.3760   40.1500   47.1740 N.am   60  GLN60      -0.0878
     10  N        108.4390   39.6390   43.5430 N.3    83  SER83      -0.1202
     11  CA       108.1120   39.6600   44.9670 C.3    83  SER83       0.2020
     12  C        109.3680   39.7510   45.8050 C.2    83  SER83       0.2619
     13  O        110.2870   38.9510   45.6020 O.2    83  SER83      -0.2717
     14  CB       107.3090   38.4000   45.3560 C.3    83  SER83       0.2103
     15  OG       106.9960   38.3820   46.7510 O.3    83  SER83      -0.2182
     16  N        109.4160   40.7010   46.7390 N.am   84  GLY84      -0.1942
     17  CA       110.5440   40.7710   47.6730 C.3    84  GLY84       0.2014
     18  C        110.5880   39.5370   48.5650 C.2    84  GLY84       0.2639
     19  O        111.6540   38.9060   48.7500 O.2    84  GLY84      -0.2714
     20  N        109.4190   39.1890   49.1220 N.am   85  LEU85      -0.1963
     21  CA       109.2960   38.0790   50.0690 C.3    85  LEU85       0.1728
     22  C        107.9930   37.2760   49.9730 C.2    85  LEU85       0.2616
     23  O        108.0310   36.0470   50.0750 O.2    85  LEU85      -0.2715
     24  CB       109.4140   38.5800   51.5180 C.3    85  LEU85       0.0311
     25  CG       110.8160   38.7410   52.1110 C.3    85  LEU85       0.0022
     26  CD1      110.7310   39.3010   53.5180 C.3    85  LEU85       0.0001
     27  CD2      111.6070   37.4110   52.0970 C.3    85  LEU85       0.0001
     28  N        106.8480   37.9500   49.8300 N.am   86  SER86      -0.1950
     29  CA       105.5720   37.2780   50.1040 C.3    86  SER86       0.1924
     30  C        105.2820   36.0870   49.1710 C.2    86  SER86       0.2314
     31  O        104.6160   35.1250   49.5700 O.2    86  SER86      -0.2863
     32  CB       104.3940   38.2680   50.0560 C.3    86  SER86       0.2116
     33  OG       103.9930   38.5770   48.7290 O.3    86  SER86      -0.2180
     34  N        100.4460   49.4830   42.3270 N.3   171  ARG171     -0.1245
     35  CA       100.7580   48.0980   42.5810 C.3   171  ARG171      0.1563
     36  C         99.4870   47.3660   43.0750 C.2   171  ARG171      0.2260
     37  O         99.1780   46.2510   42.6150 O.2   171  ARG171     -0.2867
     38  CB       101.9050   47.9540   43.5940 C.3   171  ARG171      0.0307
     39  CG       102.2590   46.4450   43.8210 C.3   171  ARG171      0.0489
     40  CD       103.5970   46.1790   44.5920 C.3   171  ARG171      0.2205
     41  NE       103.8620   44.7270   44.7170 N.pl3 171  ARG171     -0.0865
     42  CZ       104.8190   44.1800   45.4690 C.cat 171  ARG171      0.5346
     43  NH1      105.6370   44.9460   46.1660 N.pl3 171  ARG171      0.1354
     44  NH2      104.9620   42.8630   45.5190 N.pl3 171  ARG171      0.1354
     45  N         95.7560   43.1970   42.1560 N.3   176  TRP176     -0.1241
     46  CA        94.5030   42.6530   42.7420 C.3   176  TRP176      0.1605
     47  C         93.2370   43.3560   42.2350 C.2   176  TRP176      0.2264
     48  O         92.1320   43.0580   42.6680 O.2   176  TRP176     -0.2867
     49  CB        94.5460   42.7280   44.2770 C.3   176  TRP176      0.0550
     50  CG        95.6860   41.9030   44.9210 C.ar  176  TRP176      0.0003
     51  CD1       95.6430   40.5930   45.2920 C.ar  176  TRP176      0.0946
     52  CD2       97.0110   42.3610   45.2170 C.ar  176  TRP176      0.0152
     53  NE1       96.8610   40.1980   45.8160 N.ar  176  TRP176     -0.2442
     54  CE2       97.7080   41.2790   45.8050 C.ar  176  TRP176      0.0810
     55  CE3       97.6590   43.5900   45.0790 C.ar  176  TRP176      0.0012
     56  CZ2       99.0440   41.3810   46.2090 C.ar  176  TRP176      0.0191
     57  CZ3       98.9920   43.6950   45.5150 C.ar  176  TRP176      0.0001
     58  CH2       99.6610   42.5980   46.0610 C.ar  176  TRP176      0.0015
     59  N        111.1680   46.9840   47.0150 N.3   237  TYR237     -0.1227
     60  CA       109.9080   46.8810   46.2630 C.3   237  TYR237      0.1736
     61  C        108.8140   46.3430   47.2030 C.2   237  TYR237      0.2596
     62  O        107.6800   46.8300   47.2130 O.2   237  TYR237     -0.2718
     63  CB       110.1190   45.9770   45.0390 C.3   237  TYR237      0.0548
     64  CG       108.9020   45.7180   44.1790 C.ar  237  TYR237     -0.0200
     65  CD1      108.3160   46.7300   43.4340 C.ar  237  TYR237     -0.0009
     66  CD2      108.3560   44.4440   44.0930 C.ar  237  TYR237     -0.0009
     67  CE1      107.2050   46.4780   42.6270 C.ar  237  TYR237      0.0417
     68  CE2      107.2590   44.1890   43.3010 C.ar  237  TYR237      0.0417
     69  CZ       106.6840   45.2090   42.5790 C.ar  237  TYR237      0.1957
     70  OH       105.5970   44.9300   41.7910 O.3   237  TYR237     -0.2866
     71  N        109.1900   45.3810   48.0370 N.am  238  SER238     -0.1952
     72  CA       108.2870   44.8050   49.0540 C.3   238  SER238      0.1924
     73  C        107.9500   45.8090   50.1810 C.2   238  SER238      0.2314
     74  O        106.7890   46.1990   50.3950 O.2   238  SER238     -0.2863
     75  CB       108.9370   43.5500   49.6620 C.3   238  SER238      0.2116
     76  OG       108.1400   43.0210   50.6970 O.3   238  SER238     -0.2180
     77  N        106.0420   49.1620   49.8050 N.3   241  PHE241     -0.1227
     78  CA       104.6200   48.9570   49.5030 C.3   241  PHE241      0.1736
     79  C        103.8870   48.3890   50.7080 C.2   241  PHE241      0.2595
     80  O        102.9830   49.0300   51.3030 O.2   241  PHE241     -0.2718
     81  CB       104.4420   47.9920   48.3230 C.3   241  PHE241      0.0547
     82  CG       103.0050   47.5810   48.0840 C.ar  241  PHE241     -0.0202
     83  CD1      102.0780   48.5060   47.5960 C.ar  241  PHE241     -0.0042
     84  CD2      102.5970   46.2770   48.2840 C.ar  241  PHE241     -0.0042
     85  CE1      100.7640   48.1470   47.3600 C.ar  241  PHE241     -0.0003
     86  CE2      101.2940   45.9070   48.0360 C.ar  241  PHE241     -0.0003
     87  CZ       100.3630   46.8490   47.5800 C.ar  241  PHE241     -0.0000
     88  N        104.3170   47.1980   51.0890 N.am  242  ALA242     -0.1980
     89  CA       103.7320   46.4910   52.2210 C.3   242  ALA242      0.1597
     90  C        103.9230   47.2650   53.5260 C.2   242  ALA242      0.2287
     91  O        103.1590   47.0850   54.4630 O.2   242  ALA242     -0.2864
     92  CB       104.3440   45.0870   52.3520 C.3   242  ALA242      0.0319
     93  N         98.8870   49.0150   54.0420 N.3   246  THR246     -0.1218
     94  CA        97.9600   48.3810   54.9660 C.3   246  THR246      0.1862
     95  C         97.8540   49.0960   56.3290 C.2   246  THR246      0.2287
     96  O         96.8660   48.9570   57.0230 O.2   246  THR246     -0.2866
     97  CB        98.3790   46.9290   55.1720 C.3   246  THR246      0.1770
     98  OG1       99.7990   46.8900   55.3630 O.3   246  THR246     -0.2211
     99  CG2       98.0600   46.1070   53.9340 C.3   246  THR246      0.0375
    100  N         93.6590   43.5100   54.8170 N.3   289  ILE289     -0.1245
    101  CA        93.6220   42.4770   53.8010 C.3   289  ILE289      0.1561
    102  C         92.5780   41.4400   54.1870 C.2   289  ILE289      0.2260
    103  O         92.6330   40.8940   55.2960 O.2   289  ILE289     -0.2867
    104  CB        95.0030   41.7880   53.6480 C.3   289  ILE289      0.0252
    105  CG1       96.0280   42.8210   53.1750 C.3   289  ILE289      0.0019
    106  CG2       94.9230   40.5960   52.6890 C.3   289  ILE289      0.0019
    107  CD1       97.4750   42.2740   53.0450 C.3   289  ILE289      0.0001
    108  N         93.8970   36.3320   50.7310 N.3   292  TRP292     -0.1241
    109  CA        95.2890   36.1450   50.2860 C.3   292  TRP292      0.1605
    110  C         95.4330   34.7860   49.5850 C.2   292  TRP292      0.2264
    111  O         94.6980   33.8360   49.8900 O.2   292  TRP292     -0.2867
    112  CB        96.2500   36.2750   51.4900 C.3   292  TRP292      0.0550
    113  CG        97.6780   36.7110   51.1300 C.ar  292  TRP292      0.0003
    114  CD1       98.8510   35.9900   51.3200 C.ar  292  TRP292      0.0946
    115  CD2       98.0710   37.9610   50.5650 C.ar  292  TRP292      0.0152
    116  NE1       99.9310   36.7190   50.8750 N.ar  292  TRP292     -0.2442
    117  CE2       99.4780   37.9240   50.3980 C.ar  292  TRP292      0.0810
    118  CE3       97.3690   39.0950   50.1370 C.ar  292  TRP292      0.0012
    119  CZ2      100.1900   38.9940   49.8530 C.ar  292  TRP292      0.0191
    120  CZ3       98.0870   40.1560   49.5980 C.ar  292  TRP292      0.0001
    121  CH2       99.4850   40.0930   49.4590 C.ar  292  TRP292      0.0015
    122  N         92.6050   43.7800   49.1600 N.3   393  PHE393     -0.1241
    123  CA        92.8060   44.9330   50.0350 C.3   393  PHE393      0.1605
    124  C         91.4730   45.6660   50.2600 C.2   393  PHE393      0.2264
    125  O         90.8070   46.0440   49.3050 O.2   393  PHE393     -0.2867
    126  CB        93.8600   45.8910   49.4460 C.3   393  PHE393      0.0534
    127  CG        95.2440   45.3090   49.4280 C.ar  393  PHE393     -0.0203
    128  CD1       95.6530   44.4670   48.4000 C.ar  393  PHE393     -0.0042
    129  CD2       96.1350   45.5760   50.4600 C.ar  393  PHE393     -0.0042
    130  CE1       96.9300   43.8880   48.4220 C.ar  393  PHE393     -0.0003
    131  CE2       97.4070   45.0300   50.4590 C.ar  393  PHE393     -0.0003
    132  CZ        97.8070   44.1790   49.4350 C.ar  393  PHE393     -0.0000
@<TRIPOS>BOND
     1     4     3    2
     2    70    69    1
     3     3     2    1
     4    45    46    1
     5    47    48    2
     6    47    46    1
     7    34    35    1
     8    69    67   ar
     9    69    68   ar
    10    35    36    1
    11    35    38    1
    12    37    36    2
    13    67    65   ar
    14    46    49    1
    15    68    66   ar
    16    65    64   ar
    17    10    11    1
    18    38    39    1
    19     2     5    1
    20     2     1    1
    21    39    40    1
    22     5     6    1
    23    66    64   ar
    24    64    63    1
    25    49    50    1
    26    40    41    1
    27    41    42    2
    28    50    52   ar
    29    50    51   ar
    30    11    14    1
    31    11    12    1
    32    63    60    1
    33    55    52   ar
    34    55    57   ar
    35    52    54   ar
    36     8     7    2
    37    51    53   ar
    38     6     7    1
    39    14    15    1
    40    42    44    1
    41    42    43    1
    42    57    58   ar
    43    13    12    2
    44    12    16   am
    45    54    53   ar
    46    54    56   ar
    47     7     9   am
    48    58    56   ar
    49    60    59    1
    50    60    61    1
    51    16    17    1
    52    61    62    2
    53    61    71   am
    54    85    87   ar
    55    85    83   ar
    56    87    86   ar
    57    83    82   ar
    58    17    18    1
    59    86    84   ar
    60    71    72    1
    61    82    84   ar
    62    82    81    1
    63    81    78    1
    64   128   130   ar
    65   128   127   ar
    66   130   132   ar
    67    18    19    2
    68    18    20   am
    69    33    32    1
    70    72    75    1
    71    72    73    1
    72    20    21    1
    73   122   123    1
    74    30    31    2
    75    30    29    1
    76   125   124    2
    77   127   126    1
    78   127   129   ar
    79   132   131   ar
    80   126   123    1
    81   121   120   ar
    82   121   119   ar
    83    78    77    1
    84    78    79    1
    85   110   111    2
    86   110   109    1
    87   120   118   ar
    88    75    76    1
    89    28    22   am
    90    28    29    1
    91   119   117   ar
    92    22    21    1
    93    22    23    2
    94   123   124    1
    95    32    29    1
    96    21    24    1
    97   118   115   ar
    98    73    74    2
    99   109   108    1
   100   109   112    1
   101   117   115   ar
   102   117   116   ar
   103   131   129   ar
   104   115   113   ar
   105    79    88   am
   106    79    80    2
   107   116   114   ar
   108    88    89    1
   109   113   114   ar
   110   113   112    1
   111    24    25    1
   112    27    25    1
   113    25    26    1
   114    89    92    1
   115    89    90    1
   116   106   104    1
   117   107   105    1
   118   105   104    1
   119    90    91    2
   120   104   101    1
   121   101   102    1
   122   101   100    1
   123    99    97    1
   124    93    94    1
   125   102   103    2
   126    94    97    1
   127    94    95    1
   128    97    98    1
   129    95    96    2
