@<TRIPOS>MOLECULE
tmp/5gwkA00.pdb
 86 80 0 0 0
SMALL
GASTEIGER

@<TRIPOS>ATOM
      1  N         30.8630  -49.1480  -60.9250 N.3    26  GLU26      -0.1231
      2  CA        29.7310  -48.4290  -60.3570 C.3    26  GLU26       0.1699
      3  C         30.1490  -47.0120  -59.9870 C.2    26  GLU26       0.2593
      4  O         30.4530  -46.7280  -58.8280 O.2    26  GLU26      -0.2718
      5  CB        29.1890  -49.1640  -59.1280 C.3    26  GLU26       0.0402
      6  CG        27.8650  -48.6300  -58.6010 C.3    26  GLU26       0.1161
      7  CD        27.3180  -49.4660  -57.4580 C.2    26  GLU26       0.3649
      8  OE1       27.9630  -50.4710  -57.1000 O.co2  26  GLU26      -0.2457
      9  OE2       26.2360  -49.1360  -56.9300 O.co2  26  GLU26      -0.2457
     10  N         30.1820  -46.1270  -60.9770 N.am   27  GLY27      -0.1942
     11  CA        30.5390  -44.7430  -60.7320 C.3    27  GLY27       0.2014
     12  C         31.9970  -44.4390  -61.0130 C.2    27  GLY27       0.2639
     13  O         32.7750  -45.3270  -61.3580 O.2    27  GLY27      -0.2714
     14  N         32.3660  -43.1720  -60.8500 N.am   28  ASP28      -0.1957
     15  CA        33.7210  -42.7150  -61.1330 C.3    28  ASP28       0.1840
     16  C         34.6620  -43.0110  -59.9680 C.2    28  ASP28       0.2622
     17  O         35.8620  -43.2060  -60.1620 O.2    28  ASP28      -0.2715
     18  CB        33.7210  -41.2190  -61.4510 C.3    28  ASP28       0.1450
     19  CG        32.7420  -40.8580  -62.5540 C.2    28  ASP28       0.3671
     20  OD1       31.5530  -40.6300  -62.2460 O.co2  28  ASP28      -0.2456
     21  OD2       33.1620  -40.8030  -63.7290 O.co2  28  ASP28      -0.2456
     22  N         34.1100  -43.0360  -58.7600 N.am   29  SER29      -0.1950
     23  CA        34.8710  -43.3990  -57.5680 C.3    29  SER29       0.1924
     24  C         35.3800  -44.8310  -57.6830 C.2    29  SER29       0.2314
     25  O         36.5000  -45.1420  -57.2800 O.2    29  SER29      -0.2863
     26  CB        34.0150  -43.2390  -56.3120 C.3    29  SER29       0.2116
     27  OG        32.8650  -44.0650  -56.3730 O.3    29  SER29      -0.2180
     28  N         27.2740  -44.3150  -64.7950 N.3    52  ARG52      -0.1231
     29  CA        26.6860  -43.2810  -63.9540 C.3    52  ARG52       0.1694
     30  C         25.3960  -43.7770  -63.3080 C.2    52  ARG52       0.2592
     31  O         24.3110  -43.2700  -63.5900 O.2    52  ARG52      -0.2718
     32  CB        26.4250  -42.0130  -64.7720 C.3    52  ARG52       0.0321
     33  CG        27.6340  -41.5480  -65.5740 C.3    52  ARG52       0.0489
     34  CD        27.3230  -40.3170  -66.4100 C.3    52  ARG52       0.2205
     35  NE        27.2610  -39.1000  -65.6050 N.pl3  52  ARG52      -0.0865
     36  CZ        28.3060  -38.3190  -65.3490 C.cat  52  ARG52       0.5346
     37  NH1       29.5030  -38.6280  -65.8310 N.pl3  52  ARG52       0.1354
     38  NH2       28.1570  -37.2280  -64.6090 N.pl3  52  ARG52       0.1354
     39  N         25.5260  -44.7750  -62.4400 N.am   53  GLY53      -0.1957
     40  CA        24.3870  -45.3250  -61.7300 C.3    53  GLY53       0.1869
     41  C         23.7580  -46.5050  -62.4470 C.2    53  GLY53       0.2309
     42  O         24.4070  -47.1770  -63.2490 O.2    53  GLY53      -0.2863
     43  N         24.4530  -43.9520  -72.0850 N.3    71  GLU71      -0.1245
     44  CA        25.1570  -45.0100  -71.3630 C.3    71  GLU71       0.1567
     45  C         25.4600  -46.2330  -72.2310 C.2    71  GLU71       0.2260
     46  O         26.6150  -46.6390  -72.3550 O.2    71  GLU71      -0.2867
     47  CB        24.3520  -45.4430  -70.1330 C.3    71  GLU71       0.0388
     48  CG        24.5500  -44.5630  -68.9030 C.3    71  GLU71       0.1160
     49  CD        23.8850  -43.2040  -69.0310 C.2    71  GLU71       0.3649
     50  OE1       22.9980  -43.0500  -69.8970 O.co2  71  GLU71      -0.2457
     51  OE2       24.2490  -42.2900  -68.2610 O.co2  71  GLU71      -0.2457
     52  N         23.0820  -42.8500  -50.2730 N.3   325  GLY325     -0.1225
     53  CA        23.4310  -41.4730  -50.5740 C.3   325  GLY325      0.1811
     54  C         22.5600  -40.5110  -49.7910 C.2   325  GLY325      0.2280
     55  O         21.3410  -40.6740  -49.7440 O.2   325  GLY325     -0.2866
     56  N         21.6430  -37.6820  -50.4580 N.3   327  MET327     -0.1245
     57  CA        20.7430  -36.9600  -51.3500 C.3   327  MET327      0.1570
     58  C         19.3460  -37.5650  -51.3360 C.2   327  MET327      0.2261
     59  O         18.3500  -36.8550  -51.4760 O.2   327  MET327     -0.2867
     60  CB        21.3170  -36.9540  -52.7620 C.3   327  MET327      0.0387
     61  CG        22.8210  -36.8230  -52.7410 C.3   327  MET327      0.0595
     62  SD        23.3020  -35.4310  -51.7030 S.3   327  MET327     -0.1393
     63  CE        25.0170  -35.8280  -51.4010 C.3   327  MET327      0.0692
     64  N         17.8090  -36.2140  -48.3040 N.3   330  MET330     -0.1230
     65  CA        17.4400  -34.8160  -48.5070 C.3   330  MET330      0.1702
     66  C         16.1150  -34.6860  -49.2450 C.2   330  MET330      0.2592
     67  O         15.2510  -33.9030  -48.8520 O.2   330  MET330     -0.2718
     68  CB        18.5360  -34.0760  -49.2750 C.3   330  MET330      0.0401
     69  CG        19.7700  -33.7790  -48.4450 C.3   330  MET330      0.0596
     70  SD        21.0860  -33.0030  -49.3940 S.3   330  MET330     -0.1393
     71  CE        22.5140  -33.4700  -48.4180 C.3   330  MET330      0.0692
     72  N         15.9660  -35.4560  -50.3170 N.am  331  MET331     -0.1979
     73  CA        14.7330  -35.4590  -51.0940 C.3   331  MET331      0.1605
     74  C         13.5740  -35.9790  -50.2490 C.2   331  MET331      0.2287
     75  O         12.4460  -35.4990  -50.3600 O.2   331  MET331     -0.2864
     76  CB        14.9000  -36.3070  -52.3550 C.3   331  MET331      0.0413
     77  CG        15.6690  -35.6120  -53.4660 C.3   331  MET331      0.0598
     78  SD        15.8870  -36.6540  -54.9210 S.3   331  MET331     -0.1393
     79  CE        14.1820  -37.0060  -55.3460 C.3   331  MET331      0.0692
     80  N         18.4790  -28.0960  -51.1270 N.3   368  PRO368     -0.2116
     81  CA        18.3910  -28.5810  -49.7450 C.3   368  PRO368      0.1372
     82  C         19.3950  -27.9210  -48.8010 C.2   368  PRO368      0.2244
     83  O         19.2210  -27.9960  -47.5860 O.2   368  PRO368     -0.2868
     84  CB        18.6830  -30.0810  -49.8800 C.3   368  PRO368      0.0268
     85  CG        19.4240  -30.2150  -51.1650 C.3   368  PRO368      0.0207
     86  CD        18.8440  -29.1710  -52.0650 C.3   368  PRO368      0.0892
@<TRIPOS>BOND
     1    46    45    2
     2    45    44    1
     3    43    44    1
     4    44    47    1
     5    47    48    1
     6    50    49   ar
     7    49    48    1
     8    49    51   ar
     9    34    35    1
    10    34    33    1
    11    37    36    1
    12    35    36    2
    13    33    32    1
    14    36    38    1
    15    28    29    1
    16    32    29    1
    17    29    30    1
    18    21    19   ar
    19    31    30    2
    20    30    39   am
    21    42    41    2
    22    19    20   ar
    23    19    18    1
    24    41    40    1
    25    39    40    1
    26    18    15    1
    27    13    12    2
    28    15    14    1
    29    15    16    1
    30    12    14   am
    31    12    11    1
    32    10    11    1
    33    10     3   am
    34     1     2    1
    35     2     3    1
    36     2     5    1
    37    17    16    2
    38     3     4    2
    39    16    22   am
    40     5     6    1
    41    22    23    1
    42     6     7    1
    43    24    23    1
    44    24    25    2
    45    23    26    1
    46     7     8   ar
    47     7     9   ar
    48    27    26    1
    49    79    78    1
    50    78    77    1
    51    77    76    1
    52    60    61    1
    53    60    57    1
    54    61    62    1
    55    76    73    1
    56    86    85    1
    57    86    80    1
    58    62    63    1
    59    59    58    2
    60    57    58    1
    61    57    56    1
    62    85    84    1
    63    80    81    1
    64    73    72    1
    65    73    74    1
    66    53    52    1
    67    53    54    1
    68    75    74    2
    69    72    66   am
    70    84    81    1
    71    54    55    2
    72    81    82    1
    73    70    69    1
    74    70    71    1
    75    68    65    1
    76    68    69    1
    77    66    67    2
    78    66    65    1
    79    82    83    2
    80    65    64    1
