@<TRIPOS>MOLECULE
tmp/5gwoD00.pdb
 201 192 0 0 0
SMALL
GASTEIGER

@<TRIPOS>ATOM
      1  N        -18.0150   42.4490   -6.6170 N.3    46  LYS46      -0.1245
      2  CA       -19.2450   43.1920   -6.8590 C.3    46  LYS46       0.1561
      3  C        -19.7350   42.9630   -8.2830 C.2    46  LYS46       0.2260
      4  O        -19.0830   43.4250   -9.2300 O.2    46  LYS46      -0.2867
      5  CB       -19.0280   44.6730   -6.5830 C.3    46  LYS46       0.0271
      6  CG       -18.9790   44.9960   -5.0990 C.3    46  LYS46       0.0035
      7  CD       -18.6460   46.4470   -4.8750 C.3    46  LYS46       0.0206
      8  CE       -18.4930   46.7750   -3.3950 C.3    46  LYS46       0.1093
      9  NZ       -19.7630   46.5920   -2.6450 N.3    46  LYS46      -0.1314
     10  N        -22.1200   44.1580  -10.2140 N.3    48  PHE48      -0.1227
     11  CA       -22.6290   45.2600  -11.0230 C.3    48  PHE48       0.1736
     12  C        -21.5290   46.2070  -11.5060 C.2    48  PHE48       0.2595
     13  O        -21.8360   47.2460  -12.0980 O.2    48  PHE48      -0.2718
     14  CB       -23.6700   46.0450  -10.2230 C.3    48  PHE48       0.0547
     15  CG       -24.9170   45.2750   -9.9650 C.ar   48  PHE48      -0.0202
     16  CD1      -25.8570   45.1040  -10.9610 C.ar   48  PHE48      -0.0042
     17  CD2      -25.1260   44.6770   -8.7330 C.ar   48  PHE48      -0.0042
     18  CE1      -26.9920   44.3690  -10.7260 C.ar   48  PHE48      -0.0003
     19  CE2      -26.2560   43.9440   -8.4900 C.ar   48  PHE48      -0.0003
     20  CZ       -27.1950   43.7840   -9.4860 C.ar   48  PHE48      -0.0000
     21  N        -20.2620   45.8680  -11.2880 N.am   49  VAL49      -0.1980
     22  CA       -19.1530   46.7590  -11.6020 C.3    49  VAL49       0.1595
     23  C        -18.5750   46.3930  -12.9650 C.2    49  VAL49       0.2287
     24  O        -18.1230   45.2630  -13.1810 O.2    49  VAL49      -0.2864
     25  CB       -18.0700   46.7120  -10.5120 C.3    49  VAL49       0.0276
     26  CG1      -16.9780   47.7020  -10.8310 C.3    49  VAL49       0.0022
     27  CG2      -18.6650   46.9910   -9.1230 C.3    49  VAL49       0.0022
     28  N        -11.7240   55.8910   -5.7410 N.3    64  ARG64      -0.1245
     29  CA       -11.9510   55.1000   -6.9380 C.3    64  ARG64       0.1563
     30  C        -13.2180   55.5910   -7.6120 C.2    64  ARG64       0.2260
     31  O        -14.2020   55.9240   -6.9410 O.2    64  ARG64      -0.2867
     32  CB       -12.0690   53.6150   -6.6310 C.3    64  ARG64       0.0307
     33  CG       -13.3650   53.2420   -5.9760 C.3    64  ARG64       0.0489
     34  CD       -13.2710   51.8550   -5.4110 C.3    64  ARG64       0.2205
     35  NE       -14.4770   51.5050   -4.6870 N.pl3  64  ARG64      -0.0865
     36  CZ       -14.5750   50.4650   -3.8750 C.cat  64  ARG64       0.5346
     37  NH1      -13.5250   49.6820   -3.6820 N.pl3  64  ARG64       0.1354
     38  NH2      -15.7090   50.2290   -3.2340 N.pl3  64  ARG64       0.1354
     39  N        -16.0550   54.3230  -10.0870 N.3    66  VAL66      -0.1245
     40  CA       -16.6670   53.0560  -10.4800 C.3    66  VAL66       0.1561
     41  C        -17.7610   53.3070  -11.5130 C.2    66  VAL66       0.2260
     42  O        -18.5720   54.2310  -11.3680 O.2    66  VAL66      -0.2867
     43  CB       -17.2490   52.3240   -9.2550 C.3    66  VAL66       0.0252
     44  CG1      -18.1000   51.1670   -9.7010 C.3    66  VAL66       0.0019
     45  CG2      -16.1290   51.8430   -8.3400 C.3    66  VAL66       0.0019
     46  N        -20.9780   51.2630  -13.4000 N.3    68  VAL68      -0.1245
     47  CA       -21.8350   50.0990  -13.1800 C.3    68  VAL68       0.1561
     48  C        -22.4990   49.6740  -14.4820 C.2    68  VAL68       0.2260
     49  O        -22.6300   50.4440  -15.4380 O.2    68  VAL68      -0.2867
     50  CB       -22.8990   50.3380  -12.0890 C.3    68  VAL68       0.0252
     51  CG1      -22.2410   50.3990  -10.7110 C.3    68  VAL68       0.0019
     52  CG2      -23.7120   51.5970  -12.3800 C.3    68  VAL68       0.0019
     53  N        -29.7530   49.1440  -13.8740 N.3    72  LEU72      -0.1231
     54  CA       -29.6800   49.7550  -12.5580 C.3    72  LEU72       0.1678
     55  C        -30.0790   51.2180  -12.6680 C.2    72  LEU72       0.2434
     56  O        -30.0040   51.8050  -13.7510 O.2    72  LEU72      -0.2733
     57  CB       -28.2650   49.6640  -11.9730 C.3    72  LEU72       0.0284
     58  CG       -27.7570   48.2930  -11.5730 C.3    72  LEU72       0.0019
     59  CD1      -26.2670   48.4130  -11.3150 C.3    72  LEU72       0.0001
     60  CD2      -28.4980   47.8050  -10.3400 C.3    72  LEU72       0.0001
     61  N        -30.4410   51.8450  -11.5530 N.am   73  PRO73      -0.2718
     62  CA       -30.8890   53.2400  -11.6140 C.3    73  PRO73       0.1535
     63  C        -29.7560   54.2490  -11.7420 C.2    73  PRO73       0.2598
     64  O        -30.0400   55.4480  -11.8180 O.2    73  PRO73      -0.2715
     65  CB       -31.6580   53.4230  -10.2860 C.3    73  PRO73       0.0310
     66  CG       -31.4470   52.1490   -9.4880 C.3    73  PRO73       0.0237
     67  CD       -30.3680   51.3560  -10.1700 C.3    73  PRO73       0.0939
     68  N        -28.4920   53.8120  -11.7550 N.am   74  ALA74      -0.1978
     69  CA       -27.3410   54.7040  -11.8550 C.3    74  ALA74       0.1597
     70  C        -26.2770   54.0810  -12.7530 C.2    74  ALA74       0.2287
     71  O        -26.3660   52.9140  -13.1360 O.2    74  ALA74      -0.2864
     72  CB       -26.7540   55.0150  -10.4710 C.3    74  ALA74       0.0319
     73  N        -22.5160   55.5040  -12.5160 N.3    76  ARG76      -0.1231
     74  CA       -21.1670   55.7110  -11.9910 C.3    76  ARG76       0.1694
     75  C        -21.2550   56.2280  -10.5610 C.2    76  ARG76       0.2592
     76  O        -22.2020   56.9320  -10.2030 O.2    76  ARG76      -0.2718
     77  CB       -20.3640   56.7090  -12.8390 C.3    76  ARG76       0.0321
     78  CG       -20.9780   58.1130  -12.9350 C.3    76  ARG76       0.0489
     79  CD       -20.0130   59.1620  -13.5200 C.3    76  ARG76       0.2205
     80  NE       -20.6720   60.4650  -13.5830 N.pl3  76  ARG76      -0.0865
     81  CZ       -20.6260   61.3800  -12.6140 C.cat  76  ARG76       0.5346
     82  NH1      -19.9310   61.1500  -11.5060 N.pl3  76  ARG76       0.1354
     83  NH2      -21.2780   62.5270  -12.7520 N.pl3  76  ARG76       0.1354
     84  N        -20.2380   55.9190   -9.7570 N.am   77  SER77      -0.1952
     85  CA       -20.1730   56.4640   -8.4070 C.3    77  SER77       0.1924
     86  C        -18.7160   56.6750   -8.0150 C.2    77  SER77       0.2314
     87  O        -17.8250   55.9510   -8.4660 O.2    77  SER77      -0.2863
     88  CB       -20.8880   55.5590   -7.3850 C.3    77  SER77       0.2116
     89  OG       -20.0030   54.6910   -6.6970 O.3    77  SER77      -0.2180
     90  N        -16.1120   56.8750   -4.8520 N.3    79  GLU79      -0.1245
     91  CA       -16.0350   56.3880   -3.4850 C.3    79  GLU79       0.1567
     92  C        -14.6380   56.5800   -2.9300 C.2    79  GLU79       0.2260
     93  O        -13.6490   56.4030   -3.6450 O.2    79  GLU79      -0.2867
     94  CB       -16.4070   54.9240   -3.4190 C.3    79  GLU79       0.0388
     95  CG       -17.7070   54.6770   -4.1250 C.3    79  GLU79       0.1160
     96  CD       -17.9470   53.2300   -4.4720 C.2    79  GLU79       0.3649
     97  OE1      -17.2320   52.3440   -3.9440 O.co2  79  GLU79      -0.2457
     98  OE2      -18.8530   52.9980   -5.3020 O.co2  79  GLU79      -0.2457
     99  N        -19.4310   57.0670   -0.0810 N.3    95  PHE95      -0.1241
    100  CA       -19.7800   57.5190   -1.4230 C.3    95  PHE95       0.1605
    101  C        -19.7420   59.0330   -1.4310 C.2    95  PHE95       0.2264
    102  O        -20.5580   59.6780   -0.7700 O.2    95  PHE95      -0.2867
    103  CB       -21.1620   57.0220   -1.8490 C.3    95  PHE95       0.0534
    104  CG       -21.2290   55.5490   -2.1030 C.ar   95  PHE95      -0.0203
    105  CD1      -20.1100   54.7530   -1.9510 C.ar   95  PHE95      -0.0042
    106  CD2      -22.4120   54.9630   -2.5040 C.ar   95  PHE95      -0.0042
    107  CE1      -20.1690   53.3880   -2.1770 C.ar   95  PHE95      -0.0003
    108  CE2      -22.4840   53.5930   -2.7480 C.ar   95  PHE95      -0.0003
    109  CZ       -21.3600   52.8040   -2.5830 C.ar   95  PHE95      -0.0000
    110  N        -25.9360   58.7920   -8.7160 N.3   100  HIS100     -0.1226
    111  CA       -26.9430   58.0100   -8.0170 C.3   100  HIS100      0.1752
    112  C        -27.6930   58.8750   -7.0010 C.2   100  HIS100      0.2596
    113  O        -27.5340   60.0990   -6.9500 O.2   100  HIS100     -0.2718
    114  CB       -26.2620   56.8110   -7.3590 C.3   100  HIS100      0.0759
    115  CG       -25.0840   57.1850   -6.5210 C.ar  100  HIS100      0.0818
    116  ND1      -25.1850   57.4500   -5.1730 N.ar  100  HIS100     -0.2268
    117  CD2      -23.7790   57.3590   -6.8410 C.ar  100  HIS100      0.1154
    118  CE1      -23.9920   57.7670   -4.6980 C.ar  100  HIS100      0.1986
    119  NE2      -23.1200   57.7150   -5.6890 N.ar  100  HIS100     -0.2212
    120  N        -28.5040   58.2370   -6.1600 N.am  101  ARG101     -0.1966
    121  CA       -29.2990   58.9510   -5.1710 C.3   101  ARG101      0.1729
    122  C        -29.0060   58.4550   -3.7590 C.2   101  ARG101      0.2616
    123  O        -29.8810   58.4700   -2.8920 O.2   101  ARG101     -0.2715
    124  CB       -30.7880   58.8440   -5.4900 C.3   101  ARG101      0.0348
    125  CG       -31.1120   59.1590   -6.9410 C.3   101  ARG101      0.0492
    126  CD       -32.5250   59.6710   -7.1040 C.3   101  ARG101      0.2205
    127  NE       -33.5040   58.8070   -6.4710 N.pl3 101  ARG101     -0.0865
    128  CZ       -34.5910   59.2570   -5.8520 C.cat 101  ARG101      0.5346
    129  NH1      -34.8280   60.5610   -5.7710 N.pl3 101  ARG101      0.1354
    130  NH2      -35.4380   58.4050   -5.3030 N.pl3 101  ARG101      0.1354
    131  N        -27.7540   58.0720   -3.5120 N.am  102  LEU102     -0.1977
    132  CA       -27.2600   57.6350   -2.2060 C.3   102  LEU102      0.1596
    133  C        -26.2340   58.6550   -1.7110 C.2   102  LEU102      0.2287
    134  O        -25.0240   58.4380   -1.7860 O.2   102  LEU102     -0.2864
    135  CB       -26.6660   56.2130   -2.3030 C.3   102  LEU102      0.0297
    136  CG       -27.6930   55.1470   -2.6760 C.3   102  LEU102      0.0022
    137  CD1      -27.1000   53.7350   -2.6760 C.3   102  LEU102      0.0001
    138  CD2      -28.8770   55.2470   -1.7230 C.3   102  LEU102      0.0001
    139  N        -23.4900   58.1130    1.6710 N.3   105  TYR105     -0.1241
    140  CA       -23.4750   56.6900    1.9360 C.3   105  TYR105      0.1605
    141  C        -22.1530   56.2970    2.5810 C.2   105  TYR105      0.2264
    142  O        -21.0720   56.6220    2.0770 O.2   105  TYR105     -0.2867
    143  CB       -23.6980   55.9180    0.6410 C.3   105  TYR105      0.0534
    144  CG       -23.6310   54.4230    0.8050 C.ar  105  TYR105     -0.0201
    145  CD1      -22.4140   53.7500    0.7340 C.ar  105  TYR105     -0.0009
    146  CD2      -24.7820   53.6790    1.0410 C.ar  105  TYR105     -0.0009
    147  CE1      -22.3490   52.3790    0.8850 C.ar  105  TYR105      0.0417
    148  CE2      -24.7220   52.3050    1.1940 C.ar  105  TYR105      0.0417
    149  CZ       -23.5060   51.6650    1.1080 C.ar  105  TYR105      0.1957
    150  OH       -23.4390   50.3050    1.2520 O.3   105  TYR105     -0.2866
    151  N        -22.0860   43.5520    6.4620 N.3   126  GLU126     -0.1245
    152  CA       -21.9460   44.9010    5.9350 C.3   126  GLU126      0.1567
    153  C        -23.1360   45.7380    6.3810 C.2   126  GLU126      0.2260
    154  O        -24.2900   45.3510    6.1700 O.2   126  GLU126     -0.2867
    155  CB       -21.8230   44.9220    4.4040 C.3   126  GLU126      0.0388
    156  CG       -21.4550   46.3080    3.8590 C.3   126  GLU126      0.1160
    157  CD       -21.0540   46.3270    2.3820 C.2   126  GLU126      0.3649
    158  OE1      -21.0520   45.2560    1.7280 O.co2 126  GLU126     -0.2457
    159  OE2      -20.7520   47.4350    1.8700 O.co2 126  GLU126     -0.2457
    160  N        -33.7830   48.9100   -0.9360 N.3   144  PHE144     -0.1227
    161  CA       -32.8780   49.0780   -2.0700 C.3   144  PHE144      0.1736
    162  C        -31.4500   48.6880   -1.6990 C.2   144  PHE144      0.2595
    163  O        -30.8520   47.7790   -2.2990 O.2   144  PHE144     -0.2718
    164  CB       -32.9480   50.5310   -2.5430 C.3   144  PHE144      0.0547
    165  CG       -32.0510   50.8500   -3.7100 C.ar  144  PHE144     -0.0202
    166  CD1      -32.1070   50.1030   -4.8780 C.ar  144  PHE144     -0.0042
    167  CD2      -31.1960   51.9470   -3.6610 C.ar  144  PHE144     -0.0042
    168  CE1      -31.2950   50.4070   -5.9550 C.ar  144  PHE144     -0.0003
    169  CE2      -30.3950   52.2590   -4.7360 C.ar  144  PHE144     -0.0003
    170  CZ       -30.4400   51.4830   -5.8860 C.ar  144  PHE144     -0.0000
    171  N        -30.8900   49.3540   -0.6890 N.am  145  VAL145     -0.1980
    172  CA       -29.5150   49.0640   -0.3130 C.3   145  VAL145      0.1595
    173  C        -29.3650   47.6000    0.0700 C.2   145  VAL145      0.2287
    174  O        -28.3420   46.9700   -0.2180 O.2   145  VAL145     -0.2864
    175  CB       -29.0690   49.9910    0.8270 C.3   145  VAL145      0.0276
    176  CG1      -27.6400   49.6930    1.2020 C.3   145  VAL145      0.0022
    177  CG2      -29.2160   51.4360    0.4150 C.3   145  VAL145      0.0022
    178  N        -29.0850   45.4100   -3.0510 N.3   148  LEU148     -0.1231
    179  CA       -27.7620   45.5280   -3.6590 C.3   148  LEU148      0.1693
    180  C        -26.7060   44.8020   -2.8280 C.2   148  LEU148      0.2591
    181  O        -25.8900   44.0370   -3.3590 O.2   148  LEU148     -0.2718
    182  CB       -27.3940   46.9970   -3.8480 C.3   148  LEU148      0.0284
    183  CG       -28.1600   47.7400   -4.9460 C.3   148  LEU148      0.0019
    184  CD1      -27.6590   49.1560   -5.0140 C.3   148  LEU148      0.0001
    185  CD2      -28.0480   47.0720   -6.3070 C.3   148  LEU148      0.0001
    186  N        -26.7000   45.0330   -1.5160 N.am  149  LEU149     -0.1980
    187  CA       -25.6850   44.4040   -0.6840 C.3   149  LEU149      0.1596
    188  C        -25.8350   42.8930   -0.6740 C.2   149  LEU149      0.2287
    189  O        -24.8300   42.1760   -0.6450 O.2   149  LEU149     -0.2864
    190  CB       -25.7550   44.9590    0.7350 C.3   149  LEU149      0.0297
    191  CG       -25.3910   46.4480    0.8150 C.3   149  LEU149      0.0022
    192  CD1      -25.4110   46.9570    2.2510 C.3   149  LEU149      0.0001
    193  CD2      -24.0570   46.7210    0.1400 C.3   149  LEU149      0.0001
    194  N        -24.1270   41.7140   -3.6080 N.3   152  ASN152     -0.1240
    195  CA       -22.6850   41.8060   -3.4150 C.3   152  ASN152      0.1653
    196  C        -22.1680   40.6440   -2.5790 C.2   152  ASN152      0.2266
    197  O        -21.1840   39.9930   -2.9410 O.2   152  ASN152     -0.2867
    198  CB       -22.3270   43.1370   -2.7650 C.3   152  ASN152      0.1155
    199  CG       -22.4550   44.3070   -3.7200 C.2   152  ASN152      0.2627
    200  OD1      -22.5970   44.1290   -4.9320 O.2   152  ASN152     -0.2716
    201  ND2      -22.3700   45.5200   -3.1770 N.am  152  ASN152     -0.0877
@<TRIPOS>BOND
     1    49    48    2
     2    48    47    1
     3    53    54    1
     4    56    55    2
     5    80    79    1
     6    80    81    2
     7    79    78    1
     8    46    47    1
     9    24    23    2
    10    47    50    1
    11    71    70    2
    12    23    22    1
    13    78    77    1
    14    77    74    1
    15    70    69    1
    16    83    81    1
    17    55    54    1
    18    55    61   am
    19    81    82    1
    20    54    57    1
    21    73    74    1
    22    52    50    1
    23    13    12    2
    24    50    51    1
    25    74    75    1
    26    57    58    1
    27    69    68    1
    28    69    72    1
    29    64    63    2
    30    68    63   am
    31    63    62    1
    32    62    61    1
    33    62    65    1
    34    22    21    1
    35    22    25    1
    36    58    59    1
    37    58    60    1
    38    61    67    1
    39    41    42    2
    40    41    40    1
    41    12    21   am
    42    12    11    1
    43    11    14    1
    44    11    10    1
    45    16    18   ar
    46    16    15   ar
    47    26    25    1
    48    18    20   ar
    49    75    76    2
    50    75    84   am
    51    25    27    1
    52    40    39    1
    53    40    43    1
    54    65    66    1
    55    14    15    1
    56    67    66    1
    57    15    17   ar
    58    84    85    1
    59    44    43    1
    60    20    19   ar
    61    43    45    1
    62     4     3    2
    63    17    19   ar
    64   110   111    1
    65    87    86    2
    66    85    86    1
    67    85    88    1
    68     3     2    1
    69   111   114    1
    70   111   112    1
    71    30    31    2
    72    30    29    1
    73    88    89    1
    74   114   115    1
    75   126   125    1
    76   126   127    1
    77   112   113    2
    78   112   120   am
    79   125   124    1
    80    29    32    1
    81    29    28    1
    82     2     1    1
    83     2     5    1
    84   117   115   ar
    85   117   119   ar
    86    32    33    1
    87     5     6    1
    88   115   116   ar
    89   127   128    2
    90   185   183    1
    91   120   121    1
    92    33    34    1
    93   168   170   ar
    94   168   166   ar
    95   170   169   ar
    96   128   129    1
    97   128   130    1
    98   119   118   ar
    99   124   121    1
   100    34    35    1
   101    98    96   ar
   102   116   118   ar
   103   121   122    1
   104     6     7    1
   105   184   183    1
   106   183   182    1
   107   200   199    2
   108   166   165   ar
   109     7     8    1
   110    90    91    1
   111   169   167   ar
   112    35    36    2
   113    96    95    1
   114    96    97   ar
   115    95    94    1
   116    36    37    1
   117    36    38    1
   118   182   179    1
   119   122   131   am
   120   122   123    2
   121   199   201   am
   122   199   198    1
   123   165   167   ar
   124   165   164    1
   125   179   178    1
   126   179   180    1
   127    93    92    2
   128   194   195    1
   129   131   132    1
   130    91    94    1
   131    91    92    1
   132   195   198    1
   133   195   196    1
   134     8     9    1
   135   181   180    2
   136   197   196    2
   137   180   186   am
   138   108   109   ar
   139   108   106   ar
   140   136   137    1
   141   136   135    1
   142   136   138    1
   143   109   107   ar
   144   164   161    1
   145   106   104   ar
   146   135   132    1
   147   163   162    2
   148   132   133    1
   149   107   105   ar
   150   104   105   ar
   151   104   103    1
   152   161   162    1
   153   161   160    1
   154   103   100    1
   155   134   133    2
   156   162   171   am
   157   186   187    1
   158   101   100    1
   159   101   102    2
   160   100    99    1
   161   171   172    1
   162   187   188    1
   163   187   190    1
   164   188   189    2
   165   172   173    1
   166   172   175    1
   167   174   173    2
   168   193   191    1
   169   177   175    1
   170   143   144    1
   171   143   140    1
   172   145   144   ar
   173   145   147   ar
   174   190   191    1
   175   144   146   ar
   176   191   192    1
   177   175   176    1
   178   147   149   ar
   179   146   148   ar
   180   149   148   ar
   181   149   150    1
   182   139   140    1
   183   158   157   ar
   184   159   157   ar
   185   140   141    1
   186   142   141    2
   187   157   156    1
   188   156   155    1
   189   155   152    1
   190   152   153    1
   191   152   151    1
   192   154   153    2
