@<TRIPOS>MOLECULE
tmp/5gwrD00.pdb
 114 107 0 0 0
SMALL
GASTEIGER

@<TRIPOS>ATOM
      1  N         17.0320   19.6010  -12.8110 N.3     8  GLY8       -0.1225
      2  CA        16.0470   20.4550  -13.4930 C.3     8  GLY8        0.1811
      3  C         16.4700   20.9350  -14.8820 C.2     8  GLY8        0.2280
      4  O         15.9380   21.9260  -15.4190 O.2     8  GLY8       -0.2866
      5  N         15.8700   20.1890  -18.0220 N.3    10  ASN10      -0.1225
      6  CA        15.0410   20.1730  -19.2090 C.3    10  ASN10       0.1785
      7  C         14.2490   21.4290  -19.3840 C.2    10  ASN10       0.2598
      8  O         13.5830   21.5920  -20.3840 O.2    10  ASN10      -0.2718
      9  CB        14.0700   18.9810  -19.1410 C.3    10  ASN10       0.1169
     10  CG        13.4600   18.6270  -20.5210 C.2    10  ASN10       0.2627
     11  OD1       14.1880   18.2910  -21.4510 O.2    10  ASN10      -0.2716
     12  ND2       12.1490   18.7880  -20.6530 N.am   10  ASN10      -0.0877
     13  N         14.2750   22.3290  -18.4020 N.am   11  SER11      -0.1938
     14  CA        13.3870   23.4760  -18.4350 C.3    11  SER11       0.2055
     15  C         14.0220   24.6660  -17.7220 C.2    11  SER11       0.2643
     16  O         14.8670   24.4410  -16.8440 O.2    11  SER11      -0.2714
     17  CB        12.1420   23.0790  -17.7030 C.3    11  SER11       0.2130
     18  OG        11.1210   23.9340  -18.0770 O.3    11  SER11      -0.2179
     19  N         13.6640   25.8940  -18.1310 N.am   12  GLY12      -0.1954
     20  CA        13.8840   27.1310  -17.3440 C.3    12  GLY12       0.1869
     21  C         15.3430   27.3500  -16.9680 C.2    12  GLY12       0.2309
     22  O         16.2260   27.2970  -17.8350 O.2    12  GLY12      -0.2863
     23  N         16.9660   15.2670  -15.0850 N.3    32  ASP32      -0.1225
     24  CA        15.5880   15.6500  -15.1570 C.3    32  ASP32       0.1805
     25  C         14.7110   14.4020  -15.3510 C.2    32  ASP32       0.2598
     26  O         15.1970   13.2980  -15.7230 O.2    32  ASP32      -0.2718
     27  CB        15.3380   16.6670  -16.2650 C.3    32  ASP32       0.1424
     28  CG        14.1510   17.6040  -15.9400 C.2    32  ASP32       0.3668
     29  OD1       13.0270   17.1050  -15.7210 O.co2  32  ASP32      -0.2456
     30  OD2       14.3330   18.8580  -15.8410 O.co2  32  ASP32      -0.2456
     31  N         13.4490   14.5670  -14.9950 N.am   33  ILE33      -0.1966
     32  CA        12.4490   13.5220  -15.1550 C.3    33  ILE33       0.1727
     33  C         12.0160   13.4520  -16.6350 C.2    33  ILE33       0.2616
     34  O         11.7800   12.3750  -17.1380 O.2    33  ILE33      -0.2715
     35  CB        11.2750   13.6850  -14.1640 C.3    33  ILE33       0.0290
     36  CG1       10.5000   12.3610  -14.0340 C.3    33  ILE33       0.0022
     37  CG2       10.3760   14.8690  -14.5300 C.3    33  ILE33       0.0023
     38  CD1        9.2220   12.4890  -13.2210 C.3    33  ILE33       0.0001
     39  N         12.0020   14.5910  -17.3260 N.am   34  ASN34      -0.1972
     40  CA        11.8110   14.6610  -18.7840 C.3    34  ASN34       0.1688
     41  C         13.1140   14.9790  -19.5240 C.2    34  ASN34       0.2292
     42  O         14.0940   15.4610  -18.9300 O.2    34  ASN34      -0.2864
     43  CB        10.8270   15.7670  -19.1140 C.3    34  ASN34       0.1181
     44  CG         9.5560   15.6790  -18.3120 C.2    34  ASN34       0.2629
     45  OD1        8.9340   14.6230  -18.2070 O.2    34  ASN34      -0.2716
     46  ND2        9.1600   16.7990  -17.7380 N.am   34  ASN34      -0.0877
     47  N         15.5580   10.7900  -14.7260 N.3    46  ILE46      -0.1231
     48  CA        15.5300   10.4330  -13.2680 C.3    46  ILE46       0.1692
     49  C         14.4660   11.2340  -12.5510 C.2    46  ILE46       0.2592
     50  O         14.2480   12.4230  -12.8200 O.2    46  ILE46      -0.2718
     51  CB        16.9040   10.5530  -12.5720 C.3    46  ILE46       0.0266
     52  CG1       16.7950   10.2130  -11.0710 C.3    46  ILE46       0.0019
     53  CG2       17.5200   11.9590  -12.7680 C.3    46  ILE46       0.0020
     54  CD1       18.1170   10.0220  -10.3690 C.3    46  ILE46       0.0001
     55  N         13.7410   10.5430  -11.7060 N.am   47  ASP47      -0.1960
     56  CA        12.6800   11.1330  -10.9180 C.3    47  ASP47       0.1840
     57  C         13.3510   11.3810   -9.5840 C.2    47  ASP47       0.2622
     58  O         13.5770   10.4480   -8.8120 O.2    47  ASP47      -0.2715
     59  CB        11.4720   10.1770  -10.7940 C.3    47  ASP47       0.1450
     60  CG        10.3900   10.7160   -9.8470 C.2    47  ASP47       0.3671
     61  OD1       10.6010   11.7710   -9.2460 O.co2  47  ASP47      -0.2456
     62  OD2        9.3410   10.0820   -9.6770 O.co2  47  ASP47      -0.2456
     63  N         13.7010   12.6480   -9.3370 N.am   48  LEU48      -0.1963
     64  CA        14.4680   12.9970   -8.1350 C.3    48  LEU48       0.1728
     65  C         13.6830   12.8100   -6.8480 C.2    48  LEU48       0.2616
     66  O         14.3000   12.7720   -5.7980 O.2    48  LEU48      -0.2715
     67  CB        15.0500   14.4190   -8.2150 C.3    48  LEU48       0.0311
     68  CG        16.0930   14.5230   -9.3130 C.3    48  LEU48       0.0022
     69  CD1       16.5130   15.9660   -9.5690 C.3    48  LEU48       0.0001
     70  CD2       17.3070   13.6570   -9.0000 C.3    48  LEU48       0.0001
     71  N         12.3650   12.6360   -6.9220 N.am   49  SER49      -0.1950
     72  CA        11.5580   12.2380   -5.7340 C.3    49  SER49       0.1924
     73  C         11.8100   10.8500   -5.2540 C.2    49  SER49       0.2314
     74  O         11.3940   10.5260   -4.1570 O.2    49  SER49      -0.2863
     75  CB        10.0410   12.4050   -5.9480 C.3    49  SER49       0.2116
     76  OG         9.5190   11.4350   -6.8470 O.3    49  SER49      -0.2180
     77  N         18.7600   22.8180   -9.2920 N.3    74  ALA74      -0.1231
     78  CA        17.7410   23.6330   -9.9350 C.3    74  ALA74       0.1694
     79  C         16.4640   22.9400  -10.1910 C.2    74  ALA74       0.2592
     80  O         15.6310   23.5290  -10.7700 O.2    74  ALA74      -0.2718
     81  CB        18.2480   24.2210  -11.2450 C.3    74  ALA74       0.0304
     82  N         16.3010   21.6780   -9.8540 N.am   75  ALA75      -0.1966
     83  CA        14.9830   21.0500  -10.0260 C.3    75  ALA75       0.1728
     84  C         14.0500   21.6380   -8.9750 C.2    75  ALA75       0.2617
     85  O         14.4430   21.8790   -7.8480 O.2    75  ALA75      -0.2715
     86  CB        15.0990   19.5490   -9.8560 C.3    75  ALA75       0.0334
     87  N         12.7920   21.7890   -9.3120 N.am   76  GLY76      -0.1940
     88  CA        11.8410   22.4000   -8.3970 C.3    76  GLY76       0.2014
     89  C         10.4620   22.1360   -8.9340 C.2    76  GLY76       0.2638
     90  O         10.2910   22.0110  -10.1580 O.2    76  GLY76      -0.2714
     91  N          9.4770   21.9880   -8.0480 N.am   77  ILE77      -0.1977
     92  CA         8.0760   22.0340   -8.4730 C.3    77  ILE77       0.1596
     93  C          7.3800   23.0360   -7.6230 C.2    77  ILE77       0.2287
     94  O          7.7360   23.2130   -6.4630 O.2    77  ILE77      -0.2864
     95  CB         7.3650   20.6350   -8.4140 C.3    77  ILE77       0.0276
     96  CG1        7.5630   19.8860   -7.1250 C.3    77  ILE77       0.0022
     97  CG2        7.9260   19.7110   -9.4980 C.3    77  ILE77       0.0022
     98  CD1        6.9160   18.5010   -7.1680 C.3    77  ILE77       0.0001
     99  N          5.4470   15.3630   -1.8680 N.3    93  LYS93      -0.1245
    100  CA         6.1320   15.3290   -3.1560 C.3    93  LYS93       0.1561
    101  C          6.9420   16.6680   -3.3600 C.2    93  LYS93       0.2260
    102  O          8.0740   16.6440   -3.8240 O.2    93  LYS93      -0.2867
    103  CB         5.1080   15.1310   -4.2820 C.3    93  LYS93       0.0271
    104  CG         5.6000   15.2020   -5.7300 C.3    93  LYS93       0.0035
    105  CD         6.4540   14.0060   -6.1020 C.3    93  LYS93       0.0206
    106  CE         5.6210   12.6960   -6.2380 C.3    93  LYS93       0.1093
    107  NZ         6.5180   11.5650   -5.8580 N.3    93  LYS93      -0.1314
    108  N         11.0720   16.7280   -3.7340 N.3    97  VAL97      -0.1245
    109  CA        11.7820   17.3050   -4.8460 C.3    97  VAL97       0.1561
    110  C         12.6060   18.5410   -4.4540 C.2    97  VAL97       0.2260
    111  O         13.6950   18.6900   -4.8730 O.2    97  VAL97      -0.2867
    112  CB        10.8310   17.6430   -6.0270 C.3    97  VAL97       0.0252
    113  CG1       11.6330   18.3240   -7.1550 C.3    97  VAL97       0.0019
    114  CG2       10.1900   16.3670   -6.6070 C.3    97  VAL97       0.0019
@<TRIPOS>BOND
     1    11    10    2
     2    12    10   am
     3    10     9    1
     4     8     7    2
     5    41    42    2
     6    41    40    1
     7     7     6    1
     8     7    13   am
     9     6     9    1
    10     6     5    1
    11    43    40    1
    12    43    44    1
    13    40    39    1
    14    14    13    1
    15    14    15    1
    16    14    17    1
    17    44    45    2
    18    44    46   am
    19    19    15   am
    20    19    20    1
    21    18    17    1
    22    22    21    2
    23    15    16    2
    24    20    21    1
    25    39    33   am
    26    34    33    2
    27    33    32    1
    28    27    28    1
    29    27    24    1
    30    28    30   ar
    31    28    29   ar
    32    26    25    2
    33     4     3    2
    34    25    24    1
    35    25    31   am
    36    24    23    1
    37    32    31    1
    38    32    35    1
    39     3     2    1
    40    47    48    1
    41    37    35    1
    42    35    36    1
    43    36    38    1
    44     2     1    1
    45    48    51    1
    46    48    49    1
    47    50    49    2
    48    53    51    1
    49    51    52    1
    50    49    55   am
    51    55    56    1
    52    81    78    1
    53    52    54    1
    54    56    59    1
    55    56    57    1
    56    59    60    1
    57    80    79    2
    58    79    78    1
    59    79    82   am
    60    90    89    2
    61    83    86    1
    62    83    82    1
    63    83    84    1
    64    78    77    1
    65    60    62   ar
    66    60    61   ar
    67    57    63   am
    68    57    58    2
    69    69    68    1
    70    97    95    1
    71    63    64    1
    72    68    70    1
    73    68    67    1
    74    87    84   am
    75    87    88    1
    76    84    85    2
    77    89    88    1
    78    89    91   am
    79    92    95    1
    80    92    91    1
    81    92    93    1
    82    95    96    1
    83    67    64    1
    84    64    65    1
    85    93    94    2
    86    98    96    1
    87   113   112    1
    88    71    65   am
    89    71    72    1
    90    65    66    2
    91    76    75    1
    92   114   112    1
    93   106   105    1
    94   106   107    1
    95   105   104    1
    96   112   109    1
    97    75    72    1
    98    72    73    1
    99   104   103    1
   100    73    74    2
   101   111   110    2
   102   109   110    1
   103   109   108    1
   104   103   100    1
   105   102   101    2
   106   101   100    1
   107   100    99    1
