@<TRIPOS>MOLECULE
tmp/5gwrC00.pdb
 205 194 0 0 0
SMALL
GASTEIGER

@<TRIPOS>ATOM
      1  N          3.6390   16.4120   21.2040 N.3     8  GLY8       -0.1225
      2  CA         4.7830   16.2900   22.0700 C.3     8  GLY8        0.1811
      3  C          4.4730   16.3510   23.5190 C.2     8  GLY8        0.2280
      4  O          5.3410   16.7260   24.3680 O.2     8  GLY8       -0.2866
      5  N          4.1040   14.1860   25.9020 N.3    10  ASN10      -0.1225
      6  CA         4.7130   13.3190   26.8920 C.3    10  ASN10       0.1785
      7  C          5.9920   13.9250   27.5300 C.2    10  ASN10       0.2598
      8  O          6.4040   13.4480   28.5820 O.2    10  ASN10      -0.2718
      9  CB         5.1020   11.9920   26.2940 C.3    10  ASN10       0.1169
     10  CG         5.3340   10.9170   27.3480 C.2    10  ASN10       0.2627
     11  OD1        4.5090   10.6980   28.2290 O.2    10  ASN10      -0.2716
     12  ND2        6.4270   10.2530   27.2490 N.am   10  ASN10      -0.0877
     13  N          6.5670   14.9820   26.9520 N.am   11  SER11      -0.1938
     14  CA         7.8910   15.4420   27.3520 C.3    11  SER11       0.2055
     15  C          8.0560   16.9580   27.2540 C.2    11  SER11       0.2644
     16  O          7.4010   17.5810   26.4320 O.2    11  SER11      -0.2714
     17  CB         8.9010   14.7750   26.4500 C.3    11  SER11       0.2130
     18  OG        10.0890   14.6840   27.1560 O.3    11  SER11      -0.2179
     19  N          8.8800   17.5450   28.1280 N.am   12  GLY12      -0.1939
     20  CA         9.4830   18.8690   27.8470 C.3    12  GLY12       0.2014
     21  C          8.4700   19.9640   27.6770 C.2    12  GLY12       0.2639
     22  O          7.5990   20.1250   28.5320 O.2    12  GLY12      -0.2714
     23  N          8.4960   20.6850   26.5460 N.am   13  ILE13      -0.1963
     24  CA         7.5910   21.8570   26.3980 C.3    13  ILE13       0.1727
     25  C          6.1100   21.4130   26.3050 C.2    13  ILE13       0.2616
     26  O          5.2580   22.0050   26.9370 O.2    13  ILE13      -0.2715
     27  CB         7.9710   22.6970   25.1610 C.3    13  ILE13       0.0290
     28  CG1        9.2890   23.4540   25.4290 C.3    13  ILE13       0.0022
     29  CG2        6.8470   23.6690   24.7850 C.3    13  ILE13       0.0023
     30  CD1        9.9580   23.7850   24.1470 C.3    13  ILE13       0.0001
     31  N          5.8260   20.4060   25.4720 N.am   14  GLY14      -0.1955
     32  CA         4.4380   19.8930   25.3420 C.3    14  GLY14       0.1869
     33  C          3.9000   19.3680   26.6700 C.2    14  GLY14       0.2309
     34  O          2.7640   19.6250   27.0250 O.2    14  GLY14      -0.2863
     35  N          1.1710   12.0990   21.5280 N.3    32  ASP32      -0.1225
     36  CA         2.5780   11.6920   21.6350 C.3    32  ASP32       0.1805
     37  C          2.7640   10.2180   21.2630 C.2    32  ASP32       0.2598
     38  O          1.7920    9.4470   21.3000 O.2    32  ASP32      -0.2718
     39  CB         3.1440   12.0230   23.0310 C.3    32  ASP32       0.1424
     40  CG         4.6780   12.2770   22.9860 C.2    32  ASP32       0.3668
     41  OD1        5.4430   11.3820   22.5600 O.co2  32  ASP32      -0.2456
     42  OD2        5.1060   13.4010   23.3720 O.co2  32  ASP32      -0.2456
     43  N          3.9520    9.8780   20.7670 N.am   33  ILE33      -0.1966
     44  CA         4.2860    8.4980   20.4460 C.3    33  ILE33       0.1727
     45  C          4.4880    7.6980   21.7490 C.2    33  ILE33       0.2616
     46  O          4.2390    6.5290   21.7440 O.2    33  ILE33      -0.2715
     47  CB         5.4720    8.3690   19.4380 C.3    33  ILE33       0.0290
     48  CG1        5.5390    6.9610   18.8690 C.3    33  ILE33       0.0022
     49  CG2        6.8230    8.7680   20.0750 C.3    33  ILE33       0.0023
     50  CD1        6.5520    6.8000   17.7500 C.3    33  ILE33       0.0001
     51  N          4.9350    8.3440   22.8350 N.am   34  ASN34      -0.1972
     52  CA         5.0190    7.7740   24.1840 C.3    34  ASN34       0.1688
     53  C          3.9760    8.3950   25.0830 C.2    34  ASN34       0.2292
     54  O          3.5680    9.5180   24.8690 O.2    34  ASN34      -0.2864
     55  CB         6.3990    8.0370   24.8200 C.3    34  ASN34       0.1181
     56  CG         7.5200    7.6000   23.9270 C.2    34  ASN34       0.2629
     57  OD1        7.4420    6.5260   23.3660 O.2    34  ASN34      -0.2716
     58  ND2        8.5500    8.4430   23.7420 N.am   34  ASN34      -0.0877
     59  N          0.2250    8.1650   19.3540 N.3    46  ILE46      -0.1231
     60  CA         0.2250    8.2610   17.9240 C.3    46  ILE46       0.1692
     61  C          1.6510    8.5710   17.4460 C.2    46  ILE46       0.2592
     62  O          2.3480    9.3490   18.0710 O.2    46  ILE46      -0.2718
     63  CB        -0.8570    9.2720   17.4300 C.3    46  ILE46       0.0266
     64  CG1       -0.7770    9.4690   15.9030 C.3    46  ILE46       0.0019
     65  CG2       -0.7300   10.6380   18.0830 C.3    46  ILE46       0.0020
     66  CD1       -1.8280   10.3810   15.3200 C.3    46  ILE46       0.0001
     67  N          2.0350    7.9690   16.3420 N.am   47  ASP47      -0.1960
     68  CA         3.2560    8.2300   15.6840 C.3    47  ASP47       0.1840
     69  C          2.8980    9.2650   14.6050 C.2    47  ASP47       0.2622
     70  O          2.2920    8.9430   13.6050 O.2    47  ASP47      -0.2715
     71  CB         3.8390    6.9330   15.0720 C.3    47  ASP47       0.1450
     72  CG         5.1720    7.1880   14.3610 C.2    47  ASP47       0.3671
     73  OD1        5.5720    8.3870   14.1950 O.co2  47  ASP47      -0.2456
     74  OD2        5.8540    6.2080   14.0080 O.co2  47  ASP47      -0.2456
     75  N          3.2990   10.5110   14.8260 N.am   48  LEU48      -0.1963
     76  CA         3.0000   11.6140   13.9180 C.3    48  LEU48       0.1728
     77  C          3.7720   11.5990   12.6280 C.2    48  LEU48       0.2616
     78  O          3.4050   12.3500   11.7290 O.2    48  LEU48      -0.2715
     79  CB         3.1180   12.9910   14.6160 C.3    48  LEU48       0.0311
     80  CG         2.1790   13.1810   15.7850 C.3    48  LEU48       0.0022
     81  CD1        2.6040   14.3230   16.6820 C.3    48  LEU48       0.0001
     82  CD2        0.7290   13.3330   15.3240 C.3    48  LEU48       0.0001
     83  N          4.7560   10.7200   12.4530 N.am   49  SER49      -0.1950
     84  CA         5.3610   10.5490   11.1320 C.3    49  SER49       0.1924
     85  C          4.4990    9.6940   10.2480 C.2    49  SER49       0.2314
     86  O          4.7720    9.5570    9.0560 O.2    49  SER49      -0.2863
     87  CB         6.7310    9.8890   11.1930 C.3    49  SER49       0.2116
     88  OG         6.6680    8.6050   11.7800 O.3    49  SER49      -0.2180
     89  N          1.8400   22.8020   18.0460 N.3    73  ASN73      -0.1225
     90  CA         2.7410   21.8360   17.4430 C.3    73  ASN73       0.1785
     91  C          4.1230   21.8830   18.1030 C.2    73  ASN73       0.2597
     92  O          4.9670   22.6900   17.7210 O.2    73  ASN73      -0.2718
     93  CB         2.8690   22.0590   15.9510 C.3    73  ASN73       0.1169
     94  CG         1.6070   21.7180   15.1670 C.2    73  ASN73       0.2627
     95  OD1        1.1830   20.5370   15.0990 O.2    73  ASN73      -0.2716
     96  ND2        1.0490   22.7060   14.4860 N.am   73  ASN73      -0.0877
     97  N          4.2720   21.0830   19.1650 N.am   74  ALA74      -0.1966
     98  CA         5.4450   21.0100   20.0040 C.3    74  ALA74       0.1728
     99  C          6.1340   19.6640   19.8810 C.2    74  ALA74       0.2616
    100  O          7.1050   19.4590   20.5150 O.2    74  ALA74      -0.2715
    101  CB         5.0460   21.2540   21.4530 C.3    74  ALA74       0.0334
    102  N          5.6330   18.7000   19.1150 N.am   75  ALA75      -0.1963
    103  CA         6.4140   17.4680   18.9480 C.3    75  ALA75       0.1728
    104  C          7.6400   17.8550   18.0870 C.2    75  ALA75       0.2617
    105  O          7.5610   18.6720   17.1920 O.2    75  ALA75      -0.2715
    106  CB         5.6180   16.3930   18.2520 C.3    75  ALA75       0.0334
    107  N          8.7220   17.1810   18.2660 N.am   76  GLY76      -0.1940
    108  CA         9.9310   17.5330   17.5680 C.3    76  GLY76       0.2014
    109  C         10.9590   16.4820   17.7990 C.2    76  GLY76       0.2638
    110  O         10.8900   15.7640   18.8050 O.2    76  GLY76      -0.2714
    111  N         11.8570   16.2930   16.8290 N.am   77  ILE77      -0.1977
    112  CA        13.0680   15.5460   17.0910 C.3    77  ILE77       0.1596
    113  C         14.2470   16.2700   16.5040 C.2    77  ILE77       0.2287
    114  O         14.1090   17.0560   15.5430 O.2    77  ILE77      -0.2864
    115  CB        13.0110   14.1000   16.5690 C.3    77  ILE77       0.0276
    116  CG1       12.6550   14.0200   15.0980 C.3    77  ILE77       0.0022
    117  CG2       12.0330   13.3010   17.4400 C.3    77  ILE77       0.0022
    118  CD1       12.1190   12.6400   14.6480 C.3    77  ILE77       0.0001
    119  N         12.5930   11.3320    8.2400 N.3    93  LYS93      -0.1301
    120  CA        11.8120   11.2060    9.4450 C.3    93  LYS93       0.1247
    121  C         11.7610   12.5190   10.2530 C.3    93  LYS93       0.2009
    122  O         10.7270   12.8630   10.9350 O.3    93  LYS93      -0.2188
    123  CB        12.4300   10.0670   10.2840 C.3    93  LYS93       0.0218
    124  CG        11.9380    9.9170   11.7160 C.3    93  LYS93       0.0031
    125  CD        10.5600    9.2970   11.7730 C.3    93  LYS93       0.0205
    126  CE        10.6260    7.7860   11.4040 C.3    93  LYS93       0.1093
    127  NZ         9.2890    7.3480   10.9410 N.3    93  LYS93      -0.1314
    128  N          8.2240   14.5400   11.0970 N.3    97  VAL97      -0.1245
    129  CA         7.7420   14.9180   12.4020 C.3    97  VAL97       0.1561
    130  C          7.6860   16.4310   12.6200 C.2    97  VAL97       0.2260
    131  O          6.7120   16.9380   13.1120 O.2    97  VAL97      -0.2867
    132  CB         8.5940   14.2740   13.5030 C.3    97  VAL97       0.0252
    133  CG1        8.1090   14.7520   14.8740 C.3    97  VAL97       0.0019
    134  CG2        8.5220   12.7420   13.4030 C.3    97  VAL97       0.0019
    135  N          6.0740   25.3350   17.4040 N.3   125  ILE125     -0.1231
    136  CA         7.3210   25.4250   18.1600 C.3   125  ILE125      0.1692
    137  C          8.4470   25.0890   17.2360 C.2   125  ILE125      0.2592
    138  O          8.6670   23.9400   16.8430 O.2   125  ILE125     -0.2718
    139  CB         7.3330   24.5360   19.4180 C.3   125  ILE125      0.0266
    140  CG1        6.0200   24.7410   20.2080 C.3   125  ILE125      0.0019
    141  CG2        8.5630   24.8120   20.2800 C.3   125  ILE125      0.0020
    142  CD1        5.8140   26.1390   20.7130 C.3   125  ILE125      0.0001
    143  N          9.1430   26.1520   16.8160 N.am  126  ALA126     -0.1966
    144  CA        10.2210   26.0360   15.8590 C.3   126  ALA126      0.1728
    145  C         11.4880   25.8900   16.7410 C.2   126  ALA126      0.2616
    146  O         11.4870   25.0310   17.6030 O.2   126  ALA126     -0.2715
    147  CB        10.2450   27.2490   14.9120 C.3   126  ALA126      0.0334
    148  N         12.5140   26.7470   16.5730 N.am  127  SER127     -0.1950
    149  CA        13.7810   26.6710   17.2470 C.3   127  SER127      0.1924
    150  C         14.6600   27.8560   16.7660 C.2   127  SER127      0.2314
    151  O         14.4560   28.3270   15.6590 O.2   127  SER127     -0.2863
    152  CB        14.4720   25.3800   16.8620 C.3   127  SER127      0.2116
    153  OG        15.7960   25.3620   17.3280 O.3   127  SER127     -0.2180
    154  N         17.4270   18.9180   11.2090 N.3   140  TYR140     -0.1241
    155  CA        16.7940   19.7320   12.2070 C.3   140  TYR140      0.1605
    156  C         16.6980   21.2090   11.7410 C.2   140  TYR140      0.2264
    157  O         15.6280   21.8180   11.7230 O.2   140  TYR140     -0.2867
    158  CB        17.5770   19.6610   13.4910 C.3   140  TYR140      0.0534
    159  CG        16.8750   20.3370   14.6520 C.ar  140  TYR140     -0.0201
    160  CD1       15.7440   19.7730   15.1840 C.ar  140  TYR140     -0.0009
    161  CD2       17.4330   21.4470   15.3200 C.ar  140  TYR140     -0.0009
    162  CE1       15.0870   20.3310   16.2900 C.ar  140  TYR140      0.0417
    163  CE2       16.7870   22.0070   16.4370 C.ar  140  TYR140      0.0417
    164  CZ        15.5900   21.4720   16.8760 C.ar  140  TYR140      0.1957
    165  OH        14.9050   21.9750   17.9910 O.3   140  TYR140     -0.2866
    166  N         13.2010   23.2500   10.7480 N.3   144  LYS144     -0.1245
    167  CA        12.7990   24.3740   11.5820 C.3   144  LYS144      0.1561
    168  C         12.6970   25.6660   10.7530 C.2   144  LYS144      0.2260
    169  O         11.7570   26.4750   10.9730 O.2   144  LYS144     -0.2867
    170  CB        13.7280   24.4830   12.7760 C.3   144  LYS144      0.0271
    171  CG        13.5680   23.3450   13.8090 C.3   144  LYS144      0.0035
    172  CD        12.1390   23.2790   14.4120 C.3   144  LYS144      0.0206
    173  CE        12.1130   22.1840   15.4690 C.3   144  LYS144      0.1093
    174  NZ        10.8680   22.1900   16.2730 N.3   144  LYS144     -0.1314
    175  N         12.4000   28.6360   20.4550 N.3   170  PRO170     -0.2116
    176  CA        13.1660   28.5320   21.7290 C.3   170  PRO170      0.1372
    177  C         14.6880   28.4540   21.4770 C.2   170  PRO170      0.2244
    178  O         15.1080   27.8680   20.5080 O.2   170  PRO170     -0.2868
    179  CB        12.7190   27.1450   22.3080 C.3   170  PRO170      0.0268
    180  CG        11.3340   26.9390   21.6800 C.3   170  PRO170      0.0207
    181  CD        11.5740   27.4190   20.2530 C.3   170  PRO170      0.0892
    182  N         16.5830   25.0450   26.1080 N.3   173  ILE173     -0.1245
    183  CA        15.6140   24.8980   27.1610 C.3   173  ILE173      0.1561
    184  C         16.0280   23.6110   27.9210 C.2   173  ILE173      0.2260
    185  O         16.4030   22.6400   27.3170 O.2   173  ILE173     -0.2867
    186  CB        14.1960   24.7740   26.6200 C.3   173  ILE173      0.0252
    187  CG1       13.8600   25.9420   25.6850 C.3   173  ILE173      0.0019
    188  CG2       13.1760   24.6800   27.7770 C.3   173  ILE173      0.0019
    189  CD1       13.8820   27.3350   26.2920 C.3   173  ILE173      0.0001
    190  N         15.1880   20.5380   29.5670 N.3   175  THR175     -0.1203
    191  CA        14.1050   19.5630   29.5420 C.3   175  THR175      0.1994
    192  C         14.7520   18.1830   29.7490 C.2   175  THR175      0.2617
    193  O         15.9680   18.0930   29.9520 O.2   175  THR175     -0.2717
    194  CB        13.3480   19.5420   28.1640 C.3   175  THR175      0.1784
    195  OG1       14.1880   19.0810   27.1170 O.3   175  THR175     -0.2211
    196  CG2       12.8480   20.8470   27.7410 C.3   175  THR175      0.0376
    197  N         13.9310   17.1230   29.6800 N.am  176  GLU176     -0.1979
    198  CA        14.3890   15.7230   29.5080 C.3   176  GLU176      0.1602
    199  C         14.8270   15.5640   28.0300 C.2   176  GLU176      0.2287
    200  O         15.9770   15.2970   27.7240 O.2   176  GLU176     -0.2864
    201  CB        13.2490   14.6910   29.8130 C.3   176  GLU176      0.0415
    202  CG        12.3120   14.9440   31.0230 C.3   176  GLU176      0.1163
    203  CD        10.9850   15.6580   30.6660 C.2   176  GLU176      0.3649
    204  OE1       11.0290   16.5920   29.8310 O.co2 176  GLU176     -0.2457
    205  OE2        9.8930   15.3240   31.2210 O.co2 176  GLU176     -0.2457
@<TRIPOS>BOND
     1   119   120    1
     2    86    85    2
     3   120   121    1
     4   120   123    1
     5    85    84    1
     6   121   122    1
     7   123   124    1
     8   166   167    1
     9   168   169    2
    10   168   167    1
    11   127   126    1
    12   128   129    1
    13    84    87    1
    14    84    83    1
    15    87    88    1
    16   154   155    1
    17   126   125    1
    18   167   170    1
    19   124   125    1
    20   157   156    2
    21    78    77    2
    22   156   155    1
    23   155   158    1
    24   129   130    1
    25   129   132    1
    26    83    77   am
    27   130   131    2
    28    77    76    1
    29   170   171    1
    30   134   132    1
    31   158   159    1
    32   132   133    1
    33    70    69    2
    34   171   172    1
    35    76    79    1
    36    76    75    1
    37    74    72   ar
    38    73    72   ar
    39    72    71    1
    40   172   173    1
    41    96    94   am
    42    69    75   am
    43    69    68    1
    44    79    80    1
    45   118   116    1
    46   159   160   ar
    47   159   161   ar
    48   147   144    1
    49    71    68    1
    50   116   115    1
    51    95    94    2
    52    94    93    1
    53   160   162   ar
    54   161   163   ar
    55    66    64    1
    56    82    80    1
    57   173   174    1
    58   114   113    2
    59   151   150    2
    60    68    67    1
    61    80    81    1
    62   144   145    1
    63   144   143    1
    64    64    63    1
    65    93    90    1
    66   162   164   ar
    67    67    61   am
    68   163   164   ar
    69   113   112    1
    70   115   112    1
    71   115   117    1
    72   148   145   am
    73   148   149    1
    74   145   146    2
    75   150   149    1
    76   143   137   am
    77   111   112    1
    78   111   109   am
    79   138   137    2
    80   152   149    1
    81   152   153    1
    82   164   165    1
    83   105   104    2
    84   137   136    1
    85   135   136    1
    86    63    60    1
    87    63    65    1
    88    90    89    1
    89    90    91    1
    90    61    60    1
    91    61    62    2
    92   108   109    1
    93   108   107    1
    94    92    91    2
    95    50    48    1
    96   109   110    2
    97    60    59    1
    98   104   107   am
    99   104   103    1
   100    91    97   am
   101   136   139    1
   102   106   103    1
   103    48    47    1
   104   103   102    1
   105   102    99   am
   106    97    98    1
   107   139   140    1
   108   139   141    1
   109    47    49    1
   110    47    44    1
   111    99    98    1
   112    99   100    2
   113    98   101    1
   114   140   142    1
   115   181   175    1
   116   181   180    1
   117    44    43    1
   118    44    45    1
   119   175   176    1
   120   178   177    2
   121    43    37   am
   122     1     2    1
   123    37    38    2
   124    37    36    1
   125   177   176    1
   126    35    36    1
   127    36    39    1
   128   180   179    1
   129   176   179    1
   130    46    45    2
   131    45    51   am
   132     2     3    1
   133    41    40   ar
   134    51    52    1
   135    40    39    1
   136    40    42   ar
   137    57    56    2
   138     3     4    2
   139    58    56   am
   140    56    55    1
   141    30    28    1
   142    52    55    1
   143    52    53    1
   144    29    27    1
   145    54    53    2
   146    27    28    1
   147    27    24    1
   148    32    31    1
   149    32    33    1
   150    31    25   am
   151   187   189    1
   152   187   186    1
   153     5     6    1
   154   182   183    1
   155     9     6    1
   156     9    10    1
   157    25    24    1
   158    25    26    2
   159    24    23    1
   160    16    15    2
   161    17    18    1
   162    17    14    1
   163    23    21   am
   164   186   183    1
   165   186   188    1
   166    33    34    2
   167     6     7    1
   168    13    14    1
   169    13     7   am
   170   195   194    1
   171   183   184    1
   172    12    10   am
   173    15    14    1
   174    15    19   am
   175   185   184    2
   176    10    11    2
   177     7     8    2
   178    21    20    1
   179    21    22    2
   180   200   199    2
   181   196   194    1
   182    20    19    1
   183   199   198    1
   184   194   191    1
   185   198   197    1
   186   198   201    1
   187   191   190    1
   188   191   192    1
   189   197   192   am
   190   192   193    2
   191   201   202    1
   192   204   203   ar
   193   203   202    1
   194   203   205   ar
