@<TRIPOS>MOLECULE
tmp/5gwtA01.pdb
 107 102 0 0 0
SMALL
GASTEIGER

@<TRIPOS>ATOM
      1  N         34.7560  -52.3100  -38.8080 N.3    84  ARG84      -0.1245
      2  CA        34.3420  -51.3440  -39.8100 C.3    84  ARG84       0.1563
      3  C         34.9870  -51.6590  -41.1460 C.2    84  ARG84       0.2260
      4  O         36.2090  -51.6070  -41.2640 O.2    84  ARG84      -0.2867
      5  CB        34.7290  -49.9350  -39.3530 C.3    84  ARG84       0.0307
      6  CG        34.2380  -48.8450  -40.2810 C.3    84  ARG84       0.0489
      7  CD        35.2960  -48.4640  -41.3040 C.3    84  ARG84       0.2205
      8  NE        36.4350  -47.7370  -40.7450 N.pl3  84  ARG84      -0.0865
      9  CZ        37.6840  -48.1920  -40.5770 C.cat  84  ARG84       0.5346
     10  NH1       38.0270  -49.4430  -40.7750 N.pl3  84  ARG84       0.1354
     11  NH2       38.5850  -47.3340  -40.2020 N.pl3  84  ARG84       0.1354
     12  N         27.9950  -45.3910  -32.4820 N.3   133  SER133     -0.1202
     13  CA        28.7550  -44.4820  -33.3890 C.3   133  SER133      0.2020
     14  C         27.8620  -43.3780  -33.9050 C.2   133  SER133      0.2619
     15  O         26.6710  -43.5450  -34.0180 O.2   133  SER133     -0.2717
     16  CB        29.2470  -45.2530  -34.6550 C.3   133  SER133      0.2103
     17  OG        29.8360  -44.4100  -35.5830 O.3   133  SER133     -0.2182
     18  N         28.4540  -42.2910  -34.3150 N.am  134  VAL134     -0.1965
     19  CA        27.7380  -41.2980  -35.0930 C.3   134  VAL134      0.1727
     20  C         27.1750  -41.8910  -36.3680 C.2   134  VAL134      0.2616
     21  O         26.1410  -41.3710  -36.9020 O.2   134  VAL134     -0.2715
     22  CB        28.5580  -39.9870  -35.3470 C.3   134  VAL134      0.0290
     23  CG1       28.8670  -39.3220  -34.0280 C.3   134  VAL134      0.0023
     24  CG2       29.8480  -40.2190  -36.1230 C.3   134  VAL134      0.0023
     25  N         27.8220  -42.9460  -36.8950 N.am  135  SER135     -0.1950
     26  CA        27.2740  -43.7170  -38.0210 C.3   135  SER135      0.1924
     27  C         26.0090  -44.4750  -37.6830 C.2   135  SER135      0.2314
     28  O         25.4020  -45.1130  -38.5430 O.2   135  SER135     -0.2863
     29  CB        28.3280  -44.6670  -38.6310 C.3   135  SER135      0.2116
     30  OG        29.4220  -43.8620  -39.0820 O.3   135  SER135     -0.2180
     31  N         27.6620  -42.5910  -43.9930 N.3   140  LYS140     -0.1245
     32  CA        28.9780  -42.2550  -44.4890 C.3   140  LYS140      0.1561
     33  C         29.2630  -43.1660  -45.7160 C.2   140  LYS140      0.2260
     34  O         28.6930  -44.2120  -45.8140 O.2   140  LYS140     -0.2867
     35  CB        30.0830  -42.5130  -43.4630 C.3   140  LYS140      0.0271
     36  CG        29.9900  -41.5760  -42.2680 C.3   140  LYS140      0.0035
     37  CD        31.1660  -41.7440  -41.3070 C.3   140  LYS140      0.0206
     38  CE        31.0210  -40.7110  -40.1740 C.3   140  LYS140      0.1093
     39  NZ        32.0380  -40.7530  -39.0850 N.3   140  LYS140     -0.1314
     40  N         30.3630  -47.6890  -46.3230 N.3   143  ARG143     -0.1245
     41  CA        30.1090  -48.2390  -45.0090 C.3   143  ARG143      0.1563
     42  C         28.6980  -48.6960  -44.8390 C.2   143  ARG143      0.2260
     43  O         28.0450  -48.4330  -43.7840 O.2   143  ARG143     -0.2867
     44  CB        30.5070  -47.1550  -43.9850 C.3   143  ARG143      0.0307
     45  CG        31.9700  -46.9080  -43.7450 C.3   143  ARG143      0.0489
     46  CD        32.2440  -45.5870  -43.0390 C.3   143  ARG143      0.2205
     47  NE        33.6690  -45.2930  -42.7900 N.pl3 143  ARG143     -0.0865
     48  CZ        34.5470  -44.8040  -43.6790 C.cat 143  ARG143      0.5346
     49  NH1       34.1900  -44.6110  -44.9520 N.pl3 143  ARG143      0.1354
     50  NH2       35.7810  -44.5380  -43.3300 N.pl3 143  ARG143      0.1354
     51  N         28.4240  -51.1600  -41.9100 N.3   146  TYR146     -0.1241
     52  CA        28.7820  -50.4220  -40.7010 C.3   146  TYR146      0.1605
     53  C         27.6230  -49.5060  -40.2350 C.2   146  TYR146      0.2264
     54  O         27.1750  -49.5880  -39.0500 O.2   146  TYR146     -0.2867
     55  CB        30.0200  -49.6420  -40.8990 C.3   146  TYR146      0.0534
     56  CG        30.5680  -49.0270  -39.6310 C.ar  146  TYR146     -0.0201
     57  CD1       31.1130  -49.8420  -38.6290 C.ar  146  TYR146     -0.0009
     58  CD2       30.4770  -47.6470  -39.3900 C.ar  146  TYR146     -0.0009
     59  CE1       31.6960  -49.2970  -37.4690 C.ar  146  TYR146      0.0417
     60  CE2       31.0320  -47.0710  -38.2240 C.ar  146  TYR146      0.0417
     61  CZ        31.6310  -47.9420  -37.2110 C.ar  146  TYR146      0.1957
     62  OH        32.2020  -47.4080  -36.1100 O.3   146  TYR146     -0.2866
     63  N         30.5320  -42.4600  -30.3670 N.3   176  PRO176     -0.2102
     64  CA        31.7100  -41.6190  -30.5320 C.3   176  PRO176      0.1504
     65  C         31.7970  -41.0280  -31.9260 C.2   176  PRO176      0.2576
     66  O         31.2680  -41.6040  -32.8730 O.2   176  PRO176     -0.2718
     67  CB        32.8900  -42.5900  -30.3790 C.3   176  PRO176      0.0282
     68  CG        32.2920  -43.7930  -29.6350 C.3   176  PRO176      0.0208
     69  CD        30.8880  -43.9060  -30.1840 C.3   176  PRO176      0.0893
     70  N         32.4030  -39.8510  -32.0170 N.am  177  GLY177     -0.1943
     71  CA        32.9440  -39.3080  -33.2940 C.3   177  GLY177      0.2014
     72  C         34.3620  -39.8940  -33.4840 C.2   177  GLY177      0.2638
     73  O         34.6460  -41.0390  -33.0820 O.2   177  GLY177     -0.2714
     74  N         35.2840  -39.1120  -34.0150 N.am  178  VAL178     -0.1977
     75  CA        36.5870  -39.6540  -34.3940 C.3   178  VAL178      0.1596
     76  C         37.4390  -39.8150  -33.1190 C.2   178  VAL178      0.2287
     77  O         37.7910  -38.8280  -32.4780 O.2   178  VAL178     -0.2864
     78  CB        37.3270  -38.7570  -35.3780 C.3   178  VAL178      0.0276
     79  CG1       38.7280  -39.3270  -35.7090 C.3   178  VAL178      0.0022
     80  CG2       36.5050  -38.6540  -36.6850 C.3   178  VAL178      0.0022
     81  N         41.8870  -48.6640  -34.7960 N.3   183  LEU183     -0.1231
     82  CA        40.9480  -48.6610  -35.8930 C.3   183  LEU183      0.1693
     83  C         41.2050  -47.4900  -36.8550 C.2   183  LEU183      0.2592
     84  O         41.0300  -47.7140  -38.0730 O.2   183  LEU183     -0.2718
     85  CB        39.5140  -48.5240  -35.3680 C.3   183  LEU183      0.0284
     86  CG        38.3450  -48.5840  -36.3580 C.3   183  LEU183      0.0019
     87  CD1       38.3360  -49.9620  -36.9850 C.3   183  LEU183      0.0001
     88  CD2       37.0060  -48.2540  -35.7290 C.3   183  LEU183      0.0001
     89  N         41.4800  -46.3040  -36.3110 N.am  184  THR184     -0.1953
     90  CA        41.5720  -45.0790  -37.1040 C.3   184  THR184      0.1897
     91  C         42.9690  -44.5110  -37.2890 C.2   184  THR184      0.2313
     92  O         43.1330  -43.4300  -37.9090 O.2   184  THR184     -0.2863
     93  CB        40.7790  -43.9350  -36.4090 C.3   184  THR184      0.1794
     94  OG1       41.2580  -43.7400  -35.0540 O.3   184  THR184     -0.2208
     95  CG2       39.2710  -44.3200  -36.3830 C.3   184  THR184      0.0378
     96  N         44.4940  -42.7280  -40.3680 N.3   187  TYR187     -0.1241
     97  CA        44.0890  -41.3880  -40.7720 C.3   187  TYR187      0.1605
     98  C         45.1240  -40.3430  -40.4040 C.2   187  TYR187      0.2264
     99  O         45.2880  -39.3430  -41.1400 O.2   187  TYR187     -0.2867
    100  CB        42.7160  -40.9850  -40.1880 C.3   187  TYR187      0.0534
    101  CG        41.5820  -41.9140  -40.3500 C.ar  187  TYR187     -0.0201
    102  CD1       41.5560  -42.9330  -41.3390 C.ar  187  TYR187     -0.0009
    103  CD2       40.4650  -41.7550  -39.5340 C.ar  187  TYR187     -0.0009
    104  CE1       40.5050  -43.8190  -41.4320 C.ar  187  TYR187      0.0417
    105  CE2       39.3360  -42.5960  -39.6680 C.ar  187  TYR187      0.0417
    106  CZ        39.3450  -43.6050  -40.5960 C.ar  187  TYR187      0.1957
    107  OH        38.2850  -44.4310  -40.7140 O.3   187  TYR187     -0.2866
@<TRIPOS>BOND
     1    40    41    1
     2    34    33    2
     3    33    32    1
     4    41    42    1
     5    41    44    1
     6    49    48    1
     7    42    43    2
     8    32    31    1
     9    32    35    1
    10    44    45    1
    11    45    46    1
    12    48    50    1
    13    48    47    2
    14    35    36    1
    15    46    47    1
    16    36    37    1
    17    51    52    1
    18   104   102   ar
    19   104   106   ar
    20   102   101   ar
    21    37    38    1
    22     7     8    1
    23     7     6    1
    24     4     3    2
    25     3     2    1
    26    99    98    2
    27    55    52    1
    28    55    56    1
    29    10     9    1
    30    97    98    1
    31    97    96    1
    32    97   100    1
    33     8     9    2
    34   107   106    1
    35    52    53    1
    36   106   105   ar
    37     9    11    1
    38   101   100    1
    39   101   103   ar
    40     6     5    1
    41    53    54    2
    42    38    39    1
    43     2     5    1
    44     2     1    1
    45   105   103   ar
    46    56    58   ar
    47    56    57   ar
    48    58    60   ar
    49    30    29    1
    50    29    26    1
    51    57    59   ar
    52    28    27    2
    53    60    61   ar
    54    84    83    2
    55    26    27    1
    56    26    25    1
    57    92    91    2
    58    59    61   ar
    59    91    90    1
    60    61    62    1
    61    90    93    1
    62    90    89    1
    63    87    86    1
    64    21    20    2
    65    25    20   am
    66    83    89   am
    67    83    82    1
    68    80    78    1
    69    93    95    1
    70    93    94    1
    71    20    19    1
    72    86    88    1
    73    86    85    1
    74    24    22    1
    75    82    85    1
    76    82    81    1
    77    79    78    1
    78    17    16    1
    79    78    75    1
    80    22    19    1
    81    22    23    1
    82    19    18    1
    83    16    13    1
    84    75    74    1
    85    75    76    1
    86    18    14   am
    87    15    14    2
    88    74    72   am
    89    14    13    1
    90    72    71    1
    91    72    73    2
    92    13    12    1
    93    71    70    1
    94    76    77    2
    95    66    65    2
    96    70    65   am
    97    65    64    1
    98    64    67    1
    99    64    63    1
   100    67    68    1
   101    63    69    1
   102    69    68    1
