@<TRIPOS>MOLECULE
tmp/5gwvD00.pdb
 187 177 0 0 0
SMALL
GASTEIGER

@<TRIPOS>ATOM
      1  N         23.3400   16.1200   20.1980 N.3    39  TYR39      -0.1241
      2  CA        24.4850   15.3870   20.7380 C.3    39  TYR39       0.1605
      3  C         24.1330   14.1720   21.5850 C.2    39  TYR39       0.2264
      4  O         24.8010   13.1630   21.4700 O.2    39  TYR39      -0.2867
      5  CB        25.3580   16.3330   21.5400 C.3    39  TYR39       0.0534
      6  CG        25.8600   17.4770   20.7220 C.ar   39  TYR39      -0.0201
      7  CD1       26.9400   17.3210   19.8650 C.ar   39  TYR39      -0.0009
      8  CD2       25.2030   18.7040   20.7440 C.ar   39  TYR39      -0.0009
      9  CE1       27.3500   18.3580   19.0390 C.ar   39  TYR39       0.0417
     10  CE2       25.5970   19.7410   19.9340 C.ar   39  TYR39       0.0417
     11  CZ        26.6720   19.5630   19.0750 C.ar   39  TYR39       0.1957
     12  OH        27.0550   20.5950   18.2420 O.3    39  TYR39      -0.2866
     13  N         33.3030   16.9950   23.8590 N.3    70  MET70      -0.1230
     14  CA        33.9400   17.6670   22.7310 C.3    70  MET70       0.1702
     15  C         33.1760   18.9180   22.3810 C.2    70  MET70       0.2592
     16  O         33.7290   19.8640   21.8540 O.2    70  MET70      -0.2718
     17  CB        33.9970   16.7470   21.5020 C.3    70  MET70       0.0401
     18  CG        34.9260   15.5600   21.6730 C.3    70  MET70       0.0596
     19  SD        36.6660   16.0460   21.8440 S.3    70  MET70      -0.1393
     20  CE        36.9110   15.9110   23.7750 C.3    70  MET70       0.0692
     21  N         31.8890   18.9270   22.6660 N.am   71  LYS71      -0.1980
     22  CA        31.1160   20.1160   22.3770 C.3    71  LYS71       0.1596
     23  C         31.5040   21.1510   23.4220 C.2    71  LYS71       0.2287
     24  O         31.6180   22.3540   23.1160 O.2    71  LYS71      -0.2864
     25  CB        29.6280   19.8000   22.4140 C.3    71  LYS71       0.0298
     26  CG        28.7300   20.9960   22.4370 C.3    71  LYS71       0.0038
     27  CD        28.8210   21.8610   21.1890 C.3    71  LYS71       0.0206
     28  CE        28.0850   23.1810   21.4640 C.3    71  LYS71       0.1093
     29  NZ        27.9810   24.0620   20.2470 N.3    71  LYS71      -0.1314
     30  N         34.3910   21.3950   24.7530 N.3    73  LEU73      -0.1231
     31  CA        35.7010   21.8960   24.3450 C.3    73  LEU73       0.1693
     32  C         35.4940   22.9880   23.2780 C.2    73  LEU73       0.2592
     33  O         36.1470   24.0490   23.3230 O.2    73  LEU73      -0.2718
     34  CB        36.5630   20.7550   23.8130 C.3    73  LEU73       0.0284
     35  CG        38.0090   21.1320   23.4800 C.3    73  LEU73       0.0019
     36  CD1       38.7020   21.7540   24.7310 C.3    73  LEU73       0.0001
     37  CD2       38.7350   19.9020   22.9840 C.3    73  LEU73       0.0001
     38  N         34.5590   22.7440   22.3400 N.am   74  ASP74      -0.1974
     39  CA        34.2420   23.7410   21.3130 C.3    74  ASP74       0.1709
     40  C         33.6880   25.0250   21.9790 C.2    74  ASP74       0.2293
     41  O         34.0130   26.1600   21.5510 O.2    74  ASP74      -0.2864
     42  CB        33.2300   23.2030   20.2870 C.3    74  ASP74       0.1436
     43  CG        33.1120   24.1320   19.0290 C.2    74  ASP74       0.3671
     44  OD1       32.0950   24.8420   18.8720 O.co2  74  ASP74      -0.2456
     45  OD2       34.0560   24.1770   18.1900 O.co2  74  ASP74      -0.2456
     46  N         36.4130   27.1090   23.2420 N.3    77  MET77      -0.1230
     47  CA        37.1980   27.9220   22.3380 C.3    77  MET77       0.1702
     48  C         36.4150   29.1310   21.8560 C.2    77  MET77       0.2592
     49  O         36.9890   30.1950   21.6460 O.2    77  MET77      -0.2718
     50  CB        37.8040   27.1060   21.1690 C.3    77  MET77       0.0401
     51  CG        36.9340   26.4750   20.1720 C.3    77  MET77       0.0596
     52  SD        37.9660   25.3840   19.0650 S.3    77  MET77      -0.1393
     53  CE        37.4970   23.6870   19.6680 C.3    77  MET77       0.0692
     54  N         35.1070   29.0060   21.7120 N.am   78  ASP78      -0.1974
     55  CA        34.3310   30.1660   21.2870 C.3    78  ASP78       0.1709
     56  C         34.1870   31.1370   22.4590 C.2    78  ASP78       0.2293
     57  O         34.0260   32.3260   22.2570 O.2    78  ASP78      -0.2864
     58  CB        32.9140   29.7740   20.8010 C.3    78  ASP78       0.1436
     59  CG        32.9350   28.9040   19.5510 C.2    78  ASP78       0.3671
     60  OD1       33.9270   28.9630   18.7920 O.co2  78  ASP78      -0.2456
     61  OD2       31.9490   28.1680   19.3180 O.co2  78  ASP78      -0.2456
     62  N         41.2090   15.9130   12.1480 N.3   124  LEU124     -0.1231
     63  CA        40.1490   16.5830   12.8970 C.3   124  LEU124      0.1693
     64  C         40.5850   17.8770   13.6230 C.2   124  LEU124      0.2592
     65  O         39.9460   18.9030   13.4790 O.2   124  LEU124     -0.2718
     66  CB        39.5140   15.6210   13.9190 C.3   124  LEU124      0.0284
     67  CG        38.5080   16.2170   14.9200 C.3   124  LEU124      0.0019
     68  CD1       37.1830   16.4850   14.2180 C.3   124  LEU124      0.0001
     69  CD2       38.2800   15.2620   16.0890 C.3   124  LEU124      0.0001
     70  N         41.6700   17.8320   14.3950 N.am  125  CYS125     -0.1970
     71  CA        42.0980   19.0130   15.1600 C.3   125  CYS125      0.1712
     72  C         42.6550   20.1340   14.2470 C.2   125  CYS125      0.2296
     73  O         42.1800   21.2650   14.3050 O.2   125  CYS125     -0.2864
     74  CB        43.1120   18.5850   16.2570 C.3   125  CYS125      0.0983
     75  SG        42.4280   17.2920   17.4380 S.3   125  CYS125     -0.0798
     76  N         39.8800   21.5280   12.2840 N.3   128  GLN128     -0.1245
     77  CA        39.0390   22.4120   13.0590 C.3   128  GLN128      0.1566
     78  C         39.6430   23.8200   13.1020 C.2   128  GLN128      0.2260
     79  O         38.9450   24.8080   12.9210 O.2   128  GLN128     -0.2867
     80  CB        38.8850   21.8590   14.4730 C.3   128  GLN128      0.0367
     81  CG        37.8560   22.5670   15.3020 C.3   128  GLN128      0.0905
     82  CD        36.4320   22.3920   14.7710 C.2   128  GLN128      0.2608
     83  OE1       36.2010   21.7330   13.7400 O.2   128  GLN128     -0.2717
     84  NE2       35.4640   22.9930   15.4820 N.am  128  GLN128     -0.0878
     85  N         38.6840   25.4270    9.8980 N.3   131  THR131     -0.1203
     86  CA        37.3030   25.7910    9.6870 C.3   131  THR131      0.1994
     87  C         36.9030   26.9800   10.5670 C.2   131  THR131      0.2617
     88  O         36.1210   27.8300   10.1410 O.2   131  THR131     -0.2717
     89  CB        36.3750   24.5740    9.8850 C.3   131  THR131      0.1784
     90  OG1       35.9840   24.4620   11.2470 O.3   131  THR131     -0.2211
     91  CG2       37.1110   23.2930    9.5050 C.3   131  THR131      0.0376
     92  N         37.4560   27.0660   11.7820 N.am  132  LYS132     -0.1979
     93  CA        37.1550   28.1850   12.6900 C.3   132  LYS132      0.1596
     94  C         37.8180   29.5000   12.2510 C.2   132  LYS132      0.2287
     95  O         37.3480   30.5910   12.6150 O.2   132  LYS132     -0.2864
     96  CB        37.6440   27.9040   14.1190 C.3   132  LYS132      0.0298
     97  CG        36.8850   26.8520   14.8920 C.3   132  LYS132      0.0038
     98  CD        35.5920   27.3940   15.5010 C.3   132  LYS132      0.0206
     99  CE        34.9960   26.3690   16.4340 C.3   132  LYS132      0.1093
    100  NZ        33.5850   26.6550   16.8160 N.3   132  LYS132     -0.1314
    101  N         38.8280   30.3200    8.8030 N.3   134  SER134     -0.1202
    102  CA        38.7070   30.6520    7.3920 C.3   134  SER134      0.2020
    103  C         37.2350   30.5030    7.0010 C.2   134  SER134      0.2618
    104  O         36.4530   29.9480    7.7530 O.2   134  SER134     -0.2717
    105  CB        39.6020   29.7410    6.5610 C.3   134  SER134      0.2103
    106  OG        39.0850   28.4410    6.5330 O.3   134  SER134     -0.2182
    107  N         36.8370   31.0140    5.8450 N.am  135  ARG135     -0.1979
    108  CA        35.4280   30.9080    5.4480 C.3   135  ARG135      0.1597
    109  C         35.2990   30.3810    4.0290 C.2   135  ARG135      0.2287
    110  O         36.1440   30.6660    3.1790 O.2   135  ARG135     -0.2864
    111  CB        34.7360   32.2810    5.5490 C.3   135  ARG135      0.0334
    112  CG        34.7860   33.0930    4.2600 C.3   135  ARG135      0.0492
    113  CD        34.7260   34.5950    4.5110 C.3   135  ARG135      0.2205
    114  NE        34.9620   35.3800    3.2920 N.pl3 135  ARG135     -0.0865
    115  CZ        35.9600   35.1690    2.4260 C.cat 135  ARG135      0.5346
    116  NH1       36.8310   34.1850    2.6280 N.pl3 135  ARG135      0.1354
    117  NH2       36.1050   35.9530    1.3580 N.pl3 135  ARG135      0.1354
    118  N         35.1680   22.0490    4.6570 N.3   145  HIS145     -0.1241
    119  CA        35.0990   22.3100    6.0890 C.3   145  HIS145      0.1621
    120  C         34.1220   21.3770    6.7510 C.2   145  HIS145      0.2264
    121  O         34.4230   20.8030    7.7820 O.2   145  HIS145     -0.2867
    122  CB        34.6270   23.7240    6.3780 C.3   145  HIS145      0.0745
    123  CG        35.5620   24.7690    5.8840 C.ar  145  HIS145      0.0817
    124  ND1       35.3600   26.1110    6.1100 N.ar  145  HIS145     -0.2268
    125  CD2       36.7000   24.6690    5.1620 C.ar  145  HIS145      0.1154
    126  CE1       36.3380   26.7940    5.5440 C.ar  145  HIS145      0.1986
    127  NE2       37.1640   25.9430    4.9630 N.ar  145  HIS145     -0.2212
    128  N         34.5210   18.9610   10.5720 N.3   149  TYR149     -0.1241
    129  CA        33.7150   19.1700   11.7810 C.3   149  TYR149      0.1605
    130  C         32.3900   18.4090   11.7860 C.2   149  TYR149      0.2264
    131  O         31.6940   18.3220   12.8060 O.2   149  TYR149     -0.2867
    132  CB        33.4640   20.6640   12.0290 C.3   149  TYR149      0.0534
    133  CG        32.5080   21.3460   11.0840 C.ar  149  TYR149     -0.0201
    134  CD1       31.1270   21.2610   11.2640 C.ar  149  TYR149     -0.0009
    135  CD2       32.9880   22.1430   10.0440 C.ar  149  TYR149     -0.0009
    136  CE1       30.2400   21.9680   10.4310 C.ar  149  TYR149      0.0417
    137  CE2       32.1180   22.8480    9.2040 C.ar  149  TYR149      0.0417
    138  CZ        30.7510   22.7600    9.4010 C.ar  149  TYR149      0.1957
    139  OH        29.9110   23.4630    8.5560 O.3   149  TYR149     -0.2866
    140  N         34.1680   14.1430   12.3810 N.3   153  PHE153     -0.1241
    141  CA        33.7240   14.1360   13.7690 C.3   153  PHE153      0.1605
    142  C         32.7680   12.9950   14.0840 C.2   153  PHE153      0.2264
    143  O         33.0040   12.2460   15.0070 O.2   153  PHE153     -0.2867
    144  CB        33.0530   15.4460   14.1270 C.3   153  PHE153      0.0534
    145  CG        32.5860   15.5130   15.5470 C.ar  153  PHE153     -0.0203
    146  CD1       33.4760   15.7640   16.5730 C.ar  153  PHE153     -0.0042
    147  CD2       31.2390   15.3550   15.8570 C.ar  153  PHE153     -0.0042
    148  CE1       33.0370   15.8650   17.8860 C.ar  153  PHE153     -0.0003
    149  CE2       30.7930   15.4560   17.1700 C.ar  153  PHE153     -0.0003
    150  CZ        31.6960   15.7130   18.1850 C.ar  153  PHE153     -0.0000
    151  N         21.7700   22.4490    9.3060 N.3   189  ASP189     -0.1225
    152  CA        22.1390   23.4180   10.3120 C.3   189  ASP189      0.1805
    153  C         22.3630   24.7940    9.6900 C.2   189  ASP189      0.2597
    154  O         21.8380   25.7860   10.1780 O.2   189  ASP189     -0.2718
    155  CB        23.3900   22.9370   11.0450 C.3   189  ASP189      0.1424
    156  CG        23.5830   23.6300   12.3840 C.2   189  ASP189      0.3668
    157  OD1       22.7070   23.4580   13.2700 O.co2 189  ASP189     -0.2456
    158  OD2       24.6060   24.3460   12.5410 O.co2 189  ASP189     -0.2456
    159  N         23.1150   24.8420    8.5970 N.am  190  ASP190     -0.1974
    160  CA        23.4090   26.0990    7.9230 C.3   190  ASP190      0.1709
    161  C         22.1870   26.8140    7.3740 C.2   190  ASP190      0.2293
    162  O         22.0440   28.0360    7.5280 O.2   190  ASP190     -0.2864
    163  CB        24.3750   25.8720    6.7730 C.3   190  ASP190      0.1436
    164  CG        25.8000   26.1930    7.1330 C.2   190  ASP190      0.3671
    165  OD1       26.6290   26.2920    6.2000 O.co2 190  ASP190     -0.2456
    166  OD2       26.1010   26.3480    8.3320 O.co2 190  ASP190     -0.2456
    167  N         23.3650   34.2000   10.4450 N.3   199  GLU199     -0.1245
    168  CA        24.7180   33.8770    9.9750 C.3   199  GLU199      0.1567
    169  C         24.8020   34.1810    8.4760 C.2   199  GLU199      0.2260
    170  O         23.8090   33.9980    7.7600 O.2   199  GLU199     -0.2867
    171  CB        25.0330   32.3880   10.2210 C.3   199  GLU199      0.0388
    172  CG        25.5320   32.0150   11.6230 C.3   199  GLU199      0.1160
    173  CD        25.4160   30.5060   11.9270 C.2   199  GLU199      0.3649
    174  OE1       25.3310   29.6890   10.9670 O.co2 199  GLU199     -0.2457
    175  OE2       25.4170   30.1360   13.1310 O.co2 199  GLU199     -0.2457
    176  N         28.6170   34.9380    6.3900 N.3   201  ASP201     -0.1225
    177  CA        29.8950   34.5190    5.7890 C.3   201  ASP201      0.1805
    178  C         30.1480   33.0210    5.8770 C.2   201  ASP201      0.2598
    179  O         30.2300   32.4440    6.9700 O.2   201  ASP201     -0.2718
    180  CB        31.0660   35.2470    6.4290 C.3   201  ASP201      0.1424
    181  CG        30.8100   36.7190    6.5680 C.2   201  ASP201      0.3668
    182  OD1       30.3160   37.3240    5.5840 O.co2 201  ASP201     -0.2456
    183  OD2       31.0970   37.2640    7.6630 O.co2 201  ASP201     -0.2456
    184  N         30.2720   32.4040    4.7060 N.am  202  GLY202     -0.1957
    185  CA        30.4970   30.9800    4.6320 C.3   202  GLY202      0.1869
    186  C         29.2360   30.1610    4.8540 C.2   202  GLY202      0.2309
    187  O         29.2640   28.9460    4.7070 O.2   202  GLY202     -0.2863
@<TRIPOS>BOND
     1   117   115    1
     2   115   116    1
     3   115   114    2
     4   110   109    2
     5   114   113    1
     6   109   108    1
     7   112   113    1
     8   112   111    1
     9   185   184    1
    10   185   186    1
    11   118   119    1
    12   184   178   am
    13   187   186    2
    14   127   125   ar
    15   127   126   ar
    16   125   123   ar
    17   108   111    1
    18   108   107    1
    19   126   124   ar
    20   182   181   ar
    21   177   178    1
    22   177   176    1
    23   177   180    1
    24   107   103   am
    25   178   179    2
    26   123   124   ar
    27   123   122    1
    28   119   122    1
    29   119   120    1
    30   165   164   ar
    31   180   181    1
    32   106   105    1
    33   105   102    1
    34   181   183   ar
    35   120   121    2
    36   163   164    1
    37   163   160    1
    38   103   102    1
    39   103   104    2
    40   164   166   ar
    41   161   162    2
    42   161   160    1
    43   102   101    1
    44   170   169    2
    45   160   159    1
    46   169   168    1
    47   139   138    1
    48   159   153   am
    49   137   138   ar
    50   137   135   ar
    51   151   152    1
    52   138   136   ar
    53    91    89    1
    54    86    89    1
    55    86    85    1
    56    86    87    1
    57   153   154    2
    58   153   152    1
    59    89    90    1
    60   168   171    1
    61   168   167    1
    62   135   133   ar
    63    88    87    2
    64   171   172    1
    65   152   155    1
    66   136   134   ar
    67    87    92   am
    68   128   129    1
    69   174   173   ar
    70   155   156    1
    71   133   134   ar
    72   133   132    1
    73   172   173    1
    74   129   130    1
    75   129   132    1
    76    92    93    1
    77   130   131    2
    78   173   175   ar
    79    62    63    1
    80    94    95    2
    81    94    93    1
    82    76    77    1
    83   140   141    1
    84   156   158   ar
    85   156   157   ar
    86    93    96    1
    87    63    64    1
    88    63    66    1
    89    79    78    2
    90    77    78    1
    91    77    80    1
    92    65    64    2
    93    64    70   am
    94    83    82    2
    95   141   142    1
    96   141   144    1
    97    66    67    1
    98   142   143    2
    99    96    97    1
   100   144   145    1
   101    68    67    1
   102    72    73    2
   103    72    71    1
   104    70    71    1
   105    80    81    1
   106    82    81    1
   107    82    84   am
   108    97    98    1
   109    67    69    1
   110    71    74    1
   111    98    99    1
   112   145   147   ar
   113   145   146   ar
   114   147   149   ar
   115    74    75    1
   116    99   100    1
   117   146   148   ar
   118   149   150   ar
   119   148   150   ar
   120    45    43   ar
   121    12    11    1
   122    60    59   ar
   123    44    43   ar
   124    43    42    1
   125     9    11   ar
   126     9     7   ar
   127    52    53    1
   128    52    51    1
   129    11    10   ar
   130    61    59   ar
   131    59    58    1
   132     7     6   ar
   133    10     8   ar
   134    51    50    1
   135     1     2    1
   136    29    28    1
   137    42    39    1
   138     6     8   ar
   139     6     5    1
   140     2     5    1
   141     2     3    1
   142    58    55    1
   143    50    47    1
   144    27    28    1
   145    27    26    1
   146    55    54    1
   147    55    56    1
   148    39    40    1
   149    39    38    1
   150     4     3    2
   151    17    18    1
   152    17    14    1
   153    41    40    2
   154    49    48    2
   155    18    19    1
   156    54    48   am
   157    19    20    1
   158    16    15    2
   159    48    47    1
   160    57    56    2
   161    47    46    1
   162    38    32   am
   163    22    25    1
   164    22    21    1
   165    22    23    1
   166    15    21   am
   167    15    14    1
   168    25    26    1
   169    14    13    1
   170    37    35    1
   171    24    23    2
   172    32    33    2
   173    32    31    1
   174    35    34    1
   175    35    36    1
   176    34    31    1
   177    31    30    1
