@<TRIPOS>MOLECULE
tmp/5gwvD01.pdb
 119 110 0 0 0
SMALL
GASTEIGER

@<TRIPOS>ATOM
      1  N         13.5270    8.3910   22.1760 N.3     6  LEU6       -0.1245
      2  CA        13.4360    9.3500   23.2580 C.3     6  LEU6        0.1561
      3  C         13.8720    8.7470   24.5820 C.2     6  LEU6        0.2260
      4  O         14.3780    9.4520   25.4520 O.2     6  LEU6       -0.2867
      5  CB        12.0190    9.9020   23.3840 C.3     6  LEU6        0.0270
      6  CG        11.5360   10.7830   22.2230 C.3     6  LEU6        0.0019
      7  CD1       10.1440   11.3000   22.5640 C.3     6  LEU6        0.0001
      8  CD2       12.4860   11.9520   21.9820 C.3     6  LEU6        0.0001
      9  N         20.4740   18.3620   22.7090 N.3    37  ARG37      -0.1231
     10  CA        19.6970   17.2400   22.1670 C.3    37  ARG37       0.1694
     11  C         20.3090   16.4510   20.9900 C.2    37  ARG37       0.2591
     12  O         20.3420   15.2170   21.0010 O.2    37  ARG37      -0.2718
     13  CB        18.3130   17.7360   21.7900 C.3    37  ARG37       0.0321
     14  CG        17.6270   18.5030   22.9120 C.3    37  ARG37       0.0489
     15  CD        16.1220   18.5410   22.6890 C.3    37  ARG37       0.2205
     16  NE        15.5760   17.1840   22.6750 N.pl3  37  ARG37      -0.0865
     17  CZ        14.3420   16.8710   22.3030 C.cat  37  ARG37       0.5346
     18  NH1       13.5160   17.8270   21.9060 N.pl3  37  ARG37       0.1354
     19  NH2       13.9350   15.6110   22.3450 N.pl3  37  ARG37       0.1354
     20  N         20.7760   17.1530   19.9670 N.am   38  LEU38      -0.1980
     21  CA        21.3600   16.4650   18.8330 C.3    38  LEU38       0.1596
     22  C         22.5060   15.5690   19.3190 C.2    38  LEU38       0.2287
     23  O         22.6120   14.4000   18.9380 O.2    38  LEU38      -0.2864
     24  CB        21.8470   17.5110   17.8410 C.3    38  LEU38       0.0297
     25  CG        22.7570   17.1350   16.6750 C.3    38  LEU38       0.0022
     26  CD1       22.2190   15.9120   15.8920 C.3    38  LEU38       0.0001
     27  CD2       22.8690   18.3760   15.7720 C.3    38  LEU38       0.0001
     28  N         21.2650   12.4880   21.4020 N.3    41  ARG41      -0.1245
     29  CA        20.4340   11.6070   20.6180 C.3    41  ARG41       0.1563
     30  C         21.1530   10.8290   19.5410 C.2    41  ARG41       0.2260
     31  O         20.8440    9.6710   19.2970 O.2    41  ARG41      -0.2867
     32  CB        19.3390   12.4520   20.0010 C.3    41  ARG41       0.0307
     33  CG        18.8560   11.9660   18.6390 C.3    41  ARG41       0.0489
     34  CD        17.6790   12.8310   18.1670 C.3    41  ARG41       0.2205
     35  NE        16.7040   12.9750   19.2440 N.pl3  41  ARG41      -0.0865
     36  CZ        15.4580   13.3680   19.0740 C.cat  41  ARG41       0.5346
     37  NH1       14.6560   13.4570   20.1140 N.pl3  41  ARG41       0.1354
     38  NH2       15.0130   13.6650   17.8690 N.pl3  41  ARG41       0.1354
     39  N         21.4150    6.4920   17.0100 N.3    45  PHE45      -0.1241
     40  CA        21.5390    6.0760   15.6360 C.3    45  PHE45       0.1605
     41  C         22.8340    5.2860   15.4000 C.2    45  PHE45       0.2264
     42  O         22.8270    4.2900   14.6750 O.2    45  PHE45      -0.2867
     43  CB        21.5250    7.2980   14.6790 C.3    45  PHE45       0.0534
     44  CG        20.2840    8.1570   14.7730 C.ar   45  PHE45      -0.0203
     45  CD1       19.0470    7.6010   15.1000 C.ar   45  PHE45      -0.0042
     46  CD2       20.3710    9.5400   14.6210 C.ar   45  PHE45      -0.0042
     47  CE1       17.9280    8.4150   15.2900 C.ar   45  PHE45      -0.0003
     48  CE2       19.2430   10.3700   14.8100 C.ar   45  PHE45      -0.0003
     49  CZ        18.0380    9.8140   15.1450 C.ar   45  PHE45      -0.0000
     50  N         23.1660   16.6940    8.1000 N.3   185  ILE185     -0.1245
     51  CA        22.7590   17.5430    9.2230 C.3   185  ILE185      0.1561
     52  C         23.4640   18.9060    9.2050 C.2   185  ILE185      0.2260
     53  O         22.8890   19.9320    9.5850 O.2   185  ILE185     -0.2867
     54  CB        23.0500   16.8730   10.5870 C.3   185  ILE185      0.0252
     55  CG1       22.2810   15.5590   10.7090 C.3   185  ILE185      0.0019
     56  CG2       22.7290   17.8430   11.7140 C.3   185  ILE185      0.0019
     57  CD1       20.8340   15.6680   10.3270 C.3   185  ILE185      0.0001
     58  N         21.6400   21.0580    6.9390 N.3   188  ALA188     -0.1231
     59  CA        20.3970   21.4880    7.5580 C.3   188  ALA188      0.1694
     60  C         20.6780   22.6040    8.5650 C.2   188  ALA188      0.2592
     61  O         19.9300   23.5850    8.6570 O.2   188  ALA188     -0.2718
     62  CB        19.7210   20.3210    8.2600 C.3   188  ALA188      0.0304
     63  N         21.7700   22.4490    9.3060 N.am  189  ASP189     -0.1974
     64  CA        22.1390   23.4180   10.3120 C.3   189  ASP189      0.1709
     65  C         22.3630   24.7940    9.6900 C.2   189  ASP189      0.2293
     66  O         21.8380   25.7860   10.1780 O.2   189  ASP189     -0.2864
     67  CB        23.3900   22.9370   11.0450 C.3   189  ASP189      0.1436
     68  CG        23.5830   23.6300   12.3840 C.2   189  ASP189      0.3671
     69  OD1       22.7070   23.4580   13.2700 O.co2 189  ASP189     -0.2456
     70  OD2       24.6060   24.3460   12.5410 O.co2 189  ASP189     -0.2456
     71  N         19.2710   26.5140    8.4140 N.3   192  THR192     -0.1218
     72  CA        18.4440   26.9750    9.5070 C.3   192  THR192      0.1862
     73  C         19.0170   28.2420   10.1450 C.2   192  THR192      0.2287
     74  O         18.3170   29.2450   10.3220 O.2   192  THR192     -0.2866
     75  CB        18.3400   25.9200   10.5910 C.3   192  THR192      0.1770
     76  OG1       17.7130   24.7510   10.0520 O.3   192  THR192     -0.2211
     77  CG2       17.5330   26.4550   11.7620 C.3   192  THR192      0.0375
     78  N         17.7210   31.7480   11.9520 N.3   196  ARG196     -0.1245
     79  CA        17.7240   31.6870   13.4030 C.3   196  ARG196      0.1563
     80  C         18.8410   32.4630   14.1090 C.2   196  ARG196      0.2260
     81  O         18.6650   32.8520   15.2680 O.2   196  ARG196     -0.2867
     82  CB        17.7160   30.2230   13.8700 C.3   196  ARG196      0.0307
     83  CG        17.6360   30.0800   15.3930 C.3   196  ARG196      0.0489
     84  CD        17.0980   28.7250   15.8700 C.3   196  ARG196      0.2205
     85  NE        17.8780   27.5670   15.4160 N.pl3 196  ARG196     -0.0865
     86  CZ        19.1660   27.3480   15.6950 C.cat 196  ARG196      0.5346
     87  NH1       19.8520   28.2130   16.4340 N.pl3 196  ARG196      0.1354
     88  NH2       19.7710   26.2480   15.2450 N.pl3 196  ARG196      0.1354
     89  N         15.3560   13.0650    7.6710 N.3   249  TYR249     -0.1241
     90  CA        16.2770   14.1890    7.6640 C.3   249  TYR249      0.1605
     91  C         16.6100   14.7470    6.2920 C.2   249  TYR249      0.2264
     92  O         16.7030   15.9570    6.1170 O.2   249  TYR249     -0.2867
     93  CB        17.5640   13.7840    8.3680 C.3   249  TYR249      0.0534
     94  CG        17.4170   13.6620    9.8630 C.ar  249  TYR249     -0.0201
     95  CD1       17.7790   14.7190   10.7030 C.ar  249  TYR249     -0.0009
     96  CD2       16.9120   12.5000   10.4440 C.ar  249  TYR249     -0.0009
     97  CE1       17.6460   14.6160   12.0820 C.ar  249  TYR249      0.0417
     98  CE2       16.7700   12.3910   11.8210 C.ar  249  TYR249      0.0417
     99  CZ        17.1410   13.4520   12.6340 C.ar  249  TYR249      0.1957
    100  OH        17.0050   13.3620   14.0020 O.3   249  TYR249     -0.2866
    101  N         13.4790   16.5530    4.7810 N.3   252  ASP252     -0.1239
    102  CA        13.2270   17.7790    5.5200 C.3   252  ASP252      0.1674
    103  C         14.0500   18.9130    4.9140 C.2   252  ASP252      0.2266
    104  O         13.5350   20.0000    4.6850 O.2   252  ASP252     -0.2867
    105  CB        13.5980   17.5580    6.9740 C.3   252  ASP252      0.1410
    106  CG        13.1740   18.6830    7.8620 C.2   252  ASP252      0.3668
    107  OD1       12.0030   19.1060    7.7770 O.co2 252  ASP252     -0.2456
    108  OD2       14.0140   19.1260    8.6690 O.co2 252  ASP252     -0.2456
    109  N         11.2370   21.3010    3.4920 N.3   256  ARG256     -0.1245
    110  CA        11.1370   22.4540    4.3670 C.3   256  ARG256      0.1563
    111  C         12.2150   23.5430    4.2050 C.2   256  ARG256      0.2260
    112  O         11.9010   24.6750    3.8170 O.2   256  ARG256     -0.2867
    113  CB        11.0910   21.9870    5.8220 C.3   256  ARG256      0.0307
    114  CG        10.8880   23.1000    6.8280 C.3   256  ARG256      0.0489
    115  CD        10.1790   22.5890    8.0760 C.3   256  ARG256      0.2205
    116  NE        11.0220   21.7260    8.8960 N.pl3 256  ARG256     -0.0865
    117  CZ        12.1450   22.1310    9.4840 C.cat 256  ARG256      0.5346
    118  NH1       12.5490   23.3810    9.3340 N.pl3 256  ARG256      0.1354
    119  NH2       12.8610   21.2980   10.2300 N.pl3 256  ARG256      0.1354
@<TRIPOS>BOND
     1   109   110    1
     2   112   111    2
     3   111   110    1
     4   110   113    1
     5   104   103    2
     6   101   102    1
     7   103   102    1
     8   102   105    1
     9   113   114    1
    10    92    91    2
    11    91    90    1
    12   114   115    1
    13    58    59    1
    14   105   106    1
    15    59    62    1
    16    59    60    1
    17    90    89    1
    18    90    93    1
    19   107   106   ar
    20   106   108   ar
    21   115   116    1
    22    50    51    1
    23    93    94    1
    24    71    72    1
    25    60    61    2
    26    60    63   am
    27   116   117    2
    28    52    51    1
    29    52    53    2
    30    51    54    1
    31    63    64    1
    32   118   117    1
    33   117   119    1
    34    72    73    1
    35    72    75    1
    36    65    66    2
    37    65    64    1
    38    94    96   ar
    39    94    95   ar
    40    76    75    1
    41    73    74    2
    42    64    67    1
    43    57    55    1
    44    96    98   ar
    45    54    55    1
    46    54    56    1
    47    75    77    1
    48    95    97   ar
    49    67    68    1
    50    98    99   ar
    51    78    79    1
    52    97    99   ar
    53    68    70   ar
    54    68    69   ar
    55    99   100    1
    56    79    82    1
    57    79    80    1
    58    82    83    1
    59    80    81    2
    60    46    44   ar
    61    46    48   ar
    62    42    41    2
    63    43    44    1
    64    43    40    1
    65    44    45   ar
    66    48    49   ar
    67    45    47   ar
    68    49    47   ar
    69    88    86    1
    70    83    84    1
    71    41    40    1
    72    85    86    2
    73    85    84    1
    74    40    39    1
    75    86    87    1
    76    27    25    1
    77    26    25    1
    78    25    24    1
    79    24    21    1
    80    38    36    1
    81    34    33    1
    82    34    35    1
    83    33    32    1
    84    21    22    1
    85    21    20    1
    86    23    22    2
    87    36    35    2
    88    36    37    1
    89    31    30    2
    90    30    29    1
    91    20    11   am
    92    32    29    1
    93    29    28    1
    94    11    12    2
    95    11    10    1
    96    13    10    1
    97    13    14    1
    98    18    17    1
    99     8     6    1
   100    10     9    1
   101     1     2    1
   102     6     7    1
   103     6     5    1
   104    17    19    1
   105    17    16    2
   106    16    15    1
   107    15    14    1
   108     2     5    1
   109     2     3    1
   110     3     4    2
