@<TRIPOS>MOLECULE
tmp/5gwwD00.pdb
 154 145 0 0 0
SMALL
GASTEIGER

@<TRIPOS>ATOM
      1  N         20.6620   16.9120   19.8210 N.3    38  LEU38      -0.1231
      2  CA        21.2070   16.1510   18.7130 C.3    38  LEU38       0.1693
      3  C         22.3880   15.2980   19.1920 C.2    38  LEU38       0.2592
      4  O         22.5000   14.1110   18.8540 O.2    38  LEU38      -0.2718
      5  CB        21.6630   17.0960   17.6040 C.3    38  LEU38       0.0284
      6  CG        22.3160   16.4210   16.3820 C.3    38  LEU38       0.0019
      7  CD1       21.2460   15.6900   15.5780 C.3    38  LEU38       0.0001
      8  CD2       23.0320   17.4730   15.5020 C.3    38  LEU38       0.0001
      9  N         23.2440   15.9080   20.0130 N.am   39  TYR39      -0.1976
     10  CA        24.4260   15.2160   20.5280 C.3    39  TYR39       0.1639
     11  C         24.0790   14.0440   21.3940 C.2    39  TYR39       0.2290
     12  O         24.7520   13.0360   21.3120 O.2    39  TYR39      -0.2864
     13  CB        25.3140   16.1720   21.2940 C.3    39  TYR39       0.0560
     14  CG        25.7670   17.3230   20.4590 C.ar   39  TYR39      -0.0198
     15  CD1       26.9390   17.2540   19.7330 C.ar   39  TYR39      -0.0009
     16  CD2       25.0040   18.4940   20.3930 C.ar   39  TYR39      -0.0009
     17  CE1       27.3610   18.3280   18.9390 C.ar   39  TYR39       0.0417
     18  CE2       25.4080   19.5720   19.6200 C.ar   39  TYR39       0.0417
     19  CZ        26.5930   19.4810   18.8870 C.ar   39  TYR39       0.1957
     20  OH        26.9800   20.5450   18.0850 O.3    39  TYR39      -0.2866
     21  N         22.0910   11.2540   18.6750 N.3    42  VAL42      -0.1245
     22  CA        22.8260   10.5620   17.6130 C.3    42  VAL42       0.1561
     23  C         23.4800    9.2270   18.0170 C.2    42  VAL42       0.2260
     24  O         23.5750    8.3160   17.2030 O.2    42  VAL42      -0.2867
     25  CB        23.8710   11.5120   16.9790 C.3    42  VAL42       0.0252
     26  CG1       25.0560   11.6790   17.9110 C.3    42  VAL42       0.0019
     27  CG2       24.3280   10.9800   15.6590 C.3    42  VAL42       0.0019
     28  N         33.2880   16.9080   23.7380 N.3    70  MET70      -0.1230
     29  CA        33.8610   17.6260   22.5950 C.3    70  MET70       0.1702
     30  C         33.0930   18.8980   22.2940 C.2    70  MET70       0.2592
     31  O         33.6550   19.8780   21.7890 O.2    70  MET70      -0.2718
     32  CB        33.8630   16.7210   21.3540 C.3    70  MET70       0.0401
     33  CG        34.8030   15.5130   21.4870 C.3    70  MET70       0.0596
     34  SD        36.5520   16.0210   21.7250 S.3    70  MET70      -0.1393
     35  CE        36.7960   15.6700   23.5250 C.3    70  MET70       0.0692
     36  N         31.8010   18.8950   22.5930 N.am   71  LYS71      -0.1980
     37  CA        31.0010   20.0840   22.3290 C.3    71  LYS71       0.1596
     38  C         31.4360   21.1120   23.3580 C.2    71  LYS71       0.2287
     39  O         31.5980   22.3120   23.0500 O.2    71  LYS71      -0.2864
     40  CB        29.5120   19.7620   22.4380 C.3    71  LYS71       0.0298
     41  CG        28.6020   20.9830   22.5490 C.3    71  LYS71       0.0038
     42  CD        28.6120   21.8180   21.2870 C.3    71  LYS71       0.0206
     43  CE        27.7950   23.0850   21.5280 C.3    71  LYS71       0.1093
     44  NZ        27.8940   24.0370   20.3870 N.3    71  LYS71      -0.1314
     45  N         34.3410   21.3020   24.6300 N.3    73  LEU73      -0.1231
     46  CA        35.6610   21.7970   24.2140 C.3    73  LEU73       0.1693
     47  C         35.4690   22.8810   23.1580 C.2    73  LEU73       0.2592
     48  O         36.1700   23.9180   23.1630 O.2    73  LEU73      -0.2718
     49  CB        36.5270   20.6880   23.6320 C.3    73  LEU73       0.0284
     50  CG        37.9500   21.1280   23.2430 C.3    73  LEU73       0.0019
     51  CD1       38.7200   21.5980   24.4820 C.3    73  LEU73       0.0001
     52  CD2       38.6960   19.9350   22.6260 C.3    73  LEU73       0.0001
     53  N         34.4920   22.6580   22.2700 N.am   74  ASP74      -0.1974
     54  CA        34.2080   23.6230   21.2230 C.3    74  ASP74       0.1709
     55  C         33.6750   24.9140   21.8650 C.2    74  ASP74       0.2293
     56  O         34.0420   26.0360   21.4500 O.2    74  ASP74      -0.2864
     57  CB        33.1910   23.0530   20.2170 C.3    74  ASP74       0.1436
     58  CG        33.1000   23.8990   18.9320 C.2    74  ASP74       0.3671
     59  OD1       32.0740   24.5660   18.7280 O.co2  74  ASP74      -0.2456
     60  OD2       34.0760   23.9090   18.1340 O.co2  74  ASP74      -0.2456
     61  N         36.4480   27.0360   22.9990 N.3    77  MET77      -0.1245
     62  CA        37.1910   27.8490   22.0550 C.3    77  MET77       0.1570
     63  C         36.3630   29.0250   21.5560 C.2    77  MET77       0.2261
     64  O         36.9040   30.1070   21.3150 O.2    77  MET77      -0.2867
     65  CB        37.8140   27.0180   20.8860 C.3    77  MET77       0.0387
     66  CG        36.9550   26.1990   20.0120 C.3    77  MET77       0.0595
     67  SD        37.9940   25.0900   18.9090 S.3    77  MET77      -0.1393
     68  CE        37.5620   23.4270   19.5720 C.3    77  MET77       0.0692
     69  N         41.2190   15.7700   12.0480 N.3   124  LEU124     -0.1231
     70  CA        40.1680   16.4180   12.8140 C.3   124  LEU124      0.1693
     71  C         40.6310   17.7100   13.5190 C.2   124  LEU124      0.2592
     72  O         39.9860   18.7360   13.3720 O.2   124  LEU124     -0.2718
     73  CB        39.5780   15.4610   13.8650 C.3   124  LEU124      0.0284
     74  CG        38.5290   16.1040   14.8130 C.3   124  LEU124      0.0019
     75  CD1       37.2310   16.3520   14.0450 C.3   124  LEU124      0.0001
     76  CD2       38.2340   15.2080   16.0180 C.3   124  LEU124      0.0001
     77  N         41.7430   17.6760   14.2680 N.am  125  CYS125     -0.1970
     78  CA        42.1610   18.8750   15.0000 C.3   125  CYS125      0.1712
     79  C         42.7220   19.9900   14.1110 C.2   125  CYS125      0.2296
     80  O         42.2360   21.1080   14.1820 O.2   125  CYS125     -0.2864
     81  CB        43.1490   18.5200   16.1340 C.3   125  CYS125      0.0983
     82  SG        42.4980   17.2280   17.2790 S.3   125  CYS125     -0.0798
     83  N         39.9330   21.4120   12.2210 N.3   128  GLN128     -0.1245
     84  CA        39.0650   22.2700   12.9960 C.3   128  GLN128      0.1566
     85  C         39.6780   23.6690   13.0740 C.2   128  GLN128      0.2260
     86  O         38.9640   24.6630   12.9760 O.2   128  GLN128     -0.2867
     87  CB        38.8520   21.6820   14.3960 C.3   128  GLN128      0.0367
     88  CG        37.8440   22.4450   15.2510 C.3   128  GLN128      0.0905
     89  CD        36.3670   22.2110   14.8540 C.2   128  GLN128      0.2608
     90  OE1       36.0510   21.5360   13.8590 O.2   128  GLN128     -0.2717
     91  NE2       35.4630   22.7820   15.6430 N.am  128  GLN128     -0.0878
     92  N         34.5530   19.0990   10.3070 N.3   149  TYR149     -0.1227
     93  CA        33.7960   19.2820   11.5480 C.3   149  TYR149      0.1736
     94  C         32.5160   18.4630   11.6160 C.2   149  TYR149      0.2596
     95  O         31.9300   18.2920   12.6870 O.2   149  TYR149     -0.2718
     96  CB        33.4960   20.7620   11.7990 C.3   149  TYR149      0.0548
     97  CG        32.5010   21.3930   10.8480 C.ar  149  TYR149     -0.0200
     98  CD1       31.1340   21.3000   11.0780 C.ar  149  TYR149     -0.0009
     99  CD2       32.9400   22.1380    9.7380 C.ar  149  TYR149     -0.0009
    100  CE1       30.2050   21.9390   10.2350 C.ar  149  TYR149      0.0417
    101  CE2       32.0300   22.7790    8.8930 C.ar  149  TYR149      0.0417
    102  CZ        30.6640   22.6760    9.1440 C.ar  149  TYR149      0.1957
    103  OH        29.7600   23.2930    8.2890 O.3   149  TYR149     -0.2866
    104  N         32.0670   17.9540   10.4780 N.am  150  GLY150     -0.1957
    105  CA        30.8640   17.1500   10.5040 C.3   150  GLY150      0.1869
    106  C         31.1670   15.6770   10.3250 C.2   150  GLY150      0.2309
    107  O         31.0510   14.8800   11.2640 O.2   150  GLY150     -0.2863
    108  N         34.1970   14.0590   12.3100 N.3   153  PHE153     -0.1227
    109  CA        33.7650   14.0470   13.6890 C.3   153  PHE153      0.1736
    110  C         32.8230   12.8620   14.0150 C.2   153  PHE153      0.2595
    111  O         33.1310   12.0070   14.8490 O.2   153  PHE153     -0.2718
    112  CB        33.0670   15.3560   14.0210 C.3   153  PHE153      0.0547
    113  CG        32.6100   15.4310   15.4430 C.ar  153  PHE153     -0.0202
    114  CD1       33.5070   15.6920   16.4590 C.ar  153  PHE153     -0.0042
    115  CD2       31.2910   15.1750   15.7690 C.ar  153  PHE153     -0.0042
    116  CE1       33.0960   15.6960   17.7850 C.ar  153  PHE153     -0.0003
    117  CE2       30.8640   15.1760   17.1000 C.ar  153  PHE153     -0.0003
    118  CZ        31.7750   15.4380   18.1060 C.ar  153  PHE153     -0.0000
    119  N         31.6730   12.8030   13.3620 N.am  154  LEU154     -0.1980
    120  CA        30.7690   11.7060   13.6480 C.3   154  LEU154      0.1596
    121  C         31.3150   10.3430   13.1780 C.2   154  LEU154      0.2287
    122  O         31.0380    9.3080   13.8020 O.2   154  LEU154     -0.2864
    123  CB        29.4050   11.9700   13.0240 C.3   154  LEU154      0.0297
    124  CG        28.3330   11.2120   13.8080 C.3   154  LEU154      0.0022
    125  CD1       28.2520   11.7450   15.2520 C.3   154  LEU154      0.0001
    126  CD2       27.0000   11.3700   13.1140 C.3   154  LEU154      0.0001
    127  N         26.1640   12.8810    9.1180 N.3   182  ALA182     -0.1245
    128  CA        26.6570   14.1200    9.7180 C.3   182  ALA182      0.1562
    129  C         26.6110   15.2570    8.7300 C.2   182  ALA182      0.2260
    130  O         26.2400   16.3930    9.0990 O.2   182  ALA182     -0.2867
    131  CB        28.0910   13.9690   10.2330 C.3   182  ALA182      0.0290
    132  N         23.1020   16.6580    8.2610 N.3   185  ILE185     -0.1231
    133  CA        22.7500   17.5130    9.4120 C.3   185  ILE185      0.1692
    134  C         23.4350   18.8770    9.3260 C.2   185  ILE185      0.2592
    135  O         22.8370   19.9170    9.6260 O.2   185  ILE185     -0.2718
    136  CB        23.1540   16.8560   10.7430 C.3   185  ILE185      0.0266
    137  CG1       22.2600   15.6600   11.0230 C.3   185  ILE185      0.0019
    138  CG2       23.0720   17.8680   11.8870 C.3   185  ILE185      0.0020
    139  CD1       22.8800   14.7270   12.0760 C.3   185  ILE185      0.0001
    140  N         24.6940   18.8460    8.9050 N.am  186  THR186     -0.1953
    141  CA        25.5060   20.0310    8.7510 C.3   186  THR186      0.1897
    142  C         24.8510   20.9990    7.7270 C.2   186  THR186      0.2313
    143  O         24.8850   22.2240    7.8600 O.2   186  THR186     -0.2863
    144  CB        26.9310   19.5700    8.3220 C.3   186  THR186      0.1794
    145  OG1       27.7560   19.3970    9.4790 O.3   186  THR186     -0.2208
    146  CG2       27.5640   20.5210    7.4170 C.3   186  THR186      0.0378
    147  N         21.8380   22.4570    9.4020 N.3   189  ASP189     -0.1239
    148  CA        22.2640   23.4760   10.3620 C.3   189  ASP189      0.1674
    149  C         22.4820   24.8210    9.7000 C.2   189  ASP189      0.2266
    150  O         22.0040   25.8220   10.1900 O.2   189  ASP189     -0.2867
    151  CB        23.5640   23.0840   11.0760 C.3   189  ASP189      0.1410
    152  CG        23.3420   22.0850   12.1950 C.2   189  ASP189      0.3668
    153  OD1       22.1750   21.9270   12.6280 O.co2 189  ASP189     -0.2456
    154  OD2       24.3350   21.4580   12.6470 O.co2 189  ASP189     -0.2456
@<TRIPOS>BOND
     1   146   144    1
     2   142   143    2
     3   142   141    1
     4   132   133    1
     5   103   102    1
     6   144   141    1
     7   144   145    1
     8   129   130    2
     9   129   128    1
    10   141   140    1
    11   101   102   ar
    12   101    99   ar
    13   140   134   am
    14   127   128    1
    15   102   100   ar
    16   134   133    1
    17   134   135    2
    18   147   148    1
    19   133   136    1
    20   149   150    2
    21   149   148    1
    22   128   131    1
    23    99    97   ar
    24   100    98   ar
    25    92    93    1
    26   106   105    1
    27   106   107    2
    28   148   151    1
    29   104   105    1
    30   104    94   am
    31   136   137    1
    32   136   138    1
    33    97    98   ar
    34    97    96    1
    35   137   139    1
    36   151   152    1
    37    93    94    1
    38    93    96    1
    39    94    95    2
    40    69    70    1
    41   152   153   ar
    42   152   154   ar
    43    83    84    1
    44   108   109    1
    45    70    71    1
    46    70    73    1
    47    86    85    2
    48    84    85    1
    49    84    87    1
    50   123   120    1
    51   123   124    1
    52   126   124    1
    53   121   120    1
    54   121   122    2
    55   119   120    1
    56   119   110   am
    57    72    71    2
    58    71    77   am
    59   109   110    1
    60   109   112    1
    61   124   125    1
    62    90    89    2
    63    73    74    1
    64   110   111    2
    65   112   113    1
    66    75    74    1
    67    79    80    2
    68    79    78    1
    69    77    78    1
    70    87    88    1
    71    74    76    1
    72    89    88    1
    73    89    91   am
    74    78    81    1
    75   113   115   ar
    76   113   114   ar
    77     8     6    1
    78     7     6    1
    79    27    25    1
    80   115   117   ar
    81    81    82    1
    82     6     5    1
    83   114   116   ar
    84    25    22    1
    85    25    26    1
    86   117   118   ar
    87    24    23    2
    88     5     2    1
    89    22    23    1
    90    22    21    1
    91   116   118   ar
    92    20    19    1
    93    60    58   ar
    94     2     3    1
    95     2     1    1
    96    59    58   ar
    97     4     3    2
    98    19    17   ar
    99    19    18   ar
   100    67    68    1
   101    67    66    1
   102    58    57    1
   103    17    15   ar
   104     3     9   am
   105    18    16   ar
   106    15    14   ar
   107    66    65    1
   108     9    10    1
   109    57    54    1
   110    44    43    1
   111    16    14   ar
   112    14    13    1
   113    10    13    1
   114    10    11    1
   115    65    62    1
   116    54    55    1
   117    54    53    1
   118    42    43    1
   119    42    41    1
   120    12    11    2
   121    64    63    2
   122    32    33    1
   123    32    29    1
   124    56    55    2
   125    33    34    1
   126    63    62    1
   127    34    35    1
   128    31    30    2
   129    62    61    1
   130    53    47   am
   131    30    36   am
   132    30    29    1
   133    37    40    1
   134    37    36    1
   135    37    38    1
   136    40    41    1
   137    29    28    1
   138    52    50    1
   139    39    38    2
   140    47    48    2
   141    47    46    1
   142    50    49    1
   143    50    51    1
   144    49    46    1
   145    46    45    1
