@<TRIPOS>MOLECULE
tmp/5gwyB00.pdb
 195 191 0 0 0
SMALL
GASTEIGER

@<TRIPOS>ATOM
      1  N        -36.5940   51.3630  -32.3870 N.3    27  SER27      -0.1202
      2  CA       -36.6560   50.8750  -31.0150 C.3    27  SER27       0.2020
      3  C        -35.9940   49.5080  -30.8810 C.2    27  SER27       0.2619
      4  O        -36.0160   48.9010  -29.8050 O.2    27  SER27      -0.2717
      5  CB       -38.1030   50.8070  -30.5390 C.3    27  SER27       0.2103
      6  OG       -38.8970   50.1060  -31.4750 O.3    27  SER27      -0.2182
      7  N        -35.4350   49.0200  -31.9870 N.am   28  THR28      -0.1938
      8  CA       -34.7480   47.7330  -32.0130 C.3    28  THR28       0.2028
      9  C        -33.2830   47.9180  -31.6170 C.2    28  THR28       0.2642
     10  O        -32.6030   48.7970  -32.1470 O.2    28  THR28      -0.2714
     11  CB       -34.8260   47.0740  -33.3970 C.3    28  THR28       0.1808
     12  OG1      -36.1980   46.9060  -33.7730 O.3    28  THR28      -0.2208
     13  CG2      -34.1360   45.7150  -33.3760 C.3    28  THR28       0.0379
     14  N        -32.8120   47.1310  -30.6540 N.am   29  VAL29      -0.1963
     15  CA       -31.4440   47.2680  -30.1600 C.3    29  VAL29       0.1727
     16  C        -30.6910   45.9520  -30.1550 C.2    29  VAL29       0.2616
     17  O        -31.1060   45.0040  -29.4960 O.2    29  VAL29      -0.2715
     18  CB       -31.4160   47.8210  -28.7300 C.3    29  VAL29       0.0290
     19  CG1      -29.9870   47.8960  -28.2300 C.3    29  VAL29       0.0023
     20  CG2      -32.0780   49.1850  -28.6690 C.3    29  VAL29       0.0023
     21  N        -29.5630   45.8990  -30.8500 N.am   30  LEU30      -0.1977
     22  CA       -28.6870   44.7370  -30.7600 C.3    30  LEU30       0.1596
     23  C        -27.2210   45.1450  -30.8670 C.2    30  LEU30       0.2287
     24  O        -26.8850   46.3140  -30.7170 O.2    30  LEU30      -0.2864
     25  CB       -29.0410   43.6980  -31.8330 C.3    30  LEU30       0.0297
     26  CG       -29.3620   44.1070  -33.2710 C.3    30  LEU30       0.0022
     27  CD1      -28.1320   44.6360  -33.9850 C.3    30  LEU30       0.0001
     28  CD2      -29.9320   42.9210  -34.0190 C.3    30  LEU30       0.0001
     29  N        -31.4410   42.3940  -39.6390 N.3    44  HIS44      -0.1241
     30  CA       -32.8240   42.4210  -39.1760 C.3    44  HIS44       0.1621
     31  C        -33.0480   43.5040  -38.1250 C.2    44  HIS44       0.2264
     32  O        -34.1400   43.6330  -37.5830 O.2    44  HIS44      -0.2867
     33  CB       -33.2470   41.0610  -38.6130 C.3    44  HIS44       0.0745
     34  CG       -32.4780   40.6360  -37.4000 C.ar   44  HIS44       0.0817
     35  ND1      -31.6180   39.5610  -37.4070 N.ar   44  HIS44      -0.2268
     36  CD2      -32.4390   41.1460  -36.1460 C.ar   44  HIS44       0.1154
     37  CE1      -31.0830   39.4200  -36.2050 C.ar   44  HIS44       0.1986
     38  NE2      -31.5620   40.3700  -35.4230 N.ar   44  HIS44      -0.2212
     39  N        -39.6040   41.3910  -36.1720 N.3    50  THR50      -0.1218
     40  CA       -38.6390   40.2920  -36.2430 C.3    50  THR50       0.1862
     41  C        -39.4000   38.9740  -36.0800 C.2    50  THR50       0.2287
     42  O        -38.8480   37.8870  -36.2740 O.2    50  THR50      -0.2866
     43  CB       -37.4930   40.4190  -35.1970 C.3    50  THR50       0.1770
     44  OG1      -38.0260   40.6610  -33.8870 O.3    50  THR50      -0.2211
     45  CG2      -36.5470   41.5610  -35.5750 C.3    50  THR50       0.0375
     46  N        -39.9670   38.6520  -42.9710 N.3    54  ILE54      -0.1245
     47  CA       -39.4360   39.9680  -43.2560 C.3    54  ILE54       0.1561
     48  C        -39.1590   40.1930  -44.7350 C.2    54  ILE54       0.2260
     49  O        -38.4640   39.4050  -45.3680 O.2    54  ILE54      -0.2867
     50  CB       -38.1450   40.2080  -42.4850 C.3    54  ILE54       0.0252
     51  CG1      -38.3650   39.9450  -40.9990 C.3    54  ILE54       0.0019
     52  CG2      -37.6450   41.6180  -42.7240 C.3    54  ILE54       0.0019
     53  CD1      -37.0840   39.6990  -40.2440 C.3    54  ILE54       0.0001
     54  N        -27.7600   31.9550  -25.3850 N.3   142  PHE142     -0.1227
     55  CA       -28.2180   33.2720  -25.7950 C.3   142  PHE142      0.1736
     56  C        -29.6530   33.5370  -25.3830 C.2   142  PHE142      0.2595
     57  O        -30.4800   32.6240  -25.3780 O.2   142  PHE142     -0.2718
     58  CB       -28.1080   33.4370  -27.3130 C.3   142  PHE142      0.0547
     59  CG       -26.7310   33.2060  -27.8670 C.ar  142  PHE142     -0.0202
     60  CD1      -25.7690   34.2010  -27.7970 C.ar  142  PHE142     -0.0042
     61  CD2      -26.4070   32.0140  -28.4900 C.ar  142  PHE142     -0.0042
     62  CE1      -24.5010   34.0040  -28.3250 C.ar  142  PHE142     -0.0003
     63  CE2      -25.1390   31.8110  -29.0120 C.ar  142  PHE142     -0.0003
     64  CZ       -24.1860   32.8080  -28.9320 C.ar  142  PHE142     -0.0000
     65  N        -29.9600   34.7810  -25.0410 N.am  143  ILE143     -0.1966
     66  CA       -31.3570   35.1500  -24.8770 C.3   143  ILE143      0.1727
     67  C        -31.6150   36.4080  -25.7000 C.2   143  ILE143      0.2616
     68  O        -30.7390   36.8390  -26.4460 O.2   143  ILE143     -0.2715
     69  CB       -31.7280   35.3670  -23.3970 C.3   143  ILE143      0.0290
     70  CG1      -30.8740   36.4640  -22.7690 C.3   143  ILE143      0.0022
     71  CG2      -31.5770   34.0700  -22.6200 C.3   143  ILE143      0.0023
     72  CD1      -31.2220   36.7270  -21.3130 C.3   143  ILE143      0.0001
     73  N        -32.7960   37.0010  -25.5520 N.am  144  ASN144     -0.1958
     74  CA       -33.1720   38.1630  -26.3550 C.3   144  ASN144      0.1819
     75  C        -32.1500   39.2780  -26.2720 C.2   144  ASN144      0.2621
     76  O        -31.6790   39.6230  -25.1940 O.2   144  ASN144     -0.2715
     77  CB       -34.5560   38.6740  -25.9660 C.3   144  ASN144      0.1195
     78  CG       -35.6370   37.6500  -26.2320 C.2   144  ASN144      0.2630
     79  OD1      -35.4060   36.4460  -26.1080 O.2   144  ASN144     -0.2716
     80  ND2      -36.8220   38.1170  -26.6150 N.am  144  ASN144     -0.0877
     81  N        -31.7570   39.7760  -27.4380 N.am  145  GLY145     -0.1954
     82  CA       -30.8390   40.8930  -27.5360 C.3   145  GLY145      0.1869
     83  C        -29.3950   40.4670  -27.6900 C.2   145  GLY145      0.2309
     84  O        -28.4890   41.2870  -27.5890 O.2   145  GLY145     -0.2863
     85  N        -28.1640   39.0260  -30.4240 N.3   147  CYS147     -0.1235
     86  CA       -27.7880   39.0350  -31.8290 C.3   147  CYS147      0.1677
     87  C        -26.7160   40.0780  -32.1150 C.2   147  CYS147      0.2270
     88  O        -26.7360   41.1820  -31.5640 O.2   147  CYS147     -0.2867
     89  CB       -29.0240   39.2750  -32.6900 C.3   147  CYS147      0.0956
     90  SG       -30.2700   37.9800  -32.5150 S.3   147  CYS147     -0.0801
     91  N        -23.9860   36.3680  -34.2490 N.3   166  HIS166     -0.1226
     92  CA       -25.1530   35.5990  -33.8560 C.3   166  HIS166      0.1752
     93  C        -26.4240   36.1750  -34.4600 C.2   166  HIS166      0.2596
     94  O        -26.6270   37.3900  -34.4760 O.2   166  HIS166     -0.2718
     95  CB       -25.2700   35.5340  -32.3430 C.3   166  HIS166      0.0759
     96  CG       -26.3790   34.6390  -31.8780 C.ar  166  HIS166      0.0818
     97  ND1      -26.5310   33.3660  -32.3430 N.ar  166  HIS166     -0.2268
     98  CD2      -27.3780   34.8610  -30.9900 C.ar  166  HIS166      0.1154
     99  CE1      -27.5970   32.8170  -31.7620 C.ar  166  HIS166      0.1986
    100  NE2      -28.1160   33.6960  -30.9430 N.ar  166  HIS166     -0.2212
    101  N        -27.2800   35.2950  -34.9640 N.am  167  GLN167     -0.1965
    102  CA       -28.4830   35.7400  -35.6530 C.3   167  GLN167      0.1733
    103  C        -29.7290   34.9450  -35.2450 C.2   167  GLN167      0.2616
    104  O        -30.7890   35.5220  -35.0210 O.2   167  GLN167     -0.2715
    105  CB       -28.2850   35.6630  -37.1690 C.3   167  GLN167      0.0408
    106  CG       -27.1800   36.5810  -37.6820 C.3   167  GLN167      0.0908
    107  CD       -27.6240   37.4970  -38.8040 C.2   167  GLN167      0.2608
    108  OE1      -28.8170   37.7290  -39.0010 O.2   167  GLN167     -0.2717
    109  NE2      -26.6590   38.0210  -39.5510 N.am  167  GLN167     -0.0878
    110  N        -29.6110   33.6300  -35.1130 N.am  168  ILE168     -0.1963
    111  CA       -30.8050   32.7990  -35.0330 C.3   168  ILE168      0.1727
    112  C        -30.7250   31.7240  -33.9750 C.2   168  ILE168      0.2616
    113  O        -29.6600   31.1480  -33.7420 O.2   168  ILE168     -0.2715
    114  CB       -31.0560   32.0690  -36.3740 C.3   168  ILE168      0.0290
    115  CG1      -31.0010   33.0330  -37.5490 C.3   168  ILE168      0.0022
    116  CG2      -32.3770   31.3400  -36.3660 C.3   168  ILE168      0.0023
    117  CD1      -30.7300   32.3360  -38.8520 C.3   168  ILE168      0.0001
    118  N        -31.8640   31.4530  -33.3420 N.am  169  GLU169     -0.1963
    119  CA       -32.0300   30.2550  -32.5290 C.3   169  GLU169      0.1733
    120  C        -33.1310   29.4210  -33.1440 C.2   169  GLU169      0.2616
    121  O        -34.2690   29.8760  -33.2480 O.2   169  GLU169     -0.2715
    122  CB       -32.3620   30.6010  -31.0820 C.3   169  GLU169      0.0429
    123  CG       -32.5480   29.3870  -30.1910 C.3   169  GLU169      0.1163
    124  CD       -32.8740   29.7650  -28.7620 C.2   169  GLU169      0.3649
    125  OE1      -31.9350   30.0630  -27.9900 O.co2 169  GLU169     -0.2457
    126  OE2      -34.0730   29.7810  -28.4140 O.co2 169  GLU169     -0.2457
    127  N        -32.7840   28.2110  -33.5700 N.am  170  LEU170     -0.1963
    128  CA       -33.7400   27.3160  -34.2020 C.3   170  LEU170      0.1728
    129  C        -34.7140   26.7830  -33.1650 C.2   170  LEU170      0.2616
    130  O        -34.4990   26.9420  -31.9600 O.2   170  LEU170     -0.2715
    131  CB       -33.0210   26.1640  -34.8960 C.3   170  LEU170      0.0311
    132  CG       -32.0220   26.5300  -35.9960 C.3   170  LEU170      0.0022
    133  CD1      -31.3130   25.2840  -36.5090 C.3   170  LEU170      0.0001
    134  CD2      -32.7130   27.2580  -37.1320 C.3   170  LEU170      0.0001
    135  N        -35.7830   26.1450  -33.6250 N.am  171  GLY171     -0.1955
    136  CA       -36.7670   25.5890  -32.7150 C.3   171  GLY171      0.1869
    137  C        -36.1800   24.5140  -31.8150 C.2   171  GLY171      0.2309
    138  O        -36.6970   24.2590  -30.7330 O.2   171  GLY171     -0.2863
    139  N        -28.1120   27.1330  -32.2010 N.3   175  HIS175     -0.1241
    140  CA       -27.8530   28.5160  -32.5790 C.3   175  HIS175      0.1621
    141  C        -27.1380   28.6440  -33.9160 C.2   175  HIS175      0.2264
    142  O        -26.3260   27.8020  -34.2780 O.2   175  HIS175     -0.2867
    143  CB       -27.0550   29.2080  -31.4760 C.3   175  HIS175      0.0745
    144  CG       -27.7920   29.2910  -30.1770 C.ar  175  HIS175      0.0817
    145  ND1      -27.3400   28.6890  -29.0230 N.ar  175  HIS175     -0.2268
    146  CD2      -28.9670   29.8850  -29.8560 C.ar  175  HIS175      0.1154
    147  CE1      -28.1970   28.9180  -28.0440 C.ar  175  HIS175      0.1986
    148  NE2      -29.1930   29.6450  -28.5270 N.ar  175  HIS175     -0.2212
    149  N        -32.2690   33.9990  -42.3500 N.3   190  ASP190     -0.1225
    150  CA       -32.4580   34.9320  -41.2360 C.3   190  ASP190      0.1805
    151  C        -33.9240   35.3900  -41.1780 C.2   190  ASP190      0.2598
    152  O        -34.2370   36.5740  -41.3210 O.2   190  ASP190     -0.2718
    153  CB       -31.4970   36.1340  -41.3130 C.3   190  ASP190      0.1424
    154  CG       -31.6270   36.9240  -42.5930 C.2   190  ASP190      0.3668
    155  OD1      -31.9930   36.3390  -43.6360 O.co2 190  ASP190     -0.2456
    156  OD2      -31.3620   38.1440  -42.5470 O.co2 190  ASP190     -0.2456
    157  N        -34.8090   34.4170  -40.9790 N.am  191  GLN191     -0.1966
    158  CA       -36.2450   34.6380  -40.8540 C.3   191  GLN191      0.1718
    159  C        -36.7650   33.8550  -39.6560 C.2   191  GLN191      0.2458
    160  O        -36.2000   32.8280  -39.2930 O.2   191  GLN191     -0.2730
    161  CB       -36.9860   34.2020  -42.1220 C.3   191  GLN191      0.0407
    162  CG       -36.6590   34.9980  -43.3670 C.3   191  GLN191      0.0908
    163  CD       -37.4420   36.2910  -43.4390 C.2   191  GLN191      0.2608
    164  OE1      -38.3580   36.5140  -42.6510 O.2   191  GLN191     -0.2717
    165  NE2      -37.0890   37.1490  -44.3870 N.am  191  GLN191     -0.0878
    166  N        -37.8540   34.3210  -39.0350 N.am  192  PRO192     -0.2716
    167  CA       -38.3960   33.5410  -37.9180 C.3   192  PRO192      0.1536
    168  C        -39.1810   32.3160  -38.3890 C.2   192  PRO192      0.2599
    169  O        -40.1690   31.9460  -37.7610 O.2   192  PRO192     -0.2715
    170  CB       -39.3190   34.5390  -37.2220 C.3   192  PRO192      0.0310
    171  CG       -39.7720   35.4390  -38.3240 C.3   192  PRO192      0.0237
    172  CD       -38.6070   35.5640  -39.2680 C.3   192  PRO192      0.0939
    173  N        -38.7350   31.6930  -39.4760 N.am  193  SER193     -0.1936
    174  CA       -39.4470   30.5700  -40.0810 C.3   193  SER193      0.2055
    175  C        -39.0950   29.2360  -39.4530 C.2   193  SER193      0.2643
    176  O        -38.1010   29.1210  -38.7430 O.2   193  SER193     -0.2714
    177  CB       -39.1460   30.5050  -41.5670 C.3   193  SER193      0.2130
    178  OG       -37.7520   30.4020  -41.7670 O.3   193  SER193     -0.2179
    179  N        -39.8920   28.2180  -39.7440 N.am  194  LEU194     -0.1963
    180  CA       -39.5830   26.8830  -39.2590 C.3   194  LEU194      0.1728
    181  C        -38.4300   26.3460  -40.0780 C.2   194  LEU194      0.2616
    182  O        -38.5810   26.0750  -41.2620 O.2   194  LEU194     -0.2715
    183  CB       -40.7960   25.9520  -39.3510 C.3   194  LEU194      0.0311
    184  CG       -40.7530   24.6610  -38.5170 C.3   194  LEU194      0.0022
    185  CD1      -42.1340   24.0580  -38.4300 C.3   194  LEU194      0.0001
    186  CD2      -39.7760   23.6230  -39.0380 C.3   194  LEU194      0.0001
    187  N        -37.2680   26.2260  -39.4500 N.am  195  GLN195     -0.1977
    188  CA       -36.0910   25.7030  -40.1240 C.3   195  GLN195      0.1601
    189  C        -35.5370   24.5180  -39.3500 C.2   195  GLN195      0.2287
    190  O        -35.3910   24.5800  -38.1320 O.2   195  GLN195     -0.2864
    191  CB       -35.0330   26.7940  -40.2760 C.3   195  GLN195      0.0394
    192  CG       -35.5740   28.0820  -40.8610 C.3   195  GLN195      0.0908
    193  CD       -34.5200   29.1470  -41.0040 C.2   195  GLN195      0.2608
    194  OE1      -33.4130   28.8800  -41.4590 O.2   195  GLN195     -0.2717
    195  NE2      -34.8540   30.3650  -40.6150 N.am  195  GLN195     -0.0878
@<TRIPOS>BOND
     1    49    48    2
     2    48    47    1
     3   165   163   am
     4   155   154   ar
     5   163   162    1
     6   163   164    2
     7   162   161    1
     8    47    46    1
     9    47    50    1
    10    52    50    1
    11   154   156   ar
    12   154   153    1
    13    50    51    1
    14   149   150    1
    15   161   158    1
    16   178   177    1
    17   177   174    1
    18   194   193    2
    19   152   151    2
    20   153   150    1
    21   182   181    2
    22   150   151    1
    23   151   157   am
    24   193   192    1
    25   193   195   am
    26    51    53    1
    27   157   158    1
    28   192   191    1
    29   158   159    1
    30   191   188    1
    31   188   187    1
    32   188   189    1
    33   174   173    1
    34   174   175    1
    35   181   187   am
    36   181   180    1
    37   179   175   am
    38   179   180    1
    39   159   160    2
    40   159   166   am
    41    29    30    1
    42   109   107   am
    43   173   168   am
    44   175   176    2
    45   183   180    1
    46   183   184    1
    47   189   190    2
    48   172   166    1
    49   172   171    1
    50    30    33    1
    51    30    31    1
    52   186   184    1
    53   166   167    1
    54   108   107    2
    55   117   115    1
    56   107   106    1
    57    33    34    1
    58   184   185    1
    59   168   167    1
    60   168   169    2
    61   171   170    1
    62    31    32    2
    63   167   170    1
    64   106   105    1
    65   115   114    1
    66    35    34   ar
    67    35    37   ar
    68    34    36   ar
    69   105   102    1
    70   134   132    1
    71   133   132    1
    72   114   116    1
    73   114   111    1
    74    42    41    2
    75    40    39    1
    76    40    41    1
    77    40    43    1
    78    37    38   ar
    79    36    38   ar
    80   132   131    1
    81   102   103    1
    82   102   101    1
    83    45    43    1
    84   103   110   am
    85   103   104    2
    86    43    44    1
    87   110   111    1
    88   111   112    1
    89   101    93   am
    90   131   128    1
    91    94    93    2
    92    93    92    1
    93   142   141    2
    94    91    92    1
    95   128   127    1
    96   128   129    1
    97    28    26    1
    98    27    26    1
    99   112   113    2
   100   112   118   am
   101   141   140    1
   102    92    95    1
   103    12    11    1
   104   135   129   am
   105   135   136    1
   106   127   120   am
   107    11    13    1
   108    11     8    1
   109   118   119    1
   110    26    25    1
   111   121   120    2
   112   129   130    2
   113   120   119    1
   114   136   137    1
   115    89    90    1
   116    89    86    1
   117   140   139    1
   118   140   143    1
   119   119   122    1
   120     1     2    1
   121    95    96    1
   122    97    96   ar
   123    97    99   ar
   124    10     9    2
   125    87    86    1
   126    87    88    2
   127     8     7    1
   128     8     9    1
   129     7     3   am
   130    96    98   ar
   131    25    22    1
   132    86    85    1
   133   137   138    2
   134    99   100   ar
   135     9    14   am
   136   143   144    1
   137     6     5    1
   138   122   123    1
   139     2     3    1
   140     2     5    1
   141    98   100   ar
   142     3     4    2
   143    23    22    1
   144    23    24    2
   145    21    22    1
   146    21    16   am
   147    14    15    1
   148   123   124    1
   149   144   146   ar
   150   144   145   ar
   151    15    16    1
   152    15    18    1
   153    16    17    2
   154   146   148   ar
   155   145   147   ar
   156    63    64   ar
   157    63    61   ar
   158    64    62   ar
   159   124   126   ar
   160   124   125   ar
   161    18    20    1
   162    18    19    1
   163   148   147   ar
   164    61    59   ar
   165    62    60   ar
   166    59    60   ar
   167    59    58    1
   168    83    84    2
   169    83    82    1
   170    82    81    1
   171    81    75   am
   172    58    55    1
   173    80    78   am
   174    68    67    2
   175    74    75    1
   176    74    77    1
   177    74    73    1
   178    75    76    2
   179    78    79    2
   180    78    77    1
   181    55    54    1
   182    55    56    1
   183    67    73   am
   184    67    66    1
   185    56    57    2
   186    56    65   am
   187    65    66    1
   188    66    69    1
   189    69    70    1
   190    69    71    1
   191    70    72    1
