@<TRIPOS>MOLECULE
tmp/5gwzA00.pdb
 207 202 0 0 0
SMALL
GASTEIGER

@<TRIPOS>ATOM
      1  N         17.3620   42.5720    9.0320 N.3    24  MET24      -0.1230
      2  CA        17.1580   41.8060    7.8520 C.3    24  MET24       0.1702
      3  C         18.2810   41.8450    6.8430 C.2    24  MET24       0.2592
      4  O         18.8100   42.8700    6.5020 O.2    24  MET24      -0.2718
      5  CB        15.8390   42.2350    7.2240 C.3    24  MET24       0.0401
      6  CG        14.8870   41.0950    6.9220 C.3    24  MET24       0.0596
      7  SD        14.2620   41.3530    5.2770 S.3    24  MET24      -0.1393
      8  CE        13.2010   39.9350    5.1010 C.3    24  MET24       0.0692
      9  N         18.6140   40.6710    6.3760 N.am   25  ALA25      -0.1966
     10  CA        19.6470   40.4980    5.4090 C.3    25  ALA25       0.1728
     11  C         19.2630   39.5450    4.2590 C.2    25  ALA25       0.2616
     12  O         18.8400   38.4680    4.4780 O.2    25  ALA25      -0.2715
     13  CB        20.9340   40.0730    6.0750 C.3    25  ALA25       0.0334
     14  N         19.4070   39.9860    3.0280 N.am   26  LEU26      -0.1977
     15  CA        19.1870   39.1470    1.8570 C.3    26  LEU26       0.1596
     16  C         20.2160   39.4720    0.7820 C.2    26  LEU26       0.2287
     17  O         21.2520   40.0690    1.0690 O.2    26  LEU26      -0.2864
     18  CB        17.7610   39.3140    1.3170 C.3    26  LEU26       0.0297
     19  CG        17.1180   40.7060    1.2700 C.3    26  LEU26       0.0022
     20  CD1       17.7340   41.6030    0.2090 C.3    26  LEU26       0.0001
     21  CD2       15.6200   40.5700    1.0460 C.3    26  LEU26       0.0001
     22  N         11.0800   44.2390    0.2970 N.3    40  HIS40      -0.1241
     23  CA        10.6300   43.7970    1.6170 C.3    40  HIS40       0.1621
     24  C         11.7790   43.7140    2.6310 C.2    40  HIS40       0.2264
     25  O         11.5500   43.4470    3.8090 O.2    40  HIS40      -0.2867
     26  CB         9.8620   42.4600    1.5250 C.3    40  HIS40       0.0745
     27  CG        10.6940   41.2680    1.1640 C.ar   40  HIS40       0.0817
     28  ND1       11.7250   40.7980    1.9550 N.ar   40  HIS40      -0.2268
     29  CD2       10.6100   40.4090    0.1200 C.ar   40  HIS40       0.1154
     30  CE1       12.2540   39.7270    1.3980 C.ar   40  HIS40       0.1986
     31  NE2       11.5940   39.4670    0.2810 N.ar   40  HIS40      -0.2212
     32  N          7.3770   41.9700    8.4760 N.3    45  SER45      -0.1217
     33  CA         6.0500   41.4000    8.6710 C.3    45  SER45       0.1889
     34  C          5.9530   39.8830    8.6440 C.2    45  SER45       0.2288
     35  O          6.7250   39.1940    8.0070 O.2    45  SER45      -0.2866
     36  CB         5.0670   41.9840    7.6570 C.3    45  SER45       0.2089
     37  OG         3.8190   41.3370    7.7130 O.3    45  SER45      -0.2183
     38  N          2.3860   38.1200    9.2050 N.3    47  THR47      -0.1218
     39  CA         1.0470   37.6650    8.8340 C.3    47  THR47       0.1862
     40  C          0.1830   38.7320    8.1700 C.2    47  THR47       0.2287
     41  O         -0.8960   38.4260    7.6650 O.2    47  THR47      -0.2866
     42  CB         0.2760   37.1280   10.0620 C.3    47  THR47       0.1770
     43  OG1        0.2090   38.1390   11.0770 O.3    47  THR47      -0.2211
     44  CG2        0.9480   35.8820   10.6210 C.3    47  THR47       0.0375
     45  N          1.8340   44.6730    3.9410 N.3    50  ILE50      -0.1245
     46  CA         2.8570   45.6680    4.2000 C.3    50  ILE50       0.1561
     47  C          2.5210   46.9470    3.4530 C.2    50  ILE50       0.2260
     48  O          2.2530   46.9210    2.2520 O.2    50  ILE50      -0.2867
     49  CB         4.2550   45.1730    3.7740 C.3    50  ILE50       0.0252
     50  CG1        4.6730   43.9650    4.6130 C.3    50  ILE50       0.0019
     51  CG2        5.2830   46.2840    3.9040 C.3    50  ILE50       0.0019
     52  CD1        5.7000   43.0710    3.9400 C.3    50  ILE50       0.0001
     53  N          4.0940   49.5450    1.8320 N.3    52  TYR52      -0.1241
     54  CA         5.4280   49.7930    1.3080 C.3    52  TYR52       0.1605
     55  C          5.6730   51.2740    1.0910 C.2    52  TYR52       0.2264
     56  O          6.8120   51.7390    1.1600 O.2    52  TYR52      -0.2867
     57  CB         5.6490   49.0250    0.0050 C.3    52  TYR52       0.0534
     58  CG         5.9650   47.5630    0.2140 C.ar   52  TYR52      -0.0201
     59  CD1        7.2030   47.1720    0.7100 C.ar   52  TYR52      -0.0009
     60  CD2        5.0430   46.5760   -0.1000 C.ar   52  TYR52      -0.0009
     61  CE1        7.5070   45.8410    0.9040 C.ar   52  TYR52       0.0417
     62  CE2        5.3410   45.2380    0.0870 C.ar   52  TYR52       0.0417
     63  CZ         6.5750   44.8770    0.5900 C.ar   52  TYR52       0.1957
     64  OH         6.8820   43.5480    0.7790 O.3    52  TYR52      -0.2866
     65  N         14.3950   26.9290   -2.7980 N.3   138  PHE138     -0.1227
     66  CA        14.7840   28.0830   -1.9920 C.3   138  PHE138      0.1736
     67  C         14.3980   27.8820   -0.5360 C.2   138  PHE138      0.2595
     68  O         13.3360   27.3390   -0.2330 O.2   138  PHE138     -0.2718
     69  CB        14.1170   29.3680   -2.4950 C.3   138  PHE138      0.0547
     70  CG        14.5560   29.8050   -3.8620 C.ar  138  PHE138     -0.0202
     71  CD1       15.8780   30.1400   -4.1110 C.ar  138  PHE138     -0.0042
     72  CD2       13.6360   29.9140   -4.8930 C.ar  138  PHE138     -0.0042
     73  CE1       16.2760   30.5670   -5.3670 C.ar  138  PHE138     -0.0003
     74  CE2       14.0270   30.3370   -6.1530 C.ar  138  PHE138     -0.0003
     75  CZ        15.3500   30.6630   -6.3900 C.ar  138  PHE138     -0.0000
     76  N         15.2600   28.3360    0.3650 N.am  139  ILE139     -0.1966
     77  CA        14.9360   28.3590    1.7840 C.3   139  ILE139      0.1727
     78  C         15.1410   29.7750    2.3000 C.2   139  ILE139      0.2616
     79  O         15.3720   30.6930    1.5120 O.2   139  ILE139     -0.2715
     80  CB        15.7910   27.3640    2.5890 C.3   139  ILE139      0.0290
     81  CG1       17.2780   27.5900    2.3210 C.3   139  ILE139      0.0022
     82  CG2       15.4130   25.9260    2.2360 C.3   139  ILE139      0.0023
     83  CD1       18.1720   26.6250    3.0630 C.3   139  ILE139      0.0001
     84  N         15.0310   29.9570    3.6120 N.am  140  ASN140     -0.1958
     85  CA        15.2300   31.2690    4.2190 C.3   140  ASN140      0.1819
     86  C         16.5640   31.8930    3.8260 C.2   140  ASN140      0.2621
     87  O         17.6030   31.2340    3.8630 O.2   140  ASN140     -0.2715
     88  CB        15.1390   31.1740    5.7420 C.3   140  ASN140      0.1195
     89  CG        13.7640   30.7550    6.2160 C.2   140  ASN140      0.2630
     90  OD1       12.7650   30.9840    5.5340 O.2   140  ASN140     -0.2716
     91  ND2       13.7050   30.1340    7.3890 N.am  140  ASN140     -0.0877
     92  N         16.5260   33.1620    3.4340 N.am  141  GLY141     -0.1954
     93  CA        17.7310   33.8780    3.0650 C.3   141  GLY141      0.1869
     94  C         17.9720   33.9470    1.5700 C.2   141  GLY141      0.2309
     95  O         18.8680   34.6570    1.1190 O.2   141  GLY141     -0.2863
     96  N         16.1330   35.1970   -0.8190 N.3   143  CYS143     -0.1235
     97  CA        15.5420   36.3190   -1.5500 C.3   143  CYS143      0.1677
     98  C         16.5930   37.2340   -2.1680 C.2   143  CYS143      0.2270
     99  O         17.6210   37.5320   -1.5570 O.2   143  CYS143     -0.2867
    100  CB        14.6130   37.1210   -0.6450 C.3   143  CYS143      0.0956
    101  SG        13.0200   36.3010   -0.3810 S.3   143  CYS143     -0.0801
    102  N         14.5090   36.5940   -6.8000 N.3   161  HIS161     -0.1226
    103  CA        13.5920   35.7940   -5.9960 C.3   161  HIS161      0.1752
    104  C         12.9070   36.6040   -4.9000 C.2   161  HIS161      0.2596
    105  O         13.5490   37.3740   -4.1790 O.2   161  HIS161     -0.2718
    106  CB        14.3060   34.5940   -5.3820 C.3   161  HIS161      0.0759
    107  CG        13.3920   33.6880   -4.6250 C.ar  161  HIS161      0.0818
    108  ND1       12.2150   33.2060   -5.1630 N.ar  161  HIS161     -0.2268
    109  CD2       13.4560   33.1920   -3.3680 C.ar  161  HIS161      0.1154
    110  CE1       11.6040   32.4480   -4.2750 C.ar  161  HIS161      0.1986
    111  NE2       12.3390   32.4220   -3.1730 N.ar  161  HIS161     -0.2212
    112  N         11.5980   36.4000   -4.7760 N.am  162  GLN162     -0.1965
    113  CA        10.7730   37.1690   -3.8520 C.3   162  GLN162      0.1733
    114  C          9.9800   36.2920   -2.8960 C.2   162  GLN162      0.2616
    115  O          9.8500   36.6040   -1.7130 O.2   162  GLN162     -0.2715
    116  CB         9.7910   38.0580   -4.6310 C.3   162  GLN162      0.0408
    117  CG        10.4360   39.0780   -5.5680 C.3   162  GLN162      0.0908
    118  CD        10.5870   40.4470   -4.9310 C.2   162  GLN162      0.2608
    119  OE1       10.2630   40.6370   -3.7600 O.2   162  GLN162     -0.2717
    120  NE2       11.0810   41.4090   -5.7030 N.am  162  GLN162     -0.0878
    121  N          9.4570   35.1840   -3.4090 N.am  163  LEU163     -0.1963
    122  CA         8.2980   34.5750   -2.7790 C.3   163  LEU163      0.1728
    123  C          8.1160   33.0730   -3.0210 C.2   163  LEU163      0.2616
    124  O          8.3830   32.5650   -4.1120 O.2   163  LEU163     -0.2715
    125  CB         7.0540   35.3320   -3.2620 C.3   163  LEU163      0.0311
    126  CG         5.6890   35.0740   -2.6430 C.3   163  LEU163      0.0022
    127  CD1        4.9890   36.3850   -2.3500 C.3   163  LEU163      0.0001
    128  CD2        4.8930   34.2690   -3.6270 C.3   163  LEU163      0.0001
    129  N          7.6390   32.3830   -1.9870 N.am  164  GLU164     -0.1963
    130  CA         7.1970   30.9930   -2.0930 C.3   164  GLU164      0.1733
    131  C          5.7080   30.8500   -1.7810 C.2   164  GLU164      0.2616
    132  O          5.2660   31.1780   -0.6780 O.2   164  GLU164     -0.2715
    133  CB         8.0090   30.0970   -1.1550 C.3   164  GLU164      0.0429
    134  CG         7.6380   28.6220   -1.2210 C.3   164  GLU164      0.1163
    135  CD         8.4890   27.7560   -0.3020 C.2   164  GLU164      0.3649
    136  OE1        8.0200   27.4120    0.8020 O.co2 164  GLU164     -0.2457
    137  OE2        9.6560   27.4840   -0.6550 O.co2 164  GLU164     -0.2457
    138  N          4.9430   30.3650   -2.7540 N.am  165  LEU165     -0.1963
    139  CA         3.5210   30.1080   -2.5440 C.3   165  LEU165      0.1728
    140  C          3.3180   28.8680   -1.6850 C.2   165  LEU165      0.2616
    141  O          4.2350   28.0670   -1.5160 O.2   165  LEU165     -0.2715
    142  CB         2.7990   29.9440   -3.8820 C.3   165  LEU165      0.0311
    143  CG         2.8700   31.1430   -4.8290 C.3   165  LEU165      0.0022
    144  CD1        2.2910   30.7940   -6.1830 C.3   165  LEU165      0.0001
    145  CD2        2.1140   32.3100   -4.2260 C.3   165  LEU165      0.0001
    146  N          2.1080   28.7080   -1.1570 N.am  166  GLY166     -0.1955
    147  CA         1.7950   27.5940   -0.2780 C.3   166  GLY166      0.1869
    148  C          1.9850   26.2290   -0.9150 C.2   166  GLY166      0.2309
    149  O          2.2130   25.2390   -0.2200 O.2   166  GLY166     -0.2863
    150  N          7.5980   28.8860   -6.6130 N.3   170  HIS170     -0.1241
    151  CA         8.2350   30.1570   -6.2950 C.3   170  HIS170      0.1621
    152  C          7.9340   31.2590   -7.2930 C.2   170  HIS170      0.2264
    153  O          7.6860   31.0100   -8.4720 O.2   170  HIS170     -0.2867
    154  CB         9.7490   29.9700   -6.1780 C.3   170  HIS170      0.0745
    155  CG        10.1480   28.9290   -5.1800 C.ar  170  HIS170      0.0817
    156  ND1       10.3390   27.6080   -5.5200 N.ar  170  HIS170     -0.2268
    157  CD2       10.3540   29.0110   -3.8450 C.ar  170  HIS170      0.1154
    158  CE1       10.6680   26.9230   -4.4360 C.ar  170  HIS170      0.1986
    159  NE2       10.6840   27.7500   -3.4080 N.ar  170  HIS170     -0.2212
    160  N          3.9840   40.9050   -3.4070 N.3   185  ASP185     -0.1225
    161  CA         5.0510   40.6680   -2.4530 C.3   185  ASP185      0.1805
    162  C          4.5930   40.8320   -1.0200 C.2   185  ASP185      0.2598
    163  O          5.1440   41.5570   -0.2700 O.2   185  ASP185     -0.2718
    164  CB         6.3460   41.4320   -2.7700 C.3   185  ASP185      0.1424
    165  CG         6.1850   42.9130   -2.7990 C.2   185  ASP185      0.3668
    166  OD1        5.1170   43.4220   -3.0460 O.co2 185  ASP185     -0.2456
    167  OD2        7.1490   43.6020   -2.5880 O.co2 185  ASP185     -0.2456
    168  N          3.5510   40.1080   -0.6730 N.am  186  GLN186     -0.1966
    169  CA         2.9590   40.1420    0.6580 C.3   186  GLN186      0.1718
    170  C          2.8340   38.7280    1.2190 C.2   186  GLN186      0.2458
    171  O          2.7690   37.7630    0.4590 O.2   186  GLN186     -0.2730
    172  CB         1.5730   40.7960    0.6070 C.3   186  GLN186      0.0407
    173  CG         1.5250   42.1730   -0.0240 C.3   186  GLN186      0.0908
    174  CD         1.9570   43.2640    0.9370 C.2   186  GLN186      0.2608
    175  OE1        2.2090   43.0050    2.1130 O.2   186  GLN186     -0.2717
    176  NE2        2.0260   44.4940    0.4450 N.am  186  GLN186     -0.0878
    177  N          2.7780   38.5990    2.5550 N.am  187  PRO187     -0.2716
    178  CA         2.5900   37.2700    3.1490 C.3   187  PRO187      0.1536
    179  C          1.1170   36.8950    3.2610 C.2   187  PRO187      0.2599
    180  O          0.7210   36.1980    4.1950 O.2   187  PRO187     -0.2715
    181  CB         3.2250   37.4070    4.5330 C.3   187  PRO187      0.0310
    182  CG         3.1540   38.8660    4.8520 C.3   187  PRO187      0.0237
    183  CD         3.0090   39.6410    3.5710 C.3   187  PRO187      0.0939
    184  N          0.3240   37.3620    2.3040 N.am  188  THR188     -0.1937
    185  CA        -1.1030   37.0830    2.2580 C.3   188  THR188      0.2028
    186  C         -1.4040   35.7670    1.5520 C.2   188  THR188      0.2642
    187  O         -0.5840   35.2530    0.7900 O.2   188  THR188     -0.2714
    188  CB        -1.8730   38.2120    1.5540 C.3   188  THR188      0.1808
    189  OG1       -1.4920   38.2650    0.1730 O.3   188  THR188     -0.2208
    190  CG2       -1.5720   39.5440    2.2160 C.3   188  THR188      0.0379
    191  N         -2.5850   35.2240    1.8300 N.am  189  LEU189     -0.1963
    192  CA        -3.0700   34.0230    1.1650 C.3   189  LEU189      0.1728
    193  C         -3.1440   34.2320   -0.3440 C.2   189  LEU189      0.2616
    194  O         -3.9870   34.9820   -0.8430 O.2   189  LEU189     -0.2715
    195  CB        -4.4440   33.6360    1.7200 C.3   189  LEU189      0.0311
    196  CG        -5.2990   32.6460    0.9320 C.3   189  LEU189      0.0022
    197  CD1       -4.7230   31.2450    1.0400 C.3   189  LEU189      0.0001
    198  CD2       -6.7330   32.6840    1.4330 C.3   189  LEU189      0.0001
    199  N         -2.2510   33.5650   -1.0650 N.am  190  GLN190     -0.1977
    200  CA        -2.1870   33.6780   -2.5180 C.3   190  GLN190      0.1601
    201  C         -2.0930   32.2890   -3.1320 C.2   190  GLN190      0.2287
    202  O         -1.0310   31.6670   -3.1150 O.2   190  GLN190     -0.2864
    203  CB        -0.9850   34.5240   -2.9510 C.3   190  GLN190      0.0394
    204  CG        -1.2110   36.0230   -2.9270 C.3   190  GLN190      0.0908
    205  CD         0.0680   36.8040   -3.1830 C.2   190  GLN190      0.2608
    206  OE1        0.2750   37.3280   -4.2770 O.2   190  GLN190     -0.2717
    207  NE2        0.9290   36.8900   -2.1720 N.am  190  GLN190     -0.0878
@<TRIPOS>BOND
     1   153   152    2
     2   152   151    1
     3   102   103    1
     4   150   151    1
     5    75    74   ar
     6    75    73   ar
     7   151   154    1
     8   144   143    1
     9   154   155    1
    10    74    72   ar
    11   103   106    1
    12   103   104    1
    13   120   118   am
    14   117   118    1
    15   117   116    1
    16   156   155   ar
    17   156   158   ar
    18   106   107    1
    19    73    71   ar
    20   155   157   ar
    21   108   107   ar
    22   108   110   ar
    23   118   119    2
    24   104   112   am
    25   104   105    2
    26    72    70   ar
    27   143   145    1
    28   143   142    1
    29   112   113    1
    30   116   113    1
    31   107   109   ar
    32   158   159   ar
    33   206   205    2
    34   110   111   ar
    35   124   123    2
    36    71    70   ar
    37   142   139    1
    38    70    69    1
    39   113   114    1
    40   157   159   ar
    41   128   126    1
    42   121   114   am
    43   121   122    1
    44   160   161    1
    45   109   111   ar
    46   125   122    1
    47   125   126    1
    48   205   204    1
    49   205   207   am
    50   201   202    2
    51   201   200    1
    52   166   165   ar
    53   123   122    1
    54   123   129   am
    55   203   204    1
    56   203   200    1
    57   114   115    2
    58   165   164    1
    59   165   167   ar
    60    65    66    1
    61   164   161    1
    62   138   139    1
    63   138   131   am
    64   126   127    1
    65   139   140    1
    66   200   199    1
    67    69    66    1
    68   161   162    1
    69    98    99    2
    70    98    97    1
    71   130   129    1
    72   130   131    1
    73   130   133    1
    74    66    67    1
    75   131   132    2
    76   140   141    2
    77   140   146   am
    78    97    96    1
    79    97   100    1
    80   134   133    1
    81   134   135    1
    82   146   147    1
    83   199   193   am
    84   162   168   am
    85   162   163    2
    86   148   147    1
    87   148   149    2
    88   194   193    2
    89   168   169    1
    90   137   135   ar
    91   100   101    1
    92    67    68    2
    93    67    76   am
    94   193   192    1
    95   135   136   ar
    96    60    62   ar
    97    60    58   ar
    98   173   172    1
    99   173   174    1
   100    57    58    1
   101    57    54    1
   102    62    63   ar
   103    29    31   ar
   104    29    27   ar
   105   189   188    1
   106    20    19    1
   107    58    59   ar
   108    31    30   ar
   109    22    23    1
   110    76    77    1
   111   176   174   am
   112   171   170    2
   113    63    64    1
   114    63    61   ar
   115   172   169    1
   116   169   170    1
   117    59    61   ar
   118    16    17    2
   119    16    15    1
   120   187   186    2
   121   196   197    1
   122   196   198    1
   123   196   195    1
   124   174   175    2
   125    21    19    1
   126    55    56    2
   127    55    54    1
   128    95    94    2
   129    27    26    1
   130    27    28   ar
   131   192   195    1
   132   192   191    1
   133   170   177   am
   134    19    18    1
   135    54    53    1
   136    18    15    1
   137    30    28   ar
   138    79    78    2
   139    26    23    1
   140   186   191   am
   141   186   185    1
   142   188   190    1
   143   188   185    1
   144    94    93    1
   145    23    24    1
   146    77    78    1
   147    77    80    1
   148    15    14    1
   149    82    80    1
   150    48    47    2
   151   185   184    1
   152    78    84   am
   153   184   179   am
   154    81    80    1
   155    81    83    1
   156   177   178    1
   157   177   183    1
   158    24    25    2
   159    14    11   am
   160    93    92    1
   161   178   179    1
   162   178   181    1
   163   179   180    2
   164    92    86   am
   165    47    46    1
   166   183   182    1
   167    84    85    1
   168    49    51    1
   169    49    46    1
   170    49    50    1
   171    86    87    2
   172    86    85    1
   173    52    50    1
   174    45    46    1
   175    85    88    1
   176    11    12    2
   177    11    10    1
   178   181   182    1
   179     8     7    1
   180     7     6    1
   181    10    13    1
   182    10     9    1
   183    90    89    2
   184    88    89    1
   185    89    91   am
   186     9     3   am
   187     4     3    2
   188     3     2    1
   189     6     5    1
   190     5     2    1
   191    36    37    1
   192    36    33    1
   193    41    40    2
   194     2     1    1
   195    35    34    2
   196    40    39    1
   197    32    33    1
   198    34    33    1
   199    39    38    1
   200    39    42    1
   201    42    44    1
   202    42    43    1
