@<TRIPOS>MOLECULE
tmp/5gx1A01.pdb
 128 115 0 0 0
SMALL
GASTEIGER

@<TRIPOS>ATOM
      1  N         27.1430   21.0040    8.3060 N.3    15  VAL15      -0.1245
      2  CA        27.4650   20.5720    9.6640 C.3    15  VAL15       0.1561
      3  C         28.9320   20.1620    9.6780 C.2    15  VAL15       0.2260
      4  O         29.2560   18.9800    9.5290 O.2    15  VAL15      -0.2867
      5  CB        26.5680   19.4170   10.1640 C.3    15  VAL15       0.0252
      6  CG1       26.8550   19.1250   11.6420 C.3    15  VAL15       0.0019
      7  CG2       25.0710   19.7240    9.9710 C.3    15  VAL15       0.0019
      8  N         32.2830   19.0730   11.3730 N.3    17  GLU17      -0.1245
      9  CA        32.3090   18.1080   12.4760 C.3    17  GLU17       0.1567
     10  C         33.6210   17.3260   12.4850 C.2    17  GLU17       0.2260
     11  O         34.4250   17.3960   11.5540 O.2    17  GLU17      -0.2867
     12  CB        31.1360   17.1180   12.3850 C.3    17  GLU17       0.0388
     13  CG        29.9480   17.4440   13.2970 C.3    17  GLU17       0.1160
     14  CD        30.2090   17.1250   14.7520 C.2    17  GLU17       0.3649
     15  OE1       29.2330   17.1010   15.5320 O.co2  17  GLU17      -0.2457
     16  OE2       31.3780   16.8910   15.1180 O.co2  17  GLU17      -0.2457
     17  N         28.8460   16.2220    8.3200 N.3    33  THR33      -0.1203
     18  CA        28.0350   15.0340    8.5820 C.3    33  THR33       0.1994
     19  C         26.7800   14.9680    7.7280 C.2    33  THR33       0.2617
     20  O         26.1030   13.9290    7.7450 O.2    33  THR33      -0.2717
     21  CB        27.6390   14.9440   10.0640 C.3    33  THR33       0.1784
     22  OG1       27.0220   16.1690   10.4820 O.3    33  THR33      -0.2211
     23  CG2       28.8480   14.6720   10.9330 C.3    33  THR33       0.0376
     24  N         26.4560   16.0250    6.9780 N.am   34  VAL34      -0.1979
     25  CA        25.3070   16.0290    6.0840 C.3    34  VAL34       0.1595
     26  C         25.7210   15.9500    4.6200 C.2    34  VAL34       0.2287
     27  O         25.0460   15.2940    3.8210 O.2    34  VAL34      -0.2864
     28  CB        24.4250   17.2730    6.3390 C.3    34  VAL34       0.0276
     29  CG1       23.3450   17.4080    5.2560 C.3    34  VAL34       0.0022
     30  CG2       23.8080   17.1820    7.7200 C.3    34  VAL34       0.0022
     31  N         27.9290    8.2540   14.2500 N.3   109  ASN109     -0.1240
     32  CA        28.1700    9.6730   14.5000 C.3   109  ASN109      0.1653
     33  C         29.5720    9.8610   15.0730 C.2   109  ASN109      0.2266
     34  O         30.5380    9.4050   14.4620 O.2   109  ASN109     -0.2867
     35  CB        27.1010   10.2900   15.4070 C.3   109  ASN109      0.1155
     36  CG        27.0840   11.8120   15.3160 C.2   109  ASN109      0.2627
     37  OD1       27.5120   12.3790   14.3080 O.2   109  ASN109     -0.2716
     38  ND2       26.5830   12.4750   16.3580 N.am  109  ASN109     -0.0877
     39  N         23.2620    6.5560   15.9410 N.3   124  MET124     -0.1245
     40  CA        22.0630    7.3520   16.1580 C.3   124  MET124      0.1570
     41  C         21.1020    7.0840   15.0100 C.2   124  MET124      0.2261
     42  O         21.5070    6.6870   13.9150 O.2   124  MET124     -0.2867
     43  CB        22.3800    8.8490   16.2090 C.3   124  MET124      0.0387
     44  CG        22.9490    9.3460   14.8760 C.3   124  MET124      0.0595
     45  SD        23.5040   11.0810   14.8260 S.3   124  MET124     -0.1393
     46  CE        21.9310   11.9330   14.6160 C.3   124  MET124      0.0692
     47  N         17.1390   11.3350   14.1220 N.3   128  ALA128     -0.1245
     48  CA        17.1290   11.7230   15.5240 C.3   128  ALA128      0.1562
     49  C         16.7050   13.1830   15.6600 C.2   128  ALA128      0.2260
     50  O         16.8550   13.9830   14.7340 O.2   128  ALA128     -0.2867
     51  CB        18.5100   11.5160   16.1500 C.3   128  ALA128      0.0290
     52  N         15.9670   16.5790   18.7090 N.3   130  LEU130     -0.1245
     53  CA        16.0870   17.1480   20.0470 C.3   130  LEU130      0.1561
     54  C         15.0090   18.2050   20.2650 C.2   130  LEU130      0.2260
     55  O         14.6990   18.9610   19.3500 O.2   130  LEU130     -0.2867
     56  CB        17.4670   17.7740   20.2390 C.3   130  LEU130      0.0270
     57  CG        18.6780   16.8500   20.1890 C.3   130  LEU130      0.0019
     58  CD1       19.9540   17.6720   20.0510 C.3   130  LEU130      0.0001
     59  CD2       18.7170   16.0190   21.4460 C.3   130  LEU130      0.0001
     60  N         21.8200   10.6900   20.4790 N.3   157  ILE157     -0.1245
     61  CA        22.7610   11.2640   19.5160 C.3   157  ILE157      0.1561
     62  C         24.1700   11.0350   20.0620 C.2   157  ILE157      0.2260
     63  O         24.6420   11.7790   20.9290 O.2   157  ILE157     -0.2867
     64  CB        22.4930   12.7490   19.2380 C.3   157  ILE157      0.0252
     65  CG1       21.0800   12.9380   18.6660 C.3   157  ILE157      0.0019
     66  CG2       23.5090   13.2850   18.2230 C.3   157  ILE157      0.0019
     67  CD1       20.7340   14.3830   18.3090 C.3   157  ILE157      0.0001
     68  N         27.8250   11.2440   20.7330 N.3   159  ASN159     -0.1240
     69  CA        28.6840   12.3910   20.4520 C.3   159  ASN159      0.1653
     70  C         30.0340   12.3400   21.1760 C.2   159  ASN159      0.2266
     71  O         30.6800   11.2910   21.1680 O.2   159  ASN159     -0.2867
     72  CB        27.8990   13.6790   20.7200 C.3   159  ASN159      0.1155
     73  CG        27.5490   14.3800   19.4330 C.2   159  ASN159      0.2627
     74  OD1       28.3660   14.4100   18.5210 O.2   159  ASN159     -0.2716
     75  ND2       26.3350   14.9170   19.3340 N.am  159  ASN159     -0.0877
     76  N         23.9530   13.7930   23.2400 N.3   175  SER175     -0.1217
     77  CA        23.4250   15.1580   23.2550 C.3   175  SER175      0.1889
     78  C         22.0460   15.2230   23.8960 C.2   175  SER175      0.2288
     79  O         21.7130   16.2190   24.5610 O.2   175  SER175     -0.2866
     80  CB        23.3650   15.7240   21.8370 C.3   175  SER175      0.2089
     81  OG        24.6660   15.8590   21.2960 O.3   175  SER175     -0.2183
     82  N         23.0010   22.0490   23.6620 N.3   209  TYR209     -0.1241
     83  CA        23.2900   20.6320   23.8330 C.3   209  TYR209      0.1605
     84  C         24.7850   20.3790   23.7290 C.2   209  TYR209      0.2264
     85  O         25.4430   20.9210   22.8290 O.2   209  TYR209     -0.2867
     86  CB        22.5710   19.7970   22.7630 C.3   209  TYR209      0.0534
     87  CG        21.0780   20.0000   22.7470 C.ar  209  TYR209     -0.0201
     88  CD1       20.5080   21.0160   21.9950 C.ar  209  TYR209     -0.0009
     89  CD2       20.2400   19.1860   23.5000 C.ar  209  TYR209     -0.0009
     90  CE1       19.1390   21.2080   21.9840 C.ar  209  TYR209      0.0417
     91  CE2       18.8650   19.3730   23.4940 C.ar  209  TYR209      0.0417
     92  CZ        18.3270   20.3880   22.7350 C.ar  209  TYR209      0.1957
     93  OH        16.9640   20.5830   22.7190 O.3   209  TYR209     -0.2866
     94  N         27.9690   18.5300   22.4200 N.3   211  ASP211     -0.1239
     95  CA        28.1560   17.8920   21.1200 C.3   211  ASP211      0.1674
     96  C         29.5200   17.1970   21.1590 C.2   211  ASP211      0.2266
     97  O         29.6770   16.2250   21.9040 O.2   211  ASP211     -0.2867
     98  CB        28.0070   18.9420   20.0020 C.3   211  ASP211      0.1410
     99  CG        27.7080   18.3330   18.6270 C.2   211  ASP211      0.3668
    100  OD1       28.1380   17.1990   18.3570 O.co2 211  ASP211     -0.2456
    101  OD2       27.0340   19.0080   17.8070 O.co2 211  ASP211     -0.2456
    102  N         26.1460   23.0320   21.0750 N.3   226  PHE226     -0.1241
    103  CA        25.3040   23.2230   19.9010 C.3   226  PHE226      0.1605
    104  C         24.0470   23.9790   20.3150 C.2   226  PHE226      0.2264
    105  O         23.3440   23.5630   21.2420 O.2   226  PHE226     -0.2867
    106  CB        24.9650   21.8500   19.2940 C.3   226  PHE226      0.0534
    107  CG        24.2710   21.9170   17.9620 C.ar  226  PHE226     -0.0203
    108  CD1       24.9960   21.8040   16.7850 C.ar  226  PHE226     -0.0042
    109  CD2       22.8940   22.0890   17.8790 C.ar  226  PHE226     -0.0042
    110  CE1       24.3630   21.8600   15.5480 C.ar  226  PHE226     -0.0003
    111  CE2       22.2560   22.1570   16.6370 C.ar  226  PHE226     -0.0003
    112  CZ        22.9940   22.0390   15.4790 C.ar  226  PHE226     -0.0000
    113  N         23.5350   24.6110    9.0730 N.3   273  LEU273     -0.1245
    114  CA        22.2160   24.0400    8.8190 C.3   273  LEU273      0.1561
    115  C         21.1620   24.7670    9.6480 C.2   273  LEU273      0.2260
    116  O         21.2730   24.8510   10.8750 O.2   273  LEU273     -0.2867
    117  CB        22.2430   22.5470    9.1570 C.3   273  LEU273      0.0270
    118  CG        20.9300   21.7830    8.9470 C.3   273  LEU273      0.0019
    119  CD1       20.5170   21.8300    7.4790 C.3   273  LEU273      0.0001
    120  CD2       21.0590   20.3430    9.4460 C.3   273  LEU273      0.0001
    121  N         17.7060   25.0800   11.3280 N.3   275  LEU275     -0.1245
    122  CA        16.7340   24.1420   11.8600 C.3   275  LEU275      0.1561
    123  C         15.4560   24.8790   12.2370 C.2   275  LEU275      0.2260
    124  O         15.4800   26.0570   12.6020 O.2   275  LEU275     -0.2867
    125  CB        17.3080   23.4110   13.0690 C.3   275  LEU275      0.0270
    126  CG        18.5850   22.6300   12.7670 C.3   275  LEU275      0.0019
    127  CD1       19.2170   22.1280   14.0500 C.3   275  LEU275      0.0001
    128  CD2       18.2890   21.4740   11.8120 C.3   275  LEU275      0.0001
@<TRIPOS>BOND
     1    27    26    2
     2    26    25    1
     3    29    28    1
     4    25    28    1
     5    25    24    1
     6    28    30    1
     7    24    19   am
     8   119   118    1
     9    19    20    2
    10    19    18    1
    11     1     2    1
    12    17    18    1
    13    18    21    1
    14   114   113    1
    15   114   117    1
    16   114   115    1
    17   118   117    1
    18   118   120    1
    19     4     3    2
    20   115   116    2
    21     2     3    1
    22     2     5    1
    23     7     5    1
    24    21    22    1
    25    21    23    1
    26     5     6    1
    27   121   122    1
    28     8     9    1
    29    11    10    2
    30   128   126    1
    31   122   123    1
    32   122   125    1
    33   123   124    2
    34    12     9    1
    35    12    13    1
    36     9    10    1
    37   126   125    1
    38   126   127    1
    39    13    14    1
    40    42    41    2
    41    47    48    1
    42    31    32    1
    43    37    36    2
    44    34    33    2
    45    32    33    1
    46    32    35    1
    47    46    45    1
    48    50    49    2
    49    14    16   ar
    50    14    15   ar
    51    45    44    1
    52    44    43    1
    53    41    40    1
    54    36    35    1
    55    36    38   am
    56   112   110   ar
    57   112   111   ar
    58    48    49    1
    59    48    51    1
    60   110   108   ar
    61    39    40    1
    62    40    43    1
    63   111   109   ar
    64   108   107   ar
    65   101    99   ar
    66   109   107   ar
    67   107   106    1
    68    66    64    1
    69    67    65    1
    70   100    99   ar
    71    74    73    2
    72    99    98    1
    73    65    64    1
    74    52    53    1
    75    64    61    1
    76   106   103    1
    77    75    73   am
    78    55    54    2
    79    73    72    1
    80    61    62    1
    81    61    60    1
    82   103   104    1
    83   103   102    1
    84    98    95    1
    85    53    56    1
    86    53    54    1
    87    58    57    1
    88    62    63    2
    89    57    56    1
    90    57    59    1
    91   104   105    2
    92    69    72    1
    93    69    68    1
    94    69    70    1
    95    95    96    1
    96    95    94    1
    97    96    97    2
    98    71    70    2
    99    81    80    1
   100    80    77    1
   101    90    88   ar
   102    90    92   ar
   103    88    87   ar
   104    93    92    1
   105    92    91   ar
   106    87    86    1
   107    87    89   ar
   108    86    83    1
   109    85    84    2
   110    76    77    1
   111    77    78    1
   112    91    89   ar
   113    82    83    1
   114    84    83    1
   115    78    79    2
