@<TRIPOS>MOLECULE
tmp/5gx6A01.pdb
 197 185 0 0 0
SMALL
GASTEIGER

@<TRIPOS>ATOM
      1  N         15.0510   23.7090  -11.1630 N.3    10  HIS10      -0.1226
      2  CA        16.0180   22.7460  -10.6520 C.3    10  HIS10       0.1752
      3  C         15.4440   21.3480  -10.7890 C.2    10  HIS10       0.2595
      4  O         14.2970   21.1110  -10.4000 O.2    10  HIS10      -0.2718
      5  CB        16.3690   23.0250   -9.1870 C.3    10  HIS10       0.0759
      6  CG        17.4400   22.1290   -8.6540 C.ar   10  HIS10       0.0818
      7  ND1       18.6200   21.9020   -9.3300 N.ar   10  HIS10      -0.2268
      8  CD2       17.5050   21.3840   -7.5250 C.ar   10  HIS10       0.1154
      9  CE1       19.3680   21.0640   -8.6360 C.ar   10  HIS10       0.1986
     10  NE2       18.7150   20.7380   -7.5350 N.ar   10  HIS10      -0.2212
     11  N         16.2540   20.4270  -11.3130 N.am   11  LEU11      -0.1980
     12  CA        15.8440   19.0320  -11.4890 C.3    11  LEU11       0.1596
     13  C         14.5090   18.9540  -12.2260 C.2    11  LEU11       0.2287
     14  O         13.6190   18.1760  -11.8740 O.2    11  LEU11      -0.2864
     15  CB        15.7860   18.3100  -10.1390 C.3    11  LEU11       0.0297
     16  CG        17.1550   18.1570   -9.4720 C.3    11  LEU11       0.0022
     17  CD1       17.0270   17.6970   -8.0230 C.3    11  LEU11       0.0001
     18  CD2       18.0050   17.1590  -10.2600 C.3    11  LEU11       0.0001
     19  N         21.7910   26.8610  -13.6830 N.3    64  GLU64      -0.1245
     20  CA        22.7440   25.8150  -13.3350 C.3    64  GLU64       0.1567
     21  C         24.0740   25.9610  -14.0630 C.2    64  GLU64       0.2260
     22  O         25.0920   25.4690  -13.5620 O.2    64  GLU64      -0.2867
     23  CB        22.1490   24.4280  -13.6160 C.3    64  GLU64       0.0388
     24  CG        23.0260   23.2740  -13.1010 C.3    64  GLU64       0.1160
     25  CD        22.3350   21.9180  -13.0770 C.2    64  GLU64       0.3649
     26  OE1       21.1890   21.8250  -12.5930 O.co2  64  GLU64      -0.2457
     27  OE2       22.9470   20.9350  -13.5530 O.co2  64  GLU64      -0.2457
     28  N         25.7830   28.1340   -5.7110 N.3   118  ASN118     -0.1240
     29  CA        25.1910   27.1800   -4.7780 C.3   118  ASN118      0.1653
     30  C         26.2900   26.2000   -4.3840 C.2   118  ASN118      0.2266
     31  O         26.6550   25.3100   -5.1530 O.2   118  ASN118     -0.2867
     32  CB        23.9930   26.4670   -5.3920 C.3   118  ASN118      0.1155
     33  CG        23.0730   25.8880   -4.3410 C.2   118  ASN118      0.2627
     34  OD1       22.1220   26.5390   -3.9150 O.2   118  ASN118     -0.2716
     35  ND2       23.3750   24.6720   -3.8850 N.am  118  ASN118     -0.0877
     36  N         28.3210   23.2270   -2.6250 N.3   120  TYR120     -0.1241
     37  CA        28.3330   21.9920   -1.8620 C.3   120  TYR120      0.1605
     38  C         29.1480   22.1940   -0.5860 C.2   120  TYR120      0.2264
     39  O         29.9060   23.1580   -0.4490 O.2   120  TYR120     -0.2867
     40  CB        28.9230   20.8460   -2.6900 C.3   120  TYR120      0.0534
     41  CG        28.0150   20.3250   -3.7830 C.ar  120  TYR120     -0.0201
     42  CD1       26.8610   19.6170   -3.4680 C.ar  120  TYR120     -0.0009
     43  CD2       28.3250   20.5080   -5.1290 C.ar  120  TYR120     -0.0009
     44  CE1       26.0290   19.1220   -4.4580 C.ar  120  TYR120      0.0417
     45  CE2       27.4940   20.0200   -6.1280 C.ar  120  TYR120      0.0417
     46  CZ        26.3500   19.3240   -5.7840 C.ar  120  TYR120      0.1957
     47  OH        25.5220   18.8180   -6.7630 O.3   120  TYR120     -0.2866
     48  N         29.1600   10.2790   -6.9580 N.3   129  GLN129     -0.1245
     49  CA        28.5860    9.0240   -7.4280 C.3   129  GLN129      0.1566
     50  C         29.5100    7.8430   -7.1600 C.2   129  GLN129      0.2260
     51  O         30.7320    7.9820   -7.0730 O.2   129  GLN129     -0.2867
     52  CB        28.2580    9.0950   -8.9240 C.3   129  GLN129      0.0367
     53  CG        27.2620   10.1980   -9.2290 C.3   129  GLN129      0.0905
     54  CD        26.6880   10.1720  -10.6400 C.2   129  GLN129      0.2608
     55  OE1       25.8960   11.0420  -10.9960 O.2   129  GLN129     -0.2717
     56  NE2       27.0920    9.1930  -11.4500 N.am  129  GLN129     -0.0878
     57  N         20.2230    7.5120  -14.0130 N.3   178  ARG178     -0.1245
     58  CA        19.2000    8.4710  -13.6030 C.3   178  ARG178      0.1563
     59  C         19.5900    9.8510  -14.1140 C.2   178  ARG178      0.2260
     60  O         20.6840   10.3380  -13.8150 O.2   178  ARG178     -0.2867
     61  CB        19.0310    8.4700  -12.0770 C.3   178  ARG178      0.0307
     62  CG        17.8900    9.3480  -11.5550 C.3   178  ARG178      0.0489
     63  CD        17.7070    9.1010  -10.0640 C.3   178  ARG178      0.2205
     64  NE        18.9200    9.4080   -9.3120 N.pl3 178  ARG178     -0.0865
     65  CZ        19.1390   10.5610   -8.6870 C.cat 178  ARG178      0.5346
     66  NH1       18.2120   11.5150   -8.6940 N.pl3 178  ARG178      0.1354
     67  NH2       20.2780   10.7600   -8.0370 N.pl3 178  ARG178      0.1354
     68  N         23.6290   14.0000  -18.5800 N.3   184  LYS184     -0.1245
     69  CA        23.6230   13.1780  -17.3730 C.3   184  LYS184      0.1561
     70  C         23.5310   11.6900  -17.6930 C.2   184  LYS184      0.2260
     71  O         24.0950   10.8660  -16.9600 O.2   184  LYS184     -0.2867
     72  CB        22.4980   13.6200  -16.4380 C.3   184  LYS184      0.0271
     73  CG        22.8860   14.8220  -15.5930 C.3   184  LYS184      0.0035
     74  CD        21.8220   15.1630  -14.5430 C.3   184  LYS184      0.0206
     75  CE        22.3290   16.2640  -13.6060 C.3   184  LYS184      0.1093
     76  NZ        21.2960   16.6680  -12.5980 N.3   184  LYS184     -0.1314
     77  N         14.0200   11.1620  -14.4620 N.3   240  LEU240     -0.1245
     78  CA        14.5390   11.1340  -13.0970 C.3   240  LEU240      0.1561
     79  C         13.8620   10.0970  -12.2090 C.2   240  LEU240      0.2260
     80  O         14.3950    9.7930  -11.1320 O.2   240  LEU240     -0.2867
     81  CB        14.4180   12.5260  -12.4710 C.3   240  LEU240      0.0270
     82  CG        15.3930   13.5530  -13.0450 C.3   240  LEU240      0.0019
     83  CD1       15.0960   14.9480  -12.4860 C.3   240  LEU240      0.0001
     84  CD2       16.8190   13.1410  -12.7170 C.3   240  LEU240      0.0001
     85  N         15.4950    5.3510  -11.3480 N.3   243  ARG243     -0.1245
     86  CA        16.0040    4.5290  -10.2560 C.3   243  ARG243      0.1563
     87  C         14.8680    4.0740   -9.3510 C.2   243  ARG243      0.2260
     88  O         14.7970    2.8960   -8.9740 O.2   243  ARG243     -0.2867
     89  CB        17.0560    5.3150   -9.4690 C.3   243  ARG243      0.0307
     90  CG        17.6240    4.5960   -8.2580 C.3   243  ARG243      0.0489
     91  CD        18.5870    5.5090   -7.5000 C.3   243  ARG243      0.2205
     92  NE        17.9160    6.7210   -7.0220 N.pl3 243  ARG243     -0.0865
     93  CZ        18.5240    7.7200   -6.3830 C.cat 243  ARG243      0.5346
     94  NH1       19.8310    7.6650   -6.1490 N.pl3 243  ARG243      0.1354
     95  NH2       17.8230    8.7720   -5.9700 N.pl3 243  ARG243      0.1354
     96  N         24.5640    8.7150   -7.1680 N.3   258  TRP258     -0.1241
     97  CA        24.9870    9.3460   -5.9230 C.3   258  TRP258      0.1605
     98  C         24.9300    8.3650   -4.7600 C.2   258  TRP258      0.2264
     99  O         23.9830    7.5870   -4.6260 O.2   258  TRP258     -0.2867
    100  CB        24.1070   10.5590   -5.6370 C.3   258  TRP258      0.0550
    101  CG        24.4050   11.7120   -6.5420 C.ar  258  TRP258      0.0003
    102  CD1       24.0470   11.8620   -7.8560 C.ar  258  TRP258      0.0946
    103  CD2       25.1300   12.8890   -6.1860 C.ar  258  TRP258      0.0152
    104  NE1       24.5120   13.0770   -8.3390 N.ar  258  TRP258     -0.2442
    105  CE2       25.1890   13.7160   -7.3310 C.ar  258  TRP258      0.0810
    106  CE3       25.7520   13.3180   -5.0100 C.ar  258  TRP258      0.0012
    107  CZ2       25.8330   14.9500   -7.3220 C.ar  258  TRP258      0.0191
    108  CZ3       26.3930   14.5470   -5.0030 C.ar  258  TRP258      0.0001
    109  CH2       26.4240   15.3480   -6.1520 C.ar  258  TRP258      0.0015
    110  N         21.9040    8.8100   -1.6370 N.3   261  SER261     -0.1217
    111  CA        20.5310    8.5290   -2.0440 C.3   261  SER261      0.1889
    112  C         20.3870    7.1200   -2.6100 C.2   261  SER261      0.2288
    113  O         19.3380    6.4910   -2.4360 O.2   261  SER261     -0.2866
    114  CB        20.0360    9.5720   -3.0500 C.3   261  SER261      0.2089
    115  OG        20.8270    9.5760   -4.2270 O.3   261  SER261     -0.2183
    116  N         27.5590   24.2500   -7.6670 N.3   300  LEU300     -0.1245
    117  CA        26.7800   23.9610   -8.8650 C.3   300  LEU300      0.1561
    118  C         25.8410   25.1310   -9.1090 C.2   300  LEU300      0.2260
    119  O         24.9770   25.4110   -8.2750 O.2   300  LEU300     -0.2867
    120  CB        25.9850   22.6630   -8.7160 C.3   300  LEU300      0.0270
    121  CG        25.0570   22.3690   -9.8970 C.3   300  LEU300      0.0019
    122  CD1       25.8790   21.8580  -11.0770 C.3   300  LEU300      0.0001
    123  CD2       23.9730   21.3710   -9.5090 C.3   300  LEU300      0.0001
    124  N         17.2200   26.0570    4.4480 N.3   331  TRP331     -0.1241
    125  CA        17.4680   25.5390    3.1030 C.3   331  TRP331      0.1605
    126  C         17.8930   24.0760    3.1430 C.2   331  TRP331      0.2264
    127  O         17.5060   23.2860    2.2760 O.2   331  TRP331     -0.2867
    128  CB        18.5260   26.3900    2.4020 C.3   331  TRP331      0.0550
    129  CG        18.7450   26.0290    0.9540 C.ar  331  TRP331      0.0003
    130  CD1       18.1210   26.5740   -0.1290 C.ar  331  TRP331      0.0946
    131  CD2       19.6590   25.0500    0.4410 C.ar  331  TRP331      0.0152
    132  NE1       18.5870   25.9910   -1.2880 N.ar  331  TRP331     -0.2442
    133  CE2       19.5330   25.0560   -0.9650 C.ar  331  TRP331      0.0810
    134  CE3       20.5720   24.1700    1.0330 C.ar  331  TRP331      0.0012
    135  CZ2       20.2830   24.2170   -1.7850 C.ar  331  TRP331      0.0191
    136  CZ3       21.3200   23.3390    0.2140 C.ar  331  TRP331      0.0001
    137  CH2       21.1690   23.3690   -1.1810 C.ar  331  TRP331      0.0015
    138  N         15.6740   11.9790    0.8960 N.3   363  LEU363     -0.1245
    139  CA        15.9840   13.1670    0.1020 C.3   363  LEU363      0.1561
    140  C         14.8050   13.5820   -0.7680 C.2   363  LEU363      0.2260
    141  O         14.6170   14.7790   -1.0250 O.2   363  LEU363     -0.2867
    142  CB        17.2340   12.9300   -0.7490 C.3   363  LEU363      0.0270
    143  CG        17.7250   14.0900   -1.6250 C.3   363  LEU363      0.0019
    144  CD1       17.8010   15.4040   -0.8380 C.3   363  LEU363      0.0001
    145  CD2       19.0920   13.7510   -2.2040 C.3   363  LEU363      0.0001
    146  N         13.2460   17.3410   -0.7210 N.3   367  ARG367     -0.1245
    147  CA        13.0400   18.1830   -1.8950 C.3   367  ARG367      0.1563
    148  C         11.5770   18.5810   -2.0560 C.2   367  ARG367      0.2260
    149  O         11.2910   19.6760   -2.5500 O.2   367  ARG367     -0.2867
    150  CB        13.5480   17.4920   -3.1620 C.3   367  ARG367      0.0307
    151  CG        15.0710   17.3610   -3.2100 C.3   367  ARG367      0.0489
    152  CD        15.5910   17.0860   -4.6240 C.3   367  ARG367      0.2205
    153  NE        17.0400   16.9210   -4.6040 N.pl3 367  ARG367     -0.0865
    154  CZ        17.8990   17.9360   -4.6030 C.cat 367  ARG367      0.5346
    155  NH1       17.4500   19.1860   -4.6420 N.pl3 367  ARG367      0.1354
    156  NH2       19.2040   17.7010   -4.5640 N.pl3 367  ARG367      0.1354
    157  N         17.0200   21.8820   -0.1760 N.3   372  GLN372     -0.1245
    158  CA        18.0400   21.5230   -1.1620 C.3   372  GLN372      0.1566
    159  C         17.7410   22.0730   -2.5540 C.2   372  GLN372      0.2260
    160  O         18.3220   21.6070   -3.5450 O.2   372  GLN372     -0.2867
    161  CB        18.2290   20.0010   -1.2360 C.3   372  GLN372      0.0367
    162  CG        18.7040   19.3920    0.0770 C.3   372  GLN372      0.0905
    163  CD        20.0550   19.9180    0.4970 C.2   372  GLN372      0.2608
    164  OE1       20.9630   20.0590   -0.3280 O.2   372  GLN372     -0.2717
    165  NE2       20.1990   20.2220    1.7860 N.am  372  GLN372     -0.0878
    166  N         18.3440   24.0750   -5.5240 N.3   374  ARG374     -0.1245
    167  CA        19.5420   24.7600   -5.9970 C.3   374  ARG374      0.1563
    168  C         19.2500   26.2140   -6.3520 C.2   374  ARG374      0.2260
    169  O         18.4330   26.4980   -7.2310 O.2   374  ARG374     -0.2867
    170  CB        20.1000   24.0110   -7.2050 C.3   374  ARG374      0.0307
    171  CG        21.5790   24.2380   -7.4890 C.3   374  ARG374      0.0489
    172  CD        21.8270   25.5050   -8.2860 C.3   374  ARG374      0.2205
    173  NE        20.9940   25.5980   -9.4860 N.pl3 374  ARG374     -0.0865
    174  CZ        20.5940   26.7570   -9.9990 C.cat 374  ARG374      0.5346
    175  NH1       20.9650   27.8860   -9.4100 N.pl3 374  ARG374      0.1354
    176  NH2       19.8240   26.7980  -11.0810 N.pl3 374  ARG374      0.1354
    177  N         25.3060   24.4520    1.1210 N.3   379  GLN379     -0.1245
    178  CA        24.9160   23.1670    1.6850 C.3   379  GLN379      0.1566
    179  C         25.6740   22.8770    2.9820 C.2   379  GLN379      0.2260
    180  O         26.8230   23.2880    3.1670 O.2   379  GLN379     -0.2867
    181  CB        25.1630   22.0520    0.6660 C.3   379  GLN379      0.0367
    182  CG        24.6500   20.6860    1.0820 C.3   379  GLN379      0.0905
    183  CD        24.8620   19.6570   -0.0050 C.2   379  GLN379      0.2608
    184  OE1       25.9700   19.1530   -0.1900 O.2   379  GLN379     -0.2717
    185  NE2       23.8040   19.3480   -0.7420 N.am  379  GLN379     -0.0878
    186  N         23.2310   17.9190    7.0750 N.3   383  TYR383     -0.1241
    187  CA        21.9340   17.4990    6.5550 C.3   383  TYR383      0.1605
    188  C         22.0550   16.1250    5.9080 C.2   383  TYR383      0.2264
    189  O         21.2180   15.2470    6.1380 O.2   383  TYR383     -0.2867
    190  CB        21.3660   18.5320    5.5550 C.3   383  TYR383      0.0534
    191  CG        21.2620   18.0190    4.1230 C.ar  383  TYR383     -0.0201
    192  CD1       22.3400   18.0880    3.2390 C.ar  383  TYR383     -0.0009
    193  CD2       20.0910   17.4230    3.6740 C.ar  383  TYR383     -0.0009
    194  CE1       22.2360   17.5770    1.9480 C.ar  383  TYR383      0.0417
    195  CE2       19.9780   16.9150    2.3930 C.ar  383  TYR383      0.0417
    196  CZ        21.0500   16.9950    1.5350 C.ar  383  TYR383      0.1957
    197  OH        20.9350   16.4890    0.2600 O.3   383  TYR383     -0.2866
@<TRIPOS>BOND
     1    68    69    1
     2    70    69    1
     3    70    71    2
     4    69    72    1
     5    72    73    1
     6    73    74    1
     7    74    75    1
     8    77    78    1
     9    59    60    2
    10    59    58    1
    11    21    22    2
    12    21    20    1
    13    57    58    1
    14    19    20    1
    15    23    20    1
    16    23    24    1
    17    75    76    1
    18    58    61    1
    19    27    25   ar
    20    24    25    1
    21    78    81    1
    22    78    79    1
    23    25    26   ar
    24    82    84    1
    25    82    83    1
    26    82    81    1
    27    13    14    2
    28    13    12    1
    29    79    80    2
    30    61    62    1
    31    62    63    1
    32    12    11    1
    33    12    15    1
    34    56    54   am
    35    85    86    1
    36    11     3   am
    37     1     2    1
    38   176   174    1
    39   122   121    1
    40    55    54    2
    41     3     2    1
    42     3     4    2
    43     2     5    1
    44    54    53    1
    45    18    16    1
    46    86    89    1
    47    86    87    1
    48    15    16    1
    49    63    64    1
    50   174   173    2
    51   174   175    1
    52   121   123    1
    53   121   120    1
    54   173   172    1
    55    16    17    1
    56    89    90    1
    57    87    88    2
    58     7     6   ar
    59     7     9   ar
    60    64    65    2
    61    53    52    1
    62     5     6    1
    63   118   117    1
    64   118   119    2
    65    52    49    1
    66   117   120    1
    67   117   116    1
    68    66    65    1
    69    65    67    1
    70     6     8   ar
    71     9    10   ar
    72   104   102   ar
    73   104   105   ar
    74   172   171    1
    75    90    91    1
    76   102   101   ar
    77    10     8   ar
    78    91    92    1
    79   171   170    1
    80    49    50    1
    81    49    48    1
    82   105   107   ar
    83   105   103   ar
    84   107   109   ar
    85   169   168    2
    86   170   167    1
    87    96    97    1
    88    50    51    2
    89    92    93    2
    90    47    46    1
    91   101   103   ar
    92   101   100    1
    93    93    94    1
    94    93    95    1
    95   168   167    1
    96   103   106   ar
    97   109   108   ar
    98    45    46   ar
    99    45    43   ar
   100   167   166    1
   101    97   100    1
   102    97    98    1
   103    46    44   ar
   104    28    29    1
   105    32    29    1
   106    32    33    1
   107    31    30    2
   108    43    41   ar
   109   106   108   ar
   110    29    30    1
   111    98    99    2
   112   155   154    1
   113   152   153    1
   114   152   151    1
   115   153   154    2
   116   154   156    1
   117    44    42   ar
   118    33    34    2
   119    33    35   am
   120   115   114    1
   121    41    42   ar
   122    41    40    1
   123   160   159    2
   124   151   150    1
   125   150   147    1
   126   114   111    1
   127    40    37    1
   128    36    37    1
   129   112   113    2
   130   112   111    1
   131   159   158    1
   132   149   148    2
   133   145   143    1
   134   148   147    1
   135   111   110    1
   136   147   146    1
   137    37    38    1
   138   135   137   ar
   139   135   133   ar
   140   143   144    1
   141   143   142    1
   142   132   133   ar
   143   132   130   ar
   144   161   158    1
   145   161   162    1
   146   137   136   ar
   147   158   157    1
   148   141   140    2
   149   133   131   ar
   150   140   139    1
   151   142   139    1
   152   185   183   am
   153    38    39    2
   154   164   163    2
   155   184   183    2
   156   130   129   ar
   157   183   182    1
   158   162   163    1
   159   139   138    1
   160   136   134   ar
   161   197   196    1
   162   131   129   ar
   163   131   134   ar
   164   163   165   am
   165   181   182    1
   166   181   178    1
   167   129   128    1
   168   177   178    1
   169   196   194   ar
   170   196   195   ar
   171   178   179    1
   172   194   192   ar
   173   127   126    2
   174   195   193   ar
   175   128   125    1
   176   179   180    2
   177   125   126    1
   178   125   124    1
   179   192   191   ar
   180   193   191   ar
   181   191   190    1
   182   190   187    1
   183   188   189    2
   184   188   187    1
   185   187   186    1
