@<TRIPOS>MOLECULE
tmp/5gx7A01.pdb
 214 203 0 0 0
SMALL
GASTEIGER

@<TRIPOS>ATOM
      1  N         24.6610  -23.7950  -11.3560 N.3    10  HIS10      -0.1226
      2  CA        23.6560  -22.8880  -10.8650 C.3    10  HIS10       0.1752
      3  C         24.1980  -21.4920  -11.0300 C.2    10  HIS10       0.2595
      4  O         25.3600  -21.2470  -10.6770 O.2    10  HIS10      -0.2718
      5  CB        23.3300  -23.1660   -9.3730 C.3    10  HIS10       0.0759
      6  CG        22.2450  -22.2830   -8.8310 C.ar   10  HIS10       0.0818
      7  ND1       21.0390  -22.1000   -9.4920 N.ar   10  HIS10      -0.2268
      8  CD2       22.1760  -21.5320   -7.6870 C.ar   10  HIS10       0.1154
      9  CE1       20.3030  -21.2360   -8.8150 C.ar   10  HIS10       0.1986
     10  NE2       20.9660  -20.8710   -7.7170 N.ar   10  HIS10      -0.2212
     11  N         23.3560  -20.6000  -11.5530 N.am   11  LEU11      -0.1980
     12  CA        23.7180  -19.1840  -11.7090 C.3    11  LEU11       0.1596
     13  C         25.0140  -19.0920  -12.4770 C.2    11  LEU11       0.2287
     14  O         25.9270  -18.3330  -12.1200 O.2    11  LEU11      -0.2864
     15  CB        23.8160  -18.4620  -10.3600 C.3    11  LEU11       0.0297
     16  CG        22.4270  -18.3870   -9.6800 C.3    11  LEU11       0.0022
     17  CD1       22.5300  -17.8510   -8.2950 C.3    11  LEU11       0.0001
     18  CD2       21.5080  -17.4980  -10.4940 C.3    11  LEU11       0.0001
     19  N         17.9640  -27.0440  -13.9170 N.3    64  GLU64      -0.1245
     20  CA        16.9960  -25.9960  -13.5590 C.3    64  GLU64       0.1567
     21  C         15.6660  -26.1770  -14.2840 C.2    64  GLU64       0.2260
     22  O         14.6220  -25.7640  -13.7570 O.2    64  GLU64      -0.2867
     23  CB        17.6180  -24.6040  -13.8170 C.3    64  GLU64       0.0388
     24  CG        16.7070  -23.4390  -13.4670 C.3    64  GLU64       0.1160
     25  CD        17.4500  -22.1060  -13.2610 C.2    64  GLU64       0.3649
     26  OE1       18.5970  -22.0770  -12.7390 O.co2  64  GLU64      -0.2457
     27  OE2       16.8500  -21.0740  -13.5770 O.co2  64  GLU64      -0.2457
     28  N         14.0520  -28.5350   -5.9490 N.3   118  ASN118     -0.1240
     29  CA        14.6420  -27.5960   -5.0020 C.3   118  ASN118      0.1653
     30  C         13.5510  -26.6200   -4.5970 C.2   118  ASN118      0.2266
     31  O         13.1850  -25.7460   -5.3730 O.2   118  ASN118     -0.2867
     32  CB        15.8150  -26.8380   -5.6190 C.3   118  ASN118      0.1155
     33  CG        16.6980  -26.2230   -4.5650 C.2   118  ASN118      0.2627
     34  OD1       17.6400  -26.8640   -4.0940 O.2   118  ASN118     -0.2716
     35  ND2       16.3770  -25.0010   -4.1560 N.am  118  ASN118     -0.0877
     36  N         11.3880  -23.6860   -2.7940 N.3   120  TYR120     -0.1241
     37  CA        11.3580  -22.4420   -2.0580 C.3   120  TYR120      0.1605
     38  C         10.5290  -22.6220   -0.7720 C.2   120  TYR120      0.2264
     39  O          9.7300  -23.5710   -0.6190 O.2   120  TYR120     -0.2867
     40  CB        10.7620  -21.3430   -2.9500 C.3   120  TYR120      0.0534
     41  CG        11.6830  -20.7830   -4.0370 C.ar  120  TYR120     -0.0201
     42  CD1       12.8060  -20.0230   -3.6940 C.ar  120  TYR120     -0.0009
     43  CD2       11.3950  -20.9520   -5.3990 C.ar  120  TYR120     -0.0009
     44  CE1       13.6580  -19.4690   -4.6890 C.ar  120  TYR120      0.0417
     45  CE2       12.2330  -20.3720   -6.4170 C.ar  120  TYR120      0.0417
     46  CZ        13.3530  -19.6330   -6.0460 C.ar  120  TYR120      0.1957
     47  OH        14.1820  -19.0760   -6.9990 O.3   120  TYR120     -0.2866
     48  N         10.4110  -10.5640   -7.2250 N.3   129  GLN129     -0.1245
     49  CA        11.0260   -9.3290   -7.7010 C.3   129  GLN129      0.1566
     50  C         10.0810   -8.1480   -7.4750 C.2   129  GLN129      0.2260
     51  O          8.8610   -8.2970   -7.4940 O.2   129  GLN129     -0.2867
     52  CB        11.4120   -9.4300   -9.1800 C.3   129  GLN129      0.0367
     53  CG        12.3440  -10.6140   -9.5310 C.3   129  GLN129      0.0905
     54  CD        13.0040  -10.4720  -10.9320 C.2   129  GLN129      0.2608
     55  OE1       13.9590  -11.1590  -11.2300 O.2   129  GLN129     -0.2717
     56  NE2       12.4770   -9.5800  -11.7780 N.am  129  GLN129     -0.0878
     57  N         19.3680   -7.7200  -14.0040 N.3   178  ARG178     -0.1231
     58  CA        20.3680   -8.6610  -13.5560 C.3   178  ARG178      0.1694
     59  C         19.8730  -10.0590  -13.9180 C.2   178  ARG178      0.2592
     60  O         18.8050  -10.4790  -13.4600 O.2   178  ARG178     -0.2718
     61  CB        20.5870   -8.5290  -12.0380 C.3   178  ARG178      0.0321
     62  CG        21.6470   -9.5640  -11.4580 C.3   178  ARG178      0.0489
     63  CD        21.8200   -9.3620   -9.9150 C.3   178  ARG178      0.2205
     64  NE        20.5750   -9.6950   -9.2090 N.pl3 178  ARG178     -0.0865
     65  CZ        20.3490  -10.8250   -8.5200 C.cat 178  ARG178      0.5346
     66  NH1       21.2900  -11.7750   -8.3310 N.pl3 178  ARG178      0.1354
     67  NH2       19.1670  -10.9950   -7.9640 N.pl3 178  ARG178      0.1354
     68  N         20.6470  -10.7770  -14.7280 N.am  179  ALA179     -0.1966
     69  CA        20.1710  -12.0210  -15.3320 C.3   179  ALA179      0.1728
     70  C         21.3690  -12.7370  -15.9350 C.2   179  ALA179      0.2616
     71  O         22.3970  -12.1320  -16.2810 O.2   179  ALA179     -0.2715
     72  CB        19.0990  -11.7730  -16.4400 C.3   179  ALA179      0.0334
     73  N         21.2300  -14.0420  -16.0850 N.am  180  ASN180     -0.1972
     74  CA        22.3340  -14.7340  -16.7290 C.3   180  ASN180      0.1688
     75  C         21.9380  -15.4090  -18.0300 C.2   180  ASN180      0.2292
     76  O         22.7770  -16.1200  -18.6010 O.2   180  ASN180     -0.2864
     77  CB        22.9540  -15.7710  -15.7760 C.3   180  ASN180      0.1181
     78  CG        22.0270  -16.9430  -15.5100 C.2   180  ASN180      0.2629
     79  OD1       20.8220  -16.7660  -15.2680 O.2   180  ASN180     -0.2716
     80  ND2       22.5680  -18.1530  -15.6110 N.am  180  ASN180     -0.0877
     81  N         15.7820  -14.5380  -18.8030 N.3   184  LYS184     -0.1245
     82  CA        15.7440  -13.7780  -17.5480 C.3   184  LYS184      0.1561
     83  C         15.9770  -12.2920  -17.7780 C.2   184  LYS184      0.2260
     84  O         15.4900  -11.4660  -16.9790 O.2   184  LYS184     -0.2867
     85  CB        16.7520  -14.3440  -16.5380 C.3   184  LYS184      0.0271
     86  CG        16.2830  -15.7530  -16.0780 C.3   184  LYS184      0.0035
     87  CD        17.3390  -16.4300  -15.2180 C.3   184  LYS184      0.0206
     88  CE        16.8690  -17.7870  -14.6580 C.3   184  LYS184      0.1093
     89  NZ        17.3540  -19.0330  -15.3200 N.3   184  LYS184     -0.1314
     90  N         12.4940  -11.3350  -18.7370 N.3   187  THR187     -0.1203
     91  CA        11.6720  -11.4190  -17.5210 C.3   187  THR187      0.1994
     92  C         11.6530  -10.0860  -16.7740 C.2   187  THR187      0.2618
     93  O         10.5870   -9.6180  -16.3330 O.2   187  THR187     -0.2717
     94  CB        12.2000  -12.5480  -16.6130 C.3   187  THR187      0.1784
     95  OG1       11.9550  -13.8160  -17.2640 O.3   187  THR187     -0.2211
     96  CG2       11.4650  -12.5720  -15.2470 C.3   187  THR187      0.0376
     97  N         12.8090   -9.4530  -16.6430 N.am  188  SER188     -0.1951
     98  CA        12.9110   -8.2000  -15.8880 C.3   188  SER188      0.1924
     99  C         12.6950   -6.9580  -16.7310 C.2   188  SER188      0.2314
    100  O         12.7610   -5.8470  -16.1750 O.2   188  SER188     -0.2863
    101  CB        14.2640   -8.1170  -15.1810 C.3   188  SER188      0.2116
    102  OG        14.3340   -9.1780  -14.2470 O.3   188  SER188     -0.2180
    103  N         25.6080  -11.4290  -14.4180 N.3   240  LEU240     -0.1245
    104  CA        25.0470  -11.3650  -13.0600 C.3   240  LEU240      0.1561
    105  C         25.6800  -10.3160  -12.1720 C.2   240  LEU240      0.2260
    106  O         25.1150  -10.0300  -11.1070 O.2   240  LEU240     -0.2867
    107  CB        25.1280  -12.7280  -12.3770 C.3   240  LEU240      0.0270
    108  CG        24.1990  -13.8020  -12.9590 C.3   240  LEU240      0.0019
    109  CD1       24.4920  -15.2020  -12.3530 C.3   240  LEU240      0.0001
    110  CD2       22.7800  -13.4150  -12.6230 C.3   240  LEU240      0.0001
    111  N         13.9550   -6.4110   -9.6700 N.3   257  ASP257     -0.1225
    112  CA        14.8270   -7.4820   -9.1780 C.3   257  ASP257      0.1805
    113  C         14.3450   -8.0080   -7.8170 C.2   257  ASP257      0.2597
    114  O         13.5250   -7.3770   -7.1440 O.2   257  ASP257     -0.2718
    115  CB        16.2740   -6.9670   -9.0530 C.3   257  ASP257      0.1424
    116  CG        17.3370   -8.0420   -9.2440 C.2   257  ASP257      0.3668
    117  OD1       17.0430   -9.2830   -9.2510 O.co2 257  ASP257     -0.2456
    118  OD2       18.5280   -7.6020   -9.2780 O.co2 257  ASP257     -0.2456
    119  N         14.9530   -9.1240   -7.3650 N.am  258  TRP258     -0.1976
    120  CA        14.5300   -9.7620   -6.1060 C.3   258  TRP258      0.1640
    121  C         14.5740   -8.7630   -4.9650 C.2   258  TRP258      0.2290
    122  O         15.5460   -7.9980   -4.8180 O.2   258  TRP258     -0.2864
    123  CB        15.4700  -10.9210   -5.7750 C.3   258  TRP258      0.0576
    124  CG        15.1700  -12.1170   -6.7040 C.ar  258  TRP258      0.0006
    125  CD1       15.5130  -12.2770   -8.0470 C.ar  258  TRP258      0.0946
    126  CD2       14.4470  -13.2580   -6.3410 C.ar  258  TRP258      0.0152
    127  NE1       15.0140  -13.4770   -8.5310 N.ar  258  TRP258     -0.2442
    128  CE2       14.3510  -14.0950   -7.4920 C.ar  258  TRP258      0.0810
    129  CE3       13.7870  -13.6320   -5.1700 C.ar  258  TRP258      0.0012
    130  CZ2       13.6810  -15.3080   -7.4690 C.ar  258  TRP258      0.0191
    131  CZ3       13.1510  -14.8520   -5.1370 C.ar  258  TRP258      0.0001
    132  CH2       13.0790  -15.6700   -6.2930 C.ar  258  TRP258      0.0015
    133  N         12.1230  -24.6510   -7.9210 N.3   300  LEU300     -0.1245
    134  CA        12.8970  -24.3560   -9.1520 C.3   300  LEU300      0.1561
    135  C         13.8000  -25.5570   -9.3820 C.2   300  LEU300      0.2260
    136  O         14.6420  -25.8640   -8.5140 O.2   300  LEU300     -0.2867
    137  CB        13.7580  -23.0880   -9.0000 C.3   300  LEU300      0.0270
    138  CG        14.7110  -22.6350  -10.1370 C.3   300  LEU300      0.0019
    139  CD1       13.9140  -22.1800  -11.3810 C.3   300  LEU300      0.0001
    140  CD2       15.6270  -21.5390   -9.6420 C.3   300  LEU300      0.0001
    141  N         22.5770  -26.2310    4.2940 N.3   331  TRP331     -0.1241
    142  CA        22.3100  -25.7390    2.9500 C.3   331  TRP331      0.1605
    143  C         21.8940  -24.2760    2.9590 C.2   331  TRP331      0.2264
    144  O         22.2420  -23.5290    2.0430 O.2   331  TRP331     -0.2867
    145  CB        21.2040  -26.5640    2.3040 C.3   331  TRP331      0.0550
    146  CG        20.9700  -26.1920    0.8860 C.ar  331  TRP331      0.0003
    147  CD1       21.6510  -26.7210   -0.1950 C.ar  331  TRP331      0.0946
    148  CD2       20.0220  -25.2350    0.3370 C.ar  331  TRP331      0.0152
    149  NE1       21.1990  -26.1570   -1.3760 N.ar  331  TRP331     -0.2442
    150  CE2       20.1890  -25.2620   -1.0930 C.ar  331  TRP331      0.0810
    151  CE3       19.0340  -24.3920    0.8930 C.ar  331  TRP331      0.0012
    152  CZ2       19.4250  -24.4460   -1.9800 C.ar  331  TRP331      0.0191
    153  CZ3       18.2660  -23.6020    0.0070 C.ar  331  TRP331      0.0001
    154  CH2       18.4940  -23.6270   -1.4070 C.ar  331  TRP331      0.0015
    155  N         23.4660  -12.4580    0.5460 N.3   363  LEU363     -0.1245
    156  CA        23.2460  -13.6570   -0.2570 C.3   363  LEU363      0.1561
    157  C         24.4770  -13.9970   -1.0780 C.2   363  LEU363      0.2260
    158  O         24.8580  -15.1740   -1.1890 O.2   363  LEU363     -0.2867
    159  CB        22.0000  -13.4840   -1.1630 C.3   363  LEU363      0.0270
    160  CG        21.6270  -14.7000   -2.0200 C.3   363  LEU363      0.0019
    161  CD1       21.5580  -16.0330   -1.2870 C.3   363  LEU363      0.0001
    162  CD2       20.2850  -14.4950   -2.7340 C.3   363  LEU363      0.0001
    163  N         26.4030  -17.5270   -0.9960 N.3   367  ARG367     -0.1245
    164  CA        26.6280  -18.3920   -2.1430 C.3   367  ARG367      0.1563
    165  C         28.1000  -18.7130   -2.2970 C.2   367  ARG367      0.2260
    166  O         28.4300  -19.7840   -2.8120 O.2   367  ARG367     -0.2867
    167  CB        26.0990  -17.7640   -3.4580 C.3   367  ARG367      0.0307
    168  CG        24.5760  -17.4830   -3.5070 C.3   367  ARG367      0.0489
    169  CD        24.0740  -17.1920   -4.9390 C.3   367  ARG367      0.2205
    170  NE        22.6400  -16.9970   -4.9440 N.pl3 367  ARG367     -0.0865
    171  CZ        21.7430  -17.9820   -4.8650 C.cat 367  ARG367      0.5346
    172  NH1       22.1210  -19.2870   -4.8520 N.pl3 367  ARG367      0.1354
    173  NH2       20.4370  -17.6540   -4.8610 N.pl3 367  ARG367      0.1354
    174  N         22.7100  -22.0730   -0.2740 N.3   372  GLN372     -0.1245
    175  CA        21.6950  -21.6800   -1.2820 C.3   372  GLN372      0.1566
    176  C         21.9970  -22.2180   -2.7150 C.2   372  GLN372      0.2260
    177  O         21.5100  -21.6630   -3.7180 O.2   372  GLN372     -0.2867
    178  CB        21.5270  -20.1480   -1.3360 C.3   372  GLN372      0.0367
    179  CG        20.9810  -19.6200    0.0070 C.3   372  GLN372      0.0905
    180  CD        19.6080  -20.2400    0.3210 C.2   372  GLN372      0.2608
    181  OE1       18.7450  -20.3050   -0.5470 O.2   372  GLN372     -0.2717
    182  NE2       19.3880  -20.6430    1.5700 N.am  372  GLN372     -0.0878
    183  N         21.2880  -24.2290   -5.6450 N.3   374  ARG374     -0.1245
    184  CA        20.1110  -24.9190   -6.1340 C.3   374  ARG374      0.1563
    185  C         20.4240  -26.3530   -6.5220 C.2   374  ARG374      0.2260
    186  O         21.2650  -26.6160   -7.3970 O.2   374  ARG374     -0.2867
    187  CB        19.5530  -24.1510   -7.3390 C.3   374  ARG374      0.0307
    188  CG        18.0620  -24.4900   -7.6750 C.3   374  ARG374      0.0489
    189  CD        17.8920  -25.6900   -8.5760 C.3   374  ARG374      0.2205
    190  NE        18.7590  -25.7510   -9.7470 N.pl3 374  ARG374     -0.0865
    191  CZ        19.1990  -26.9190  -10.2010 C.cat 374  ARG374      0.5346
    192  NH1       18.7910  -28.0240   -9.5620 N.pl3 374  ARG374      0.1354
    193  NH2       20.0230  -27.0070  -11.2840 N.pl3 374  ARG374      0.1354
    194  N         14.3520  -24.7490    0.8590 N.3   379  GLN379     -0.1245
    195  CA        14.7460  -23.4660    1.4040 C.3   379  GLN379      0.1566
    196  C         14.0110  -23.2290    2.7370 C.2   379  GLN379      0.2260
    197  O         12.9140  -23.7470    2.9570 O.2   379  GLN379     -0.2867
    198  CB        14.4220  -22.3400    0.4000 C.3   379  GLN379      0.0367
    199  CG        14.9010  -20.9720    0.9230 C.3   379  GLN379      0.0905
    200  CD        14.7330  -19.9090   -0.1820 C.2   379  GLN379      0.2608
    201  OE1       13.6200  -19.4140   -0.4180 O.2   379  GLN379     -0.2717
    202  NE2       15.8340  -19.6450   -0.9310 N.am  379  GLN379     -0.0878
    203  N         16.2860  -18.2400    6.8290 N.3   383  TYR383     -0.1241
    204  CA        17.6050  -17.8000    6.3890 C.3   383  TYR383      0.1605
    205  C         17.4750  -16.4310    5.7400 C.2   383  TYR383      0.2264
    206  O         18.2830  -15.5320    5.9740 O.2   383  TYR383     -0.2867
    207  CB        18.2950  -18.8150    5.3970 C.3   383  TYR383      0.0534
    208  CG        18.2360  -18.3810    3.9270 C.ar  383  TYR383     -0.0201
    209  CD1       17.0980  -18.5510    3.1650 C.ar  383  TYR383     -0.0009
    210  CD2       19.2380  -17.5820    3.4280 C.ar  383  TYR383     -0.0009
    211  CE1       17.0700  -18.0290    1.7800 C.ar  383  TYR383      0.0417
    212  CE2       19.2450  -17.0470    2.1570 C.ar  383  TYR383      0.0417
    213  CZ        18.2040  -17.2550    1.3440 C.ar  383  TYR383      0.1957
    214  OH        18.5500  -16.5620    0.1690 O.3   383  TYR383     -0.2866
@<TRIPOS>BOND
     1    81    82    1
     2    90    91    1
     3    76    75    2
     4    75    74    1
     5    83    82    1
     6    83    84    2
     7    82    85    1
     8    91    92    1
     9    91    94    1
    10    95    94    1
    11    92    97   am
    12    92    93    2
    13    99   100    2
    14    99    98    1
    15    74    73    1
    16    74    77    1
    17    97    98    1
    18    94    96    1
    19    85    86    1
    20    72    69    1
    21    71    70    2
    22    73    70   am
    23    86    87    1
    24    70    69    1
    25    98   101    1
    26    77    78    1
    27    80    78   am
    28    78    79    2
    29    69    68    1
    30    89    88    1
    31    87    88    1
    32   101   102    1
    33    68    59   am
    34   103   104    1
    35    21    22    2
    36    21    20    1
    37    57    58    1
    38    59    58    1
    39    59    60    2
    40    19    20    1
    41    23    20    1
    42    23    24    1
    43    27    25   ar
    44    58    61    1
    45    24    25    1
    46    25    26   ar
    47   104   107    1
    48   104   105    1
    49   108   110    1
    50   108   107    1
    51   108   109    1
    52    13    14    2
    53    13    12    1
    54   105   106    2
    55    61    62    1
    56    56    54   am
    57    12    11    1
    58    12    15    1
    59    11     3   am
    60    62    63    1
    61   139   138    1
    62     1     2    1
    63   193   191    1
    64    55    54    2
    65     3     2    1
    66     3     4    2
    67    54    53    1
    68     2     5    1
    69    18    16    1
    70    15    16    1
    71   191   190    2
    72   191   192    1
    73   138   140    1
    74   138   137    1
    75    63    64    1
    76   190   189    1
    77    16    17    1
    78   111   112    1
    79    53    52    1
    80     7     6   ar
    81     7     9   ar
    82   135   134    1
    83   135   136    2
    84     5     6    1
    85   118   116   ar
    86   117   116   ar
    87   116   115    1
    88    64    65    2
    89    52    49    1
    90   112   115    1
    91   112   113    1
    92   134   137    1
    93   134   133    1
    94     6     8   ar
    95     9    10   ar
    96   189   188    1
    97   127   125   ar
    98   127   128   ar
    99    65    66    1
   100    65    67    1
   101   125   124   ar
   102   113   119   am
   103   113   114    2
   104    10     8   ar
   105    49    50    1
   106    49    48    1
   107   188   187    1
   108    51    50    2
   109   128   130   ar
   110   128   126   ar
   111   130   132   ar
   112   186   185    2
   113   119   120    1
   114   187   184    1
   115    47    46    1
   116   124   126   ar
   117   124   123    1
   118   185   184    1
   119    45    46   ar
   120    45    43   ar
   121   126   129   ar
   122   132   131   ar
   123   184   183    1
   124   120   123    1
   125   120   121    1
   126    46    44   ar
   127    28    29    1
   128    32    29    1
   129    32    33    1
   130    43    41   ar
   131    31    30    2
   132   129   131   ar
   133    29    30    1
   134   121   122    2
   135   170   169    1
   136   170   171    2
   137   169   168    1
   138   171   173    1
   139   171   172    1
   140    44    42   ar
   141    33    35   am
   142    33    34    2
   143    41    42   ar
   144    41    40    1
   145   177   176    2
   146   168   167    1
   147   167   164    1
   148    40    37    1
   149   166   165    2
   150    36    37    1
   151   162   160    1
   152   176   175    1
   153   165   164    1
   154   164   163    1
   155    37    38    1
   156   160   161    1
   157   160   159    1
   158   152   154   ar
   159   152   150   ar
   160   154   153   ar
   161   149   150   ar
   162   149   147   ar
   163   178   175    1
   164   178   179    1
   165   175   174    1
   166   158   157    2
   167   159   156    1
   168   150   148   ar
   169   157   156    1
   170   202   200   am
   171    38    39    2
   172   181   180    2
   173   201   200    2
   174   156   155    1
   175   147   146   ar
   176   200   199    1
   177   153   151   ar
   178   179   180    1
   179   214   213    1
   180   180   182   am
   181   148   146   ar
   182   148   151   ar
   183   198   199    1
   184   198   195    1
   185   194   195    1
   186   146   145    1
   187   213   211   ar
   188   213   212   ar
   189   195   196    1
   190   211   209   ar
   191   144   143    2
   192   212   210   ar
   193   145   142    1
   194   196   197    2
   195   142   143    1
   196   142   141    1
   197   209   208   ar
   198   210   208   ar
   199   208   207    1
   200   207   204    1
   201   205   206    2
   202   205   204    1
   203   204   203    1
