@<TRIPOS>MOLECULE
tmp/5gxdA00.pdb
 186 183 0 0 0
SMALL
GASTEIGER

@<TRIPOS>ATOM
      1  N         20.0100   12.7490   19.6000 N.3   238  THR238     -0.1218
      2  CA        19.1030   13.8340   19.7150 C.3   238  THR238      0.1862
      3  C         17.6600   13.2950   19.7080 C.2   238  THR238      0.2287
      4  O         17.4230   12.1530   19.5280 O.2   238  THR238     -0.2866
      5  CB        19.3810   14.9400   18.6620 C.3   238  THR238      0.1770
      6  OG1       18.6460   16.1120   18.9480 O.3   238  THR238     -0.2211
      7  CG2       19.0520   14.4700   17.2940 C.3   238  THR238      0.0375
      8  N         24.6670   17.9440   25.8470 N.3   283  TRP283     -0.1227
      9  CA        24.1340   18.6540   24.6910 C.3   283  TRP283      0.1737
     10  C         25.2550   19.0450   23.7370 C.2   283  TRP283      0.2595
     11  O         26.4270   19.1400   24.1160 O.2   283  TRP283     -0.2718
     12  CB        23.3730   19.9130   25.1130 C.3   283  TRP283      0.0564
     13  CG        22.3550   19.7150   26.2130 C.ar  283  TRP283      0.0003
     14  CD1       22.3220   20.3570   27.4270 C.ar  283  TRP283      0.0946
     15  CD2       21.2190   18.8390   26.1930 C.ar  283  TRP283      0.0152
     16  NE1       21.2400   19.9270   28.1570 N.ar  283  TRP283     -0.2442
     17  CE2       20.5500   18.9930   27.4270 C.ar  283  TRP283      0.0810
     18  CE3       20.7010   17.9400   25.2510 C.ar  283  TRP283      0.0012
     19  CZ2       19.3920   18.2820   27.7450 C.ar  283  TRP283      0.0191
     20  CZ3       19.5510   17.2360   25.5690 C.ar  283  TRP283      0.0001
     21  CH2       18.9110   17.4100   26.8100 C.ar  283  TRP283      0.0015
     22  N         24.8710   19.3020   22.4820 N.am  284  VAL284     -0.1966
     23  CA        25.8530   19.6750   21.4690 C.3   284  VAL284      0.1727
     24  C         26.5230   21.0010   21.8190 C.2   284  VAL284      0.2616
     25  O         27.7020   21.2080   21.5060 O.2   284  VAL284     -0.2715
     26  CB        25.1920   19.7140   20.0730 C.3   284  VAL284      0.0290
     27  CG1       24.2790   20.9270   19.9360 C.3   284  VAL284      0.0023
     28  CG2       26.2680   19.7000   18.9700 C.3   284  VAL284      0.0023
     29  N         25.8110   21.9100   22.4830 N.am  285  VAL285     -0.1977
     30  CA        26.4650   23.1460   22.9090 C.3   285  VAL285      0.1596
     31  C         27.6320   22.8370   23.8400 C.2   285  VAL285      0.2287
     32  O         28.7070   23.4510   23.7350 O.2   285  VAL285     -0.2864
     33  CB        25.4470   24.0990   23.5520 C.3   285  VAL285      0.0276
     34  CG1       26.1760   25.2860   24.2240 C.3   285  VAL285      0.0022
     35  CG2       24.4770   24.6040   22.4640 C.3   285  VAL285      0.0022
     36  N         21.8660   30.7450   22.3790 N.3   363  ALA363     -0.1231
     37  CA        21.3550   29.7920   21.4020 C.3   363  ALA363      0.1694
     38  C         20.5260   28.7510   22.1350 C.2   363  ALA363      0.2593
     39  O         20.4720   28.7230   23.3710 O.2   363  ALA363     -0.2718
     40  CB        22.4850   29.1210   20.5970 C.3   363  ALA363      0.0304
     41  N         19.8740   27.8870   21.3520 N.am  364  GLY364     -0.1942
     42  CA        19.1460   26.7490   21.8790 C.3   364  GLY364      0.2014
     43  C         17.6410   26.9060   21.8600 C.2   364  GLY364      0.2639
     44  O         16.9240   25.9060   22.0040 O.2   364  GLY364     -0.2714
     45  N         17.1630   28.1050   21.6940 N.am  365  GLU365     -0.1963
     46  CA        15.7530   28.4120   21.6960 C.3   365  GLU365      0.1733
     47  C         15.6210   29.8350   21.2880 C.2   365  GLU365      0.2616
     48  O         16.5700   30.5260   21.1790 O.2   365  GLU365     -0.2715
     49  CB        15.1590   28.2490   23.0850 C.3   365  GLU365      0.0429
     50  CG        15.8070   29.1380   24.1370 C.3   365  GLU365      0.1163
     51  CD        15.2210   28.9730   25.5250 C.2   365  GLU365      0.3649
     52  OE1       14.0170   29.1370   25.6610 O.co2 365  GLU365     -0.2457
     53  OE2       15.9740   28.7080   26.4420 O.co2 365  GLU365     -0.2457
     54  N         14.4120   30.2640   21.0930 N.am  366  ARG366     -0.1977
     55  CA        14.1530   31.6130   20.7140 C.3   366  ARG366      0.1597
     56  C         14.6630   32.6100   21.7640 C.2   366  ARG366      0.2287
     57  O         14.4300   32.4600   22.9140 O.2   366  ARG366     -0.2864
     58  CB        12.6820   31.7730   20.4920 C.3   366  ARG366      0.0334
     59  CG        12.2990   33.1120   19.9550 C.3   366  ARG366      0.0492
     60  CD        10.7980   33.2240   19.7770 C.3   366  ARG366      0.2205
     61  NE        10.3400   34.5650   20.0840 N.pl3 366  ARG366     -0.0865
     62  CZ         9.8360   34.9120   21.2400 C.cat 366  ARG366      0.5346
     63  NH1        9.7120   34.0300   22.2090 N.pl3 366  ARG366      0.1354
     64  NH2        9.4360   36.1370   21.4120 N.pl3 366  ARG366      0.1354
     65  N         22.1020   36.5810   19.6350 N.3   385  ASP385     -0.1225
     66  CA        21.3390   35.3810   19.3270 C.3   385  ASP385      0.1805
     67  C         21.9590   34.6660   18.1290 C.2   385  ASP385      0.2598
     68  O         22.4280   35.3040   17.1850 O.2   385  ASP385     -0.2718
     69  CB        19.8910   35.7860   19.0510 C.3   385  ASP385      0.1424
     70  CG        18.9870   34.6170   18.7570 C.2   385  ASP385      0.3668
     71  OD1       19.3120   33.4770   19.1410 O.co2 385  ASP385     -0.2456
     72  OD2       17.9150   34.8660   18.1590 O.co2 385  ASP385     -0.2456
     73  N         21.9870   33.3330   18.1690 N.am  386  HIS386     -0.1961
     74  CA        22.4800   32.5910   17.0140 C.3   386  HIS386      0.1787
     75  C         21.8670   31.1940   17.0330 C.2   386  HIS386      0.2620
     76  O         21.5460   30.6560   18.0930 O.2   386  HIS386     -0.2715
     77  CB        24.0310   32.5710   16.9330 C.3   386  HIS386      0.0785
     78  CG        24.7290   31.7670   18.0010 C.ar  386  HIS386      0.0821
     79  ND1       24.5300   31.9670   19.3510 N.ar  386  HIS386     -0.2267
     80  CD2       25.6900   30.8130   17.9050 C.ar  386  HIS386      0.1154
     81  CE1       25.2970   31.1380   20.0400 C.ar  386  HIS386      0.1986
     82  NE2       26.0240   30.4360   19.1880 N.ar  386  HIS386     -0.2212
     83  N         21.6600   30.6370   15.8410 N.am  387  TRP387     -0.1960
     84  CA        20.8170   29.4610   15.6560 C.3   387  TRP387      0.1771
     85  C         21.6270   28.3060   15.0830 C.2   387  TRP387      0.2620
     86  O         22.3310   28.4750   14.0800 O.2   387  TRP387     -0.2715
     87  CB        19.6450   29.8210   14.7270 C.3   387  TRP387      0.0590
     88  CG        18.9050   28.6740   14.1410 C.ar  387  TRP387      0.0006
     89  CD1       18.1570   27.7520   14.8090 C.ar  387  TRP387      0.0946
     90  CD2       18.7970   28.3520   12.7510 C.ar  387  TRP387      0.0152
     91  NE1       17.6120   26.8580   13.9210 N.ar  387  TRP387     -0.2442
     92  CE2       17.9830   27.2120   12.6500 C.ar  387  TRP387      0.0810
     93  CE3       19.3190   28.9150   11.5790 C.ar  387  TRP387      0.0012
     94  CZ2       17.6770   26.6160   11.4230 C.ar  387  TRP387      0.0191
     95  CZ3       19.0000   28.3280   10.3570 C.ar  387  TRP387      0.0001
     96  CH2       18.1970   27.1850   10.2940 C.ar  387  TRP387      0.0015
     97  N         21.5310   27.1390   15.7180 N.am  388  TRP388     -0.1960
     98  CA        22.0840   25.9000   15.1720 C.3   388  TRP388      0.1771
     99  C         21.5080   24.7330   15.9700 C.2   388  TRP388      0.2620
    100  O         20.5860   24.9120   16.7710 O.2   388  TRP388     -0.2715
    101  CB        23.6130   25.9190   15.1450 C.3   388  TRP388      0.0590
    102  CG        24.3090   26.3040   16.4120 C.ar  388  TRP388      0.0006
    103  CD1       24.3910   27.5550   16.9680 C.ar  388  TRP388      0.0946
    104  CD2       25.0860   25.4370   17.2480 C.ar  388  TRP388      0.0152
    105  NE1       25.1530   27.5060   18.1210 N.ar  388  TRP388     -0.2442
    106  CE2       25.5980   26.2180   18.3020 C.ar  388  TRP388      0.0810
    107  CE3       25.3870   24.0680   17.2110 C.ar  388  TRP388      0.0012
    108  CZ2       26.3870   25.6750   19.3040 C.ar  388  TRP388      0.0191
    109  CZ3       26.1870   23.5380   18.1890 C.ar  388  TRP388      0.0001
    110  CH2       26.6770   24.3360   19.2240 C.ar  388  TRP388      0.0015
    111  N         22.0170   23.5250   15.7220 N.am  389  GLN389     -0.1963
    112  CA        21.3800   22.3080   16.2180 C.3   389  GLN389      0.1733
    113  C         22.4210   21.1960   16.3060 C.2   389  GLN389      0.2617
    114  O         23.5240   21.3060   15.7660 O.2   389  GLN389     -0.2715
    115  CB        20.2070   21.8980   15.3020 C.3   389  GLN389      0.0408
    116  CG        20.6230   21.7630   13.8480 C.3   389  GLN389      0.0908
    117  CD        19.4680   21.4590   12.8840 C.2   389  GLN389      0.2608
    118  OE1       19.7020   20.9850   11.7740 O.2   389  GLN389     -0.2717
    119  NE2       18.2340   21.7370   13.3000 N.am  389  GLN389     -0.0878
    120  N         22.0470   20.1130   17.0020 N.am  390  THR390     -0.1951
    121  CA        22.9320   18.9550   17.1560 C.3   390  THR390      0.1897
    122  C         23.5230   18.5250   15.8210 C.2   390  THR390      0.2313
    123  O         24.7220   18.2160   15.7190 O.2   390  THR390     -0.2863
    124  CB        22.1520   17.7880   17.7790 C.3   390  THR390      0.1794
    125  OG1       21.6270   18.1780   19.0490 O.3   390  THR390     -0.2208
    126  CG2       23.0320   16.5320   17.9580 C.3   390  THR390      0.0378
    127  N         18.5160   35.7580   14.8780 N.3   413  PRO413     -0.2116
    128  CA        19.9000   35.3040   15.0740 C.3   413  PRO413      0.1372
    129  C         20.8570   35.7870   13.9920 C.2   413  PRO413      0.2244
    130  O         21.9370   35.2120   13.8090 O.2   413  PRO413     -0.2868
    131  CB        19.7660   33.7750   15.0600 C.3   413  PRO413      0.0268
    132  CG        18.5600   33.5260   14.2000 C.3   413  PRO413      0.0207
    133  CD        17.6100   34.6410   14.5640 C.3   413  PRO413      0.0892
    134  N         13.2580   23.3060   11.2840 N.3   477  ASP477     -0.1239
    135  CA        12.7020   24.5620   11.7580 C.3   477  ASP477      0.1674
    136  C         12.0000   25.2790   10.6120 C.2   477  ASP477      0.2266
    137  O         12.3780   25.1380    9.4450 O.2   477  ASP477     -0.2867
    138  CB        13.7910   25.4590   12.3480 C.3   477  ASP477      0.1410
    139  CG        14.3690   24.8960   13.6450 C.2   477  ASP477      0.3668
    140  OD1       13.5870   24.6770   14.5850 O.co2 477  ASP477     -0.2456
    141  OD2       15.5910   24.6560   13.7200 O.co2 477  ASP477     -0.2456
    142  N         13.4820   32.4690   13.3870 N.3   489  ILE489     -0.1245
    143  CA        13.1560   31.0610   13.6230 C.3   489  ILE489      0.1561
    144  C         11.7910   30.9880   14.3000 C.2   489  ILE489      0.2260
    145  O         11.5940   31.5430   15.3830 O.2   489  ILE489     -0.2867
    146  CB        14.2300   30.3740   14.4880 C.3   489  ILE489      0.0252
    147  CG1       15.6470   30.7070   13.9930 C.3   489  ILE489      0.0019
    148  CG2       13.9930   28.8510   14.5710 C.3   489  ILE489      0.0019
    149  CD1       15.8810   30.4720   12.4930 C.3   489  ILE489      0.0001
    150  N          9.1630   24.4170   15.0930 N.3   492  ARG492     -0.1245
    151  CA         9.6000   23.1650   14.5020 C.3   492  ARG492      0.1563
    152  C          8.5290   22.6600   13.5410 C.2   492  ARG492      0.2260
    153  O          7.3330   22.8990   13.7280 O.2   492  ARG492     -0.2867
    154  CB         9.8720   22.1130   15.5780 C.3   492  ARG492      0.0307
    155  CG        11.0120   22.4440   16.5430 C.3   492  ARG492      0.0489
    156  CD        12.3770   22.1480   15.9370 C.3   492  ARG492      0.2205
    157  NE        12.5050   20.7730   15.4610 N.pl3 492  ARG492     -0.0865
    158  CZ        13.6500   20.2240   15.0640 C.cat 492  ARG492      0.5346
    159  NH1       14.7720   20.9310   15.1040 N.pl3 492  ARG492      0.1354
    160  NH2       13.6810   18.9680   14.6350 N.pl3 492  ARG492      0.1354
    161  N          8.9350   18.0530   17.6980 N.3   496  VAL496     -0.1245
    162  CA         9.9380   18.4290   18.6900 C.3   496  VAL496      0.1561
    163  C          9.5040   19.7050   19.4000 C.2   496  VAL496      0.2260
    164  O          8.9110   20.6030   18.7910 O.2   496  VAL496     -0.2867
    165  CB        11.3140   18.5780   18.0100 C.3   496  VAL496      0.0252
    166  CG1       12.3370   19.2180   18.9350 C.3   496  VAL496      0.0019
    167  CG2       11.8010   17.2030   17.5300 C.3   496  VAL496      0.0019
    168  N         10.9950   22.6280   22.5060 N.3   498  ASN498     -0.1240
    169  CA        12.1600   23.1350   23.2200 C.3   498  ASN498      0.1653
    170  C         11.6920   23.6280   24.5780 C.2   498  ASN498      0.2266
    171  O         10.9510   24.6100   24.6640 O.2   498  ASN498     -0.2867
    172  CB        12.8570   24.2310   22.4170 C.3   498  ASN498      0.1155
    173  CG        13.5720   23.6750   21.1950 C.2   498  ASN498      0.2627
    174  OD1       14.4080   22.7770   21.3210 O.2   498  ASN498     -0.2716
    175  ND2       13.2240   24.1770   20.0060 N.am  498  ASN498     -0.0877
    176  N         15.9580   20.2080   23.7210 N.3   503  ARG503     -0.1245
    177  CA        15.2220   19.6430   22.5940 C.3   503  ARG503      0.1563
    178  C         14.6280   18.2960   23.0140 C.2   503  ARG503      0.2260
    179  O         15.3700   17.3770   23.3760 O.2   503  ARG503     -0.2867
    180  CB        16.1650   19.4930   21.3980 C.3   503  ARG503      0.0307
    181  CG        15.6250   18.6950   20.2070 C.3   503  ARG503      0.0489
    182  CD        16.6340   18.7600   19.0650 C.3   503  ARG503      0.2205
    183  NE        16.3280   17.8520   17.9640 N.pl3 503  ARG503     -0.0865
    184  CZ        16.9990   17.8150   16.8120 C.cat 503  ARG503      0.5346
    185  NH1       18.0200   18.6510   16.5950 N.pl3 503  ARG503      0.1354
    186  NH2       16.6510   16.9390   15.8730 N.pl3 503  ARG503      0.1354
@<TRIPOS>BOND
     1   137   136    2
     2    96    95   ar
     3    96    94   ar
     4    95    93   ar
     5   136   135    1
     6   134   135    1
     7    94    92   ar
     8    93    90   ar
     9   135   138    1
    10   118   117    2
    11   138   139    1
    12   149   147    1
    13    92    90   ar
    14    92    91   ar
    15    90    88   ar
    16   117   119   am
    17   117   116    1
    18   142   143    1
    19   152   153    2
    20   152   151    1
    21   143   144    1
    22   143   146    1
    23   139   141   ar
    24   139   140   ar
    25   130   129    2
    26   116   115    1
    27    91    89   ar
    28   129   128    1
    29   147   146    1
    30    86    85    2
    31    88    87    1
    32    88    89   ar
    33   132   133    1
    34   132   131    1
    35   144   145    2
    36   146   148    1
    37   151   150    1
    38   151   154    1
    39   133   127    1
    40   160   158    1
    41    87    84    1
    42   127   128    1
    43   131   128    1
    44   158   159    1
    45   158   157    2
    46    85    84    1
    47    85    97   am
    48   101    98    1
    49   101   102    1
    50    98    97    1
    51    98    99    1
    52   115   112    1
    53   157   156    1
    54   154   155    1
    55    84    83    1
    56   123   122    2
    57   111    99   am
    58   111   112    1
    59   114   113    2
    60   122   121    1
    61    83    75   am
    62   186   184    1
    63   156   155    1
    64    99   100    2
    65   112   113    1
    66   113   120   am
    67   102   103   ar
    68   102   104   ar
    69   185   184    1
    70   184   183    2
    71    77    74    1
    72    77    78    1
    73   103   105   ar
    74   120   121    1
    75    74    75    1
    76    74    73    1
    77    75    76    2
    78   121   124    1
    79    68    67    2
    80   107   104   ar
    81   107   109   ar
    82   104   106   ar
    83     7     5    1
    84   167   165    1
    85   161   162    1
    86   124   126    1
    87   124   125    1
    88    80    78   ar
    89    80    82   ar
    90   183   182    1
    91    78    79   ar
    92   165   162    1
    93   165   166    1
    94   105   106   ar
    95    67    73   am
    96    67    66    1
    97    72    70   ar
    98   109   110   ar
    99   106   108   ar
   100     5     6    1
   101     5     2    1
   102   162   163    1
   103    70    69    1
   104    70    71   ar
   105   164   163    2
   106    28    26    1
   107    69    66    1
   108   182   181    1
   109    82    81   ar
   110   110   108   ar
   111    66    65    1
   112    79    81   ar
   113     4     3    2
   114     1     2    1
   115     3     2    1
   116    60    59    1
   117    60    61    1
   118    27    26    1
   119    59    58    1
   120   175   173   am
   121    26    23    1
   122    61    62    2
   123   181   180    1
   124    58    55    1
   125    40    37    1
   126    55    54    1
   127    55    56    1
   128    54    47   am
   129    48    47    2
   130   173   174    2
   131   173   172    1
   132    62    64    1
   133    62    63    1
   134    47    46    1
   135    41    42    1
   136    41    38   am
   137   180   177    1
   138    37    38    1
   139    37    36    1
   140    23    24    1
   141    23    22    1
   142    25    24    2
   143    45    46    1
   144    45    43   am
   145    46    49    1
   146    56    57    2
   147    24    29   am
   148    43    42    1
   149    43    44    2
   150    38    39    2
   151   172   169    1
   152    35    33    1
   153    22    10   am
   154    29    30    1
   155   168   169    1
   156   177   178    1
   157   177   176    1
   158    30    33    1
   159    30    31    1
   160   178   179    2
   161    49    50    1
   162   169   170    1
   163    33    34    1
   164    32    31    2
   165    10    11    2
   166    10     9    1
   167    50    51    1
   168   170   171    2
   169     9    12    1
   170     9     8    1
   171    12    13    1
   172    18    20   ar
   173    18    15   ar
   174    51    52   ar
   175    51    53   ar
   176    20    21   ar
   177    15    13   ar
   178    15    17   ar
   179    13    14   ar
   180    21    19   ar
   181    17    19   ar
   182    17    16   ar
   183    14    16   ar
