@<TRIPOS>MOLECULE
tmp/5gxgA01.pdb
 103 95 0 0 0
SMALL
GASTEIGER

@<TRIPOS>ATOM
      1  N         29.9080   -7.7150   18.1770 N.3    78  PHE78      -0.1241
      2  CA        30.4070   -6.4140   17.8730 C.3    78  PHE78       0.1605
      3  C         31.7980   -6.4680   17.2800 C.2    78  PHE78       0.2264
      4  O         32.6030   -7.3170   17.6580 O.2    78  PHE78      -0.2867
      5  CB        30.4130   -5.4950   19.1300 C.3    78  PHE78       0.0534
      6  CG        29.0840   -5.3640   19.7760 C.ar   78  PHE78      -0.0203
      7  CD1       27.9380   -5.1140   18.9980 C.ar   78  PHE78      -0.0042
      8  CD2       28.9380   -5.5210   21.1430 C.ar   78  PHE78      -0.0042
      9  CE1       26.6990   -5.0030   19.5860 C.ar   78  PHE78      -0.0003
     10  CE2       27.6940   -5.4240   21.7280 C.ar   78  PHE78      -0.0003
     11  CZ        26.5680   -5.1730   20.9480 C.ar   78  PHE78      -0.0000
     12  N         31.6720   -5.1180   27.7870 N.3    83  TYR83      -0.1241
     13  CA        30.2730   -5.2510   27.3620 C.3    83  TYR83       0.1605
     14  C         29.6020   -6.6030   27.6500 C.2    83  TYR83       0.2264
     15  O         29.7550   -7.5630   26.8870 O.2    83  TYR83      -0.2867
     16  CB        30.1160   -4.9610   25.8620 C.3    83  TYR83       0.0534
     17  CG        28.6660   -4.9470   25.4640 C.ar   83  TYR83      -0.0201
     18  CD1       28.0140   -3.7500   25.1710 C.ar   83  TYR83      -0.0009
     19  CD2       27.9200   -6.1380   25.4380 C.ar   83  TYR83      -0.0009
     20  CE1       26.6630   -3.7290   24.8350 C.ar   83  TYR83       0.0417
     21  CE2       26.5850   -6.1240   25.1220 C.ar   83  TYR83       0.0417
     22  CZ        25.9710   -4.9150   24.8280 C.ar   83  TYR83       0.1957
     23  OH        24.6680   -4.9330   24.4520 O.3    83  TYR83      -0.2866
     24  N         22.2330  -10.0830   24.5790 N.3    88  THR88      -0.1218
     25  CA        22.8960   -9.6850   23.3210 C.3    88  THR88       0.1862
     26  C         23.8390  -10.7560   22.7810 C.2    88  THR88       0.2287
     27  O         23.9400  -10.9530   21.5550 O.2    88  THR88      -0.2866
     28  CB        23.7530   -8.4270   23.5750 C.3    88  THR88       0.1770
     29  OG1       22.8930   -7.3970   24.0820 O.3    88  THR88      -0.2211
     30  CG2       24.4330   -7.9200   22.3300 C.3    88  THR88       0.0375
     31  N         20.5440   -3.4330   29.7870 N.3   231  LEU231     -0.1245
     32  CA        20.2630   -3.4460   28.3350 C.3   231  LEU231      0.1561
     33  C         18.8910   -2.8520   28.0440 C.2   231  LEU231      0.2260
     34  O         18.6870   -2.1490   27.0200 O.2   231  LEU231     -0.2867
     35  CB        20.3110   -4.8490   27.8090 C.3   231  LEU231      0.0270
     36  CG        20.2440   -4.8570   26.2720 C.3   231  LEU231      0.0019
     37  CD1       21.1820   -3.8640   25.5560 C.3   231  LEU231      0.0001
     38  CD2       20.3640   -6.2910   25.7930 C.3   231  LEU231      0.0001
     39  N         19.8130    0.9170   28.0620 N.3   234  VAL234     -0.1231
     40  CA        20.7210    1.4440   27.0290 C.3   234  VAL234      0.1692
     41  C         20.1560    1.1130   25.6640 C.2   234  VAL234      0.2592
     42  O         20.1740    1.9630   24.7400 O.2   234  VAL234     -0.2718
     43  CB        22.1470    0.9020   27.2410 C.3   234  VAL234      0.0266
     44  CG1       23.0520    1.2490   26.0470 C.3   234  VAL234      0.0020
     45  CG2       22.6730    1.4330   28.5720 C.3   234  VAL234      0.0020
     46  N         19.5540   -0.0700   25.5440 N.am  235  GLY235     -0.1957
     47  CA        18.9420   -0.5100   24.2700 C.3   235  GLY235      0.1869
     48  C         17.8090    0.3240   23.7520 C.2   235  GLY235      0.2309
     49  O         17.6070    0.3930   22.5600 O.2   235  GLY235     -0.2863
     50  N         19.9350    4.6850   22.9240 N.3   238  ASP238     -0.1225
     51  CA        20.8510    5.1030   21.8350 C.3   238  ASP238      0.1805
     52  C         20.1040    5.0620   20.4920 C.2   238  ASP238      0.2598
     53  O         20.1590    5.9910   19.6320 O.2   238  ASP238     -0.2718
     54  CB        22.0180    4.0860   21.8550 C.3   238  ASP238      0.1424
     55  CG        23.2400    4.5470   21.1690 C.2   238  ASP238      0.3668
     56  OD1       23.3030    5.7260   20.7760 O.co2 238  ASP238     -0.2456
     57  OD2       24.1930    3.6880   21.0460 O.co2 238  ASP238     -0.2456
     58  N         19.3760    4.0050   20.3460 N.am  239  THR239     -0.1953
     59  CA        18.6940    3.7960   19.0640 C.3   239  THR239      0.1897
     60  C         17.5650    4.7860   18.9020 C.2   239  THR239      0.2313
     61  O         17.4620    5.3730   17.8320 O.2   239  THR239     -0.2863
     62  CB        18.1070    2.3750   18.9710 C.3   239  THR239      0.1794
     63  OG1       17.4740    2.1460   20.1790 O.3   239  THR239     -0.2208
     64  CG2       19.2540    1.3050   18.8090 C.3   239  THR239      0.0378
     65  N         21.3630    0.6280   12.7780 N.3   282  VAL282     -0.1245
     66  CA        22.1310   -0.3350   13.5180 C.3   282  VAL282      0.1561
     67  C         22.9500   -1.2020   12.5830 C.2   282  VAL282      0.2260
     68  O         22.4960   -1.5630   11.4700 O.2   282  VAL282     -0.2867
     69  CB        21.2220   -1.1670   14.4320 C.3   282  VAL282      0.0252
     70  CG1       22.0010   -2.1540   15.2000 C.3   282  VAL282      0.0019
     71  CG2       20.4840   -0.2660   15.4170 C.3   282  VAL282      0.0019
     72  N         25.2710   -4.4260   13.6690 N.3   284  ASP284     -0.1239
     73  CA        26.0790   -5.3980   14.3670 C.3   284  ASP284      0.1674
     74  C         26.3330   -6.6350   13.5190 C.2   284  ASP284      0.2266
     75  O         26.2160   -6.6280   12.2740 O.2   284  ASP284     -0.2867
     76  CB        25.6840   -5.5740   15.8320 C.3   284  ASP284      0.1410
     77  CG        24.5230   -6.3950   16.0920 C.2   284  ASP284      0.3668
     78  OD1       23.8290   -6.7670   15.1440 O.co2 284  ASP284     -0.2456
     79  OD2       24.2240   -6.6380   17.3330 O.co2 284  ASP284     -0.2456
     80  N         22.1160   -4.2340    9.8130 N.3   309  GLN309     -0.1245
     81  CA        20.6410   -4.1220    9.7360 C.3   309  GLN309      0.1566
     82  C         20.2720   -3.0010    8.8270 C.2   309  GLN309      0.2260
     83  O         19.2380   -3.0870    8.1260 O.2   309  GLN309     -0.2867
     84  CB        20.0750   -3.9130   11.1220 C.3   309  GLN309      0.0367
     85  CG        20.1570   -5.2120   11.9570 C.3   309  GLN309      0.0905
     86  CD        21.4580   -5.4600   12.7360 C.2   309  GLN309      0.2608
     87  OE1       22.4480   -4.7670   12.5730 O.2   309  GLN309     -0.2717
     88  NE2       21.4050   -6.4070   13.6780 N.am  309  GLN309     -0.0878
     89  N         28.2080    1.2000   15.5020 N.3   382  ILE382     -0.1231
     90  CA        27.2590    0.1930   15.7630 C.3   382  ILE382      0.1692
     91  C         25.8280    0.7800   15.7480 C.2   382  ILE382      0.2591
     92  O         24.9080    0.1710   15.1880 O.2   382  ILE382     -0.2718
     93  CB        27.5210   -0.5090   17.0740 C.3   382  ILE382      0.0266
     94  CG1       28.8830   -1.2330   16.9490 C.3   382  ILE382      0.0019
     95  CG2       26.4300   -1.4730   17.4370 C.3   382  ILE382      0.0020
     96  CD1       29.3960   -1.7140   18.2880 C.3   382  ILE382      0.0001
     97  N         25.6680    1.9280   16.3940 N.am  383  VAL383     -0.1980
     98  CA        24.4400    2.6970   16.2520 C.3   383  VAL383      0.1595
     99  C         24.8870    4.0330   15.6880 C.2   383  VAL383      0.2287
    100  O         25.5730    4.8320   16.3740 O.2   383  VAL383     -0.2864
    101  CB        23.6510    2.8440   17.5750 C.3   383  VAL383      0.0276
    102  CG1       22.3930    3.6920   17.3760 C.3   383  VAL383      0.0022
    103  CG2       23.3290    1.5470   18.2510 C.3   383  VAL383      0.0022
@<TRIPOS>BOND
     1    83    82    2
     2    82    81    1
     3    81    80    1
     4    81    84    1
     5    84    85    1
     6    68    67    2
     7    85    86    1
     8    75    74    2
     9    87    86    2
    10    67    66    1
    11    86    88   am
    12    65    66    1
    13    66    69    1
    14    74    73    1
    15    72    73    1
    16    73    76    1
    17    69    70    1
    18    69    71    1
    19    78    77   ar
    20    92    91    2
    21    89    90    1
    22    99    98    1
    23    99   100    2
    24    91    90    1
    25    91    97   am
    26    90    93    1
    27    76    77    1
    28    77    79   ar
    29    98    97    1
    30    98   101    1
    31    94    93    1
    32    94    96    1
    33    93    95    1
    34     3     4    2
    35     3     2    1
    36   102   101    1
    37   101   103    1
    38    61    60    2
    39     2     1    1
    40     2     5    1
    41    64    62    1
    42    60    59    1
    43    62    59    1
    44    62    63    1
    45     7     9   ar
    46     7     6   ar
    47    59    58    1
    48     5     6    1
    49     9    11   ar
    50    53    52    2
    51     6     8   ar
    52    58    52   am
    53    52    51    1
    54    56    55   ar
    55    11    10   ar
    56    57    55   ar
    57     8    10   ar
    58    55    54    1
    59    27    26    2
    60    51    54    1
    61    51    50    1
    62    30    28    1
    63    49    48    2
    64    26    25    1
    65    25    28    1
    66    25    24    1
    67    28    29    1
    68    48    47    1
    69    47    46    1
    70    23    22    1
    71    42    41    2
    72    22    20   ar
    73    22    21   ar
    74    20    18   ar
    75    21    19   ar
    76    18    17   ar
    77    19    17   ar
    78    17    16    1
    79    46    41   am
    80    37    36    1
    81    41    40    1
    82    38    36    1
    83    16    13    1
    84    44    43    1
    85    36    35    1
    86    15    14    2
    87    34    33    2
    88    40    43    1
    89    40    39    1
    90    43    45    1
    91    13    14    1
    92    13    12    1
    93    35    32    1
    94    33    32    1
    95    32    31    1
