@<TRIPOS>MOLECULE
tmp/5gxiA00.pdb
 221 216 0 0 0
SMALL
GASTEIGER

@<TRIPOS>ATOM
      1  N         30.5140   48.7960   19.2730 N.3     9  SER9       -0.1203
      2  CA        29.6080   48.2380   18.3280 C.3     9  SER9        0.2005
      3  C         30.3270   47.5680   17.1660 C.2     9  SER9        0.2461
      4  O         31.3360   48.0880   16.6820 O.2     9  SER9       -0.2732
      5  CB        28.7430   49.2990   17.7060 C.3     9  SER9        0.2103
      6  OG        27.7830   49.8650   18.5970 O.3     9  SER9       -0.2182
      7  N         29.7860   46.4170   16.7110 N.am   10  PRO10      -0.2717
      8  CA        30.2640   45.7710   15.4790 C.3    10  PRO10       0.1535
      9  C         30.3260   46.7360   14.3200 C.2    10  PRO10       0.2599
     10  O         29.4430   47.5330   14.1530 O.2    10  PRO10      -0.2715
     11  CB        29.2540   44.6550   15.2300 C.3    10  PRO10       0.0310
     12  CG        28.6880   44.3190   16.5810 C.3    10  PRO10       0.0237
     13  CD        28.6790   45.6490   17.3330 C.3    10  PRO10       0.0939
     14  N         31.4170   46.7180   13.5450 N.am   11  ASN11      -0.1959
     15  CA        31.5970   47.7100   12.4630 C.3    11  ASN11       0.1819
     16  C         30.5730   47.5050   11.3890 C.2    11  ASN11       0.2621
     17  O         30.1220   46.3430   11.1500 O.2    11  ASN11      -0.2715
     18  CB        33.0280   47.6670   11.8960 C.3    11  ASN11       0.1195
     19  CG        34.0420   48.1130   12.9280 C.2    11  ASN11       0.2630
     20  OD1       33.6940   48.8770   13.8310 O.2    11  ASN11      -0.2716
     21  ND2       35.3000   47.6800   12.7900 N.am   11  ASN11      -0.0877
     22  N         30.2270   48.6000   10.7160 N.am   12  TRP12      -0.1960
     23  CA        29.1820   48.5700    9.7150 C.3    12  TRP12       0.1771
     24  C         29.7290   48.4710    8.2890 C.2    12  TRP12       0.2619
     25  O         30.8300   48.8240    8.0810 O.2    12  TRP12      -0.2715
     26  CB        28.3180   49.8440    9.8050 C.3    12  TRP12       0.0590
     27  CG        27.6530   50.1070   11.0750 C.ar   12  TRP12       0.0006
     28  CD1       27.4820   49.2480   12.1160 C.ar   12  TRP12       0.0946
     29  CD2       26.9890   51.3360   11.4440 C.ar   12  TRP12       0.0152
     30  NE1       26.7700   49.8930   13.1170 N.ar   12  TRP12      -0.2442
     31  CE2       26.4580   51.1610   12.7170 C.ar   12  TRP12       0.0810
     32  CE3       26.8230   52.5810   10.8100 C.ar   12  TRP12       0.0012
     33  CZ2       25.6810   52.1480   13.3630 C.ar   12  TRP12       0.0191
     34  CZ3       26.1110   53.6130   11.5010 C.ar   12  TRP12       0.0001
     35  CH2       25.5450   53.3640   12.7510 C.ar   12  TRP12       0.0015
     36  N         28.9010   47.9930    7.3690 N.am   13  TYR13      -0.1974
     37  CA        29.1360   48.0100    5.9360 C.3    13  TYR13       0.1639
     38  C         30.4150   47.2270    5.5820 C.2    13  TYR13       0.2290
     39  O         31.1360   47.6070    4.6430 O.2    13  TYR13      -0.2864
     40  CB        29.2460   49.4850    5.4750 C.3    13  TYR13       0.0560
     41  CG        27.9420   50.2340    5.6670 C.ar   13  TYR13      -0.0198
     42  CD1       26.8500   49.8720    4.9540 C.ar   13  TYR13      -0.0009
     43  CD2       27.8280   51.3050    6.5290 C.ar   13  TYR13      -0.0009
     44  CE1       25.6180   50.5050    5.0740 C.ar   13  TYR13       0.0417
     45  CE2       26.5790   51.9600    6.6790 C.ar   13  TYR13       0.0417
     46  CZ        25.4960   51.5590    5.9030 C.ar   13  TYR13       0.1957
     47  OH        24.2230   52.1070    5.9320 O.3    13  TYR13      -0.2866
     48  N         35.3930   48.8380   16.0870 N.3    31  ARG31      -0.1231
     49  CA        36.4050   49.8650   16.0040 C.3    31  ARG31       0.1694
     50  C         37.7230   49.2600   15.5360 C.2    31  ARG31       0.2592
     51  O         37.7780   48.6940   14.4320 O.2    31  ARG31      -0.2718
     52  CB        36.6320   50.6140   17.3490 C.3    31  ARG31       0.0321
     53  CG        35.5580   51.4810   17.8730 C.3    31  ARG31       0.0489
     54  CD        36.1330   52.0900   19.1420 C.3    31  ARG31       0.2205
     55  NE        36.6150   53.4310   18.8870 N.pl3  31  ARG31      -0.0865
     56  CZ        37.7090   53.9550   19.4220 C.cat  31  ARG31       0.5346
     57  NH1       38.4770   53.2300   20.2320 N.pl3  31  ARG31       0.1354
     58  NH2       38.0320   55.2110   19.1200 N.pl3  31  ARG31       0.1354
     59  N         38.7740   49.3110   16.3630 N.am   32  THR32      -0.1953
     60  CA        40.1100   48.9060   15.9910 C.3    32  THR32       0.1897
     61  C         40.4700   47.5430   16.6070 C.2    32  THR32       0.2313
     62  O         41.6210   47.0990   16.5350 O.2    32  THR32      -0.2863
     63  CB        41.1440   49.9700   16.3910 C.3    32  THR32       0.1794
     64  OG1       41.2100   50.0500   17.8150 O.3    32  THR32      -0.2208
     65  CG2       40.7460   51.3010   15.8530 C.3    32  THR32       0.0378
     66  N         40.4220   51.1770   11.9410 N.3    64  ARG64      -0.1245
     67  CA        39.2120   50.3630   11.7410 C.3    64  ARG64       0.1563
     68  C         39.5580   48.9360   11.2460 C.2    64  ARG64       0.2260
     69  O         40.2370   48.7630   10.2400 O.2    64  ARG64      -0.2867
     70  CB        38.2390   51.0810   10.7830 C.3    64  ARG64       0.0307
     71  CG        37.0470   50.2310   10.3700 C.3    64  ARG64       0.0489
     72  CD        36.1950   50.9100    9.3170 C.3    64  ARG64       0.2205
     73  NE        36.7820   50.6960    8.0070 N.pl3  64  ARG64      -0.0865
     74  CZ        36.2170   50.1280    6.9530 C.cat  64  ARG64       0.5346
     75  NH1       34.9350   49.7010    6.9470 N.pl3  64  ARG64       0.1354
     76  NH2       36.9630   49.9840    5.8940 N.pl3  64  ARG64       0.1354
     77  N         33.7760   44.2420   -2.9140 N.3   153  PHE153     -0.1241
     78  CA        32.9430   44.2930   -1.7370 C.3   153  PHE153      0.1605
     79  C         33.0160   43.0470   -0.9670 C.2   153  PHE153      0.2264
     80  O         33.0010   43.1290    0.2740 O.2   153  PHE153     -0.2867
     81  CB        31.4630   44.5610   -2.0620 C.3   153  PHE153      0.0534
     82  CG        31.0630   45.9990   -1.9000 C.ar  153  PHE153     -0.0203
     83  CD1       31.8300   47.0290   -2.4970 C.ar  153  PHE153     -0.0042
     84  CD2       29.9670   46.3350   -1.1010 C.ar  153  PHE153     -0.0042
     85  CE1       31.5090   48.3540   -2.3110 C.ar  153  PHE153     -0.0003
     86  CE2       29.6320   47.6720   -0.9510 C.ar  153  PHE153     -0.0003
     87  CZ        30.3920   48.6550   -1.5500 C.ar  153  PHE153     -0.0000
     88  N         25.6740   46.8110   -5.6630 N.3   195  GLU195     -0.1245
     89  CA        26.6920   46.2640   -4.7940 C.3   195  GLU195      0.1567
     90  C         26.3840   44.8000   -4.4250 C.2   195  GLU195      0.2260
     91  O         25.2710   44.4590   -4.0480 O.2   195  GLU195     -0.2867
     92  CB        26.7130   47.0360   -3.4420 C.3   195  GLU195      0.0388
     93  CG        27.0350   48.5210   -3.5820 C.3   195  GLU195      0.1160
     94  CD        26.9120   49.2460   -2.2790 C.2   195  GLU195      0.3649
     95  OE1       26.5290   48.7060   -1.2110 O.co2 195  GLU195     -0.2457
     96  OE2       27.2540   50.4080   -2.2840 O.co2 195  GLU195     -0.2457
     97  N         22.6010   44.8230   -2.8900 N.3   212  LYS212     -0.1245
     98  CA        21.9070   46.0710   -2.6630 C.3   212  LYS212      0.1561
     99  C         20.7270   46.2660   -3.6300 C.2   212  LYS212      0.2260
    100  O         19.8330   46.9820   -3.3240 O.2   212  LYS212     -0.2867
    101  CB        22.9090   47.2580   -2.7510 C.3   212  LYS212      0.0271
    102  CG        22.2660   48.6400   -2.4110 C.3   212  LYS212      0.0035
    103  CD        23.3280   49.7550   -2.5140 C.3   212  LYS212      0.0206
    104  CE        22.8050   51.0450   -1.8930 C.3   212  LYS212      0.1093
    105  NZ        23.3260   52.1770   -2.6490 N.3   212  LYS212     -0.1314
    106  N         18.2950   54.0540    6.1860 N.3   236  GLU236     -0.1231
    107  CA        19.4240   53.4220    5.4830 C.3   236  GLU236      0.1699
    108  C         18.9050   52.6750    4.2720 C.2   236  GLU236      0.2592
    109  O         17.7350   52.4390    4.1630 O.2   236  GLU236     -0.2718
    110  CB        20.1670   52.4490    6.4300 C.3   236  GLU236      0.0402
    111  CG        19.3710   51.1390    6.7750 C.3   236  GLU236      0.1161
    112  CD        18.5550   51.1630    8.0760 C.2   236  GLU236      0.3649
    113  OE1       17.8620   50.1180    8.4550 O.co2 236  GLU236     -0.2457
    114  OE2       18.6220   52.2370    8.7150 O.co2 236  GLU236     -0.2457
    115  N         19.8060   52.2780    3.3900 N.am  237  ARG237     -0.1980
    116  CA        19.4950   51.3860    2.2890 C.3   237  ARG237      0.1597
    117  C         19.7440   49.9630    2.8180 C.2   237  ARG237      0.2287
    118  O         20.1600   49.7790    3.8990 O.2   237  ARG237     -0.2864
    119  CB        20.3640   51.6710    1.0210 C.3   237  ARG237      0.0334
    120  CG        20.2320   53.1090    0.4400 C.3   237  ARG237      0.0492
    121  CD        19.0020   53.2510   -0.4350 C.3   237  ARG237      0.2205
    122  NE        19.0660   52.2730   -1.5350 N.pl3 237  ARG237     -0.0865
    123  CZ        19.5740   52.4920   -2.7570 C.cat 237  ARG237      0.5346
    124  NH1       20.0680   53.7060   -3.0850 N.pl3 237  ARG237      0.1354
    125  NH2       19.5950   51.4860   -3.6590 N.pl3 237  ARG237      0.1354
    126  N         21.2000   46.2700    3.3820 N.3   239  TRP239     -0.1241
    127  CA        22.3840   45.3900    3.2570 C.3   239  TRP239      0.1605
    128  C         21.7980   43.9500    3.2040 C.2   239  TRP239      0.2264
    129  O         21.0190   43.5500    4.0830 O.2   239  TRP239     -0.2867
    130  CB        23.3060   45.5300    4.4570 C.3   239  TRP239      0.0550
    131  CG        24.5860   44.8120    4.2990 C.ar  239  TRP239      0.0003
    132  CD1       24.8670   43.5150    4.6620 C.ar  239  TRP239      0.0946
    133  CD2       25.7720   45.3140    3.6350 C.ar  239  TRP239      0.0152
    134  NE1       26.1890   43.1950    4.2940 N.ar  239  TRP239     -0.2442
    135  CE2       26.7560   44.3090    3.7140 C.ar  239  TRP239      0.0810
    136  CE3       26.0890   46.5440    3.0370 C.ar  239  TRP239      0.0012
    137  CZ2       28.0360   44.4900    3.1970 C.ar  239  TRP239      0.0191
    138  CZ3       27.3990   46.7770    2.6120 C.ar  239  TRP239      0.0001
    139  CH2       28.3430   45.7400    2.6460 C.ar  239  TRP239      0.0015
    140  N         23.3580   47.3970   12.1800 N.3   310  MET310     -0.1245
    141  CA        23.4190   48.8190   12.4240 C.3   310  MET310      0.1570
    142  C         22.6640   49.2610   13.6740 C.2   310  MET310      0.2261
    143  O         22.9390   50.3310   14.1470 O.2   310  MET310     -0.2867
    144  CB        22.8720   49.5660   11.2160 C.3   310  MET310      0.0387
    145  CG        23.1120   51.1080   11.1800 C.3   310  MET310      0.0595
    146  SD        22.3380   51.6780    9.6060 S.3   310  MET310     -0.1393
    147  CE        23.0950   53.2990    9.4310 C.3   310  MET310      0.0692
    148  N         23.1690   48.2080   16.5460 N.3   312  ARG312     -0.1245
    149  CA        24.1280   48.0660   17.6480 C.3   312  ARG312      0.1563
    150  C         23.9030   46.8970   18.5880 C.2   312  ARG312      0.2260
    151  O         24.5670   46.8170   19.5900 O.2   312  ARG312     -0.2867
    152  CB        24.2610   49.3610   18.4570 C.3   312  ARG312      0.0307
    153  CG        24.5910   50.5100   17.4990 C.3   312  ARG312      0.0489
    154  CD        25.0070   51.7810   18.2850 C.3   312  ARG312      0.2205
    155  NE        25.2910   52.9620   17.4290 N.pl3 312  ARG312     -0.0865
    156  CZ        26.4260   53.1550   16.7350 C.cat 312  ARG312      0.5346
    157  NH1       27.3830   52.2250   16.6990 N.pl3 312  ARG312      0.1354
    158  NH2       26.6060   54.2700   15.9980 N.pl3 312  ARG312      0.1354
    159  N         28.3340   52.8260   20.4880 N.3   332  GLY332     -0.1210
    160  CA        28.9200   53.4730   19.3160 C.3   332  GLY332      0.1956
    161  C         29.6880   54.7760   19.5740 C.2   332  GLY332      0.2612
    162  O         29.9720   55.5100   18.6220 O.2   332  GLY332     -0.2717
    163  N         29.9670   55.0990   20.8570 N.am  333  GLY333     -0.1942
    164  CA        30.7290   56.2430   21.2080 C.3   333  GLY333      0.2014
    165  C         31.3230   56.1340   22.5710 C.2   333  GLY333      0.2638
    166  O         31.1890   55.1050   23.2230 O.2   333  GLY333     -0.2714
    167  N         31.9620   57.2170   23.0260 N.am  334  PHE334     -0.1973
    168  CA        32.6080   57.1840   24.3130 C.3   334  PHE334      0.1639
    169  C         31.4910   56.9490   25.3600 C.2   334  PHE334      0.2290
    170  O         30.3740   57.4210   25.1520 O.2   334  PHE334     -0.2864
    171  CB        33.2560   58.4850   24.6880 C.3   334  PHE334      0.0560
    172  CG        34.3570   58.9740   23.7580 C.ar  334  PHE334     -0.0200
    173  CD1       34.8750   58.1940   22.7200 C.ar  334  PHE334     -0.0042
    174  CD2       34.9010   60.2520   23.9950 C.ar  334  PHE334     -0.0042
    175  CE1       35.9270   58.6850   21.9190 C.ar  334  PHE334     -0.0003
    176  CE2       35.9720   60.7390   23.2020 C.ar  334  PHE334     -0.0003
    177  CZ        36.4930   59.9390   22.1850 C.ar  334  PHE334     -0.0000
    178  N         30.5570   58.4570   28.4430 N.3   336  TYR336     -0.1241
    179  CA        30.8840   59.6900   29.0880 C.3   336  TYR336      0.1605
    180  C         30.4290   59.7020   30.5110 C.2   336  TYR336      0.2264
    181  O         31.0880   60.3280   31.3760 O.2   336  TYR336     -0.2867
    182  CB        30.1670   60.8750   28.4520 C.3   336  TYR336      0.0534
    183  CG        30.7710   61.2930   27.1420 C.ar  336  TYR336     -0.0201
    184  CD1       31.9150   62.1040   27.1050 C.ar  336  TYR336     -0.0009
    185  CD2       30.1690   60.9290   25.9380 C.ar  336  TYR336     -0.0009
    186  CE1       32.5270   62.4830   25.9250 C.ar  336  TYR336      0.0417
    187  CE2       30.7320   61.3120   24.7430 C.ar  336  TYR336      0.0417
    188  CZ        31.8950   62.1320   24.7440 C.ar  336  TYR336      0.1957
    189  OH        32.4630   62.4850   23.5460 O.3   336  TYR336     -0.2866
    190  N         28.4650   58.7140   23.3600 N.3   353  GLY353     -0.1210
    191  CA        28.6970   59.6580   22.2420 C.3   353  GLY353      0.1956
    192  C         28.0480   59.3010   20.9140 C.2   353  GLY353      0.2611
    193  O         28.2130   60.0420   19.9910 O.2   353  GLY353     -0.2717
    194  N         27.2790   58.2140   20.8310 N.am  354  ASP354     -0.1973
    195  CA        26.4460   57.9410   19.6610 C.3   354  ASP354      0.1709
    196  C         25.0360   58.5540   19.7720 C.2   354  ASP354      0.2293
    197  O         24.1460   58.1420   19.0630 O.2   354  ASP354     -0.2864
    198  CB        26.3690   56.4530   19.4090 C.3   354  ASP354      0.1436
    199  CG        25.8100   55.6700   20.5440 C.2   354  ASP354      0.3671
    200  OD1       25.1370   56.2550   21.4580 O.co2 354  ASP354     -0.2456
    201  OD2       26.0480   54.4420   20.5140 O.co2 354  ASP354     -0.2456
    202  N         26.0490   63.9790   21.6030 N.3   381  LYS381     -0.1245
    203  CA        26.8000   63.1720   22.5670 C.3   381  LYS381      0.1561
    204  C         26.2950   63.4900   23.9790 C.2   381  LYS381      0.2260
    205  O         26.2550   64.6250   24.4020 O.2   381  LYS381     -0.2867
    206  CB        28.2500   63.4370   22.4660 C.3   381  LYS381      0.0271
    207  CG        28.7960   63.2540   21.0490 C.3   381  LYS381      0.0035
    208  CD        30.2320   63.7400   20.9840 C.3   381  LYS381      0.0206
    209  CE        30.8030   63.5390   19.5700 C.3   381  LYS381      0.1093
    210  NZ        32.1390   64.2080   19.5660 N.3   381  LYS381     -0.1314
    211  N         34.9330   53.1900   24.0750 N.3   650  PHE650     -0.1241
    212  CA        33.5500   52.8140   23.7970 C.3   650  PHE650      0.1605
    213  C         33.1140   51.6080   24.6200 C.2   650  PHE650      0.2264
    214  O         32.2590   50.8280   24.1620 O.2   650  PHE650     -0.2867
    215  CB        33.2960   52.4180   22.3360 C.3   650  PHE650      0.0534
    216  CG        33.5270   53.4810   21.3010 C.ar  650  PHE650     -0.0203
    217  CD1       34.4440   54.4970   21.4430 C.ar  650  PHE650     -0.0042
    218  CD2       32.8450   53.3890   20.0900 C.ar  650  PHE650     -0.0042
    219  CE1       34.6060   55.4590   20.4190 C.ar  650  PHE650     -0.0003
    220  CE2       33.0390   54.3310   19.0500 C.ar  650  PHE650     -0.0003
    221  CZ        33.9140   55.3610   19.2500 C.ar  650  PHE650     -0.0000
@<TRIPOS>BOND
     1    88    89    1
     2    89    90    1
     3    89    92    1
     4    90    91    2
     5   125   123    1
     6    99   100    2
     7    99    98    1
     8    93    92    1
     9    93    94    1
    10   124   123    1
    11    77    78    1
    12    97    98    1
    13   123   122    2
    14   101    98    1
    15   101   102    1
    16   105   104    1
    17   103   102    1
    18   103   104    1
    19    83    85   ar
    20    83    82   ar
    21    85    87   ar
    22    96    94   ar
    23    94    95   ar
    24    81    82    1
    25    81    78    1
    26    82    84   ar
    27    78    79    1
    28    87    86   ar
    29   122   121    1
    30    84    86   ar
    31    79    80    2
    32   121   120    1
    33   120   119    1
    34   119   116    1
    35   116   117    1
    36   116   115    1
    37   138   139   ar
    38   138   136   ar
    39   139   137   ar
    40   117   118    2
    41   136   133   ar
    42   137   135   ar
    43   128   127    1
    44   128   129    2
    45   127   126    1
    46   127   130    1
    47   115   108   am
    48   133   135   ar
    49   133   131   ar
    50   135   134   ar
    51   109   108    2
    52   108   107    1
    53   134   132   ar
    54   131   130    1
    55   131   132   ar
    56    39    38    2
    57    42    44   ar
    58    42    41   ar
    59    44    46   ar
    60    40    41    1
    61    40    37    1
    62   107   106    1
    63   107   110    1
    64    38    37    1
    65    41    43   ar
    66    76    74    1
    67    46    47    1
    68    46    45   ar
    69    37    36    1
    70   110   111    1
    71    43    45   ar
    72   111   112    1
    73    75    74    1
    74    74    73    2
    75    36    24   am
    76    73    72    1
    77   112   113   ar
    78   112   114   ar
    79    25    24    2
    80    24    23    1
    81    72    71    1
    82   147   146    1
    83   146   145    1
    84    23    26    1
    85    23    22    1
    86    26    27    1
    87    69    68    2
    88    71    70    1
    89    22    16   am
    90    70    67    1
    91    32    29   ar
    92    32    34   ar
    93    27    29   ar
    94    27    28   ar
    95    17    16    2
    96   145   144    1
    97   144   141    1
    98    68    67    1
    99    16    15    1
   100    29    31   ar
   101    34    35   ar
   102    67    66    1
   103    18    15    1
   104    18    19    1
   105    28    30   ar
   106   140   141    1
   107   141   142    1
   108    15    14    1
   109    31    30   ar
   110    31    33   ar
   111    35    33   ar
   112    21    19   am
   113    19    20    2
   114    14     9   am
   115   142   143    2
   116    10     9    2
   117     9     8    1
   118    51    50    2
   119    11     8    1
   120    11    12    1
   121     8     7    1
   122    50    49    1
   123    50    59   am
   124    65    63    1
   125    60    59    1
   126    60    63    1
   127    60    61    1
   128   158   156    1
   129    49    48    1
   130    49    52    1
   131    63    64    1
   132    62    61    2
   133   148   149    1
   134    12    13    1
   135     4     3    2
   136   157   156    1
   137     7     3   am
   138     7    13    1
   139   156   155    2
   140     3     2    1
   141    52    53    1
   142   155   154    1
   143   153   154    1
   144   153   152    1
   145   149   152    1
   146   149   150    1
   147     5     2    1
   148     5     6    1
   149    53    54    1
   150     2     1    1
   151   150   151    2
   152   162   161    2
   153    55    54    1
   154    55    56    2
   155   220   221   ar
   156   220   218   ar
   157   197   196    2
   158    58    56    1
   159   221   219   ar
   160   160   161    1
   161   160   159    1
   162   198   195    1
   163   198   199    1
   164    56    57    1
   165   210   209    1
   166   209   208    1
   167   161   163   am
   168   195   196    1
   169   195   194    1
   170   193   192    2
   171   218   216   ar
   172   219   217   ar
   173   201   199   ar
   174   199   200   ar
   175   194   192   am
   176   163   164    1
   177   192   191    1
   178   208   207    1
   179   207   206    1
   180   164   165    1
   181   216   217   ar
   182   216   215    1
   183   202   203    1
   184   175   177   ar
   185   175   173   ar
   186   177   176   ar
   187   191   190    1
   188   215   212    1
   189   206   203    1
   190   203   204    1
   191   165   167   am
   192   165   166    2
   193   173   172   ar
   194   167   168    1
   195   176   174   ar
   196   189   188    1
   197   172   174   ar
   198   172   171    1
   199   212   211    1
   200   212   213    1
   201   204   205    2
   202   214   213    2
   203   168   171    1
   204   168   169    1
   205   187   188   ar
   206   187   185   ar
   207   188   186   ar
   208   170   169    2
   209   186   184   ar
   210   185   183   ar
   211   184   183   ar
   212   183   182    1
   213   178   179    1
   214   182   179    1
   215   179   180    1
   216   180   181    2
