@<TRIPOS>MOLECULE
tmp/5gxuA00.pdb
 178 172 0 0 0
SMALL
GASTEIGER

@<TRIPOS>ATOM
      1  N         29.6190   16.5710   31.2690 N.3     9  THR9       -0.1203
      2  CA        28.1950   16.5730   30.9720 C.3     9  THR9        0.1994
      3  C         27.9320   16.0300   29.5700 C.2     9  THR9        0.2618
      4  O         28.8040   16.0730   28.6980 O.2     9  THR9       -0.2717
      5  CB        27.6220   18.0100   31.0810 C.3     9  THR9        0.1784
      6  OG1       26.1960   17.9670   31.1180 O.3     9  THR9       -0.2211
      7  CG2       28.0720   18.8760   29.8970 C.3     9  THR9        0.0376
      8  N         26.7320   15.5070   29.3490 N.am   10  GLN10      -0.1965
      9  CA        26.3280   15.1450   27.9970 C.3    10  GLN10       0.1733
     10  C         25.1670   16.0110   27.5120 C.2    10  GLN10       0.2617
     11  O         25.2540   16.6300   26.4540 O.2    10  GLN10      -0.2715
     12  CB        25.9670   13.6640   27.8940 C.3    10  GLN10       0.0408
     13  CG        25.6120   13.2360   26.4740 C.3    10  GLN10       0.0908
     14  CD        25.2240   11.7730   26.3800 C.2    10  GLN10       0.2608
     15  OE1       24.2210   11.4250   25.7520 O.2    10  GLN10      -0.2717
     16  NE2       26.0170   10.9070   27.0030 N.am   10  GLN10      -0.0878
     17  N         24.0890   16.0600   28.2910 N.am   11  THR11      -0.1937
     18  CA        22.9070   16.8400   27.9180 C.3    11  THR11       0.2028
     19  C         22.9000   18.2690   28.4980 C.2    11  THR11       0.2643
     20  O         22.0570   19.0870   28.1290 O.2    11  THR11      -0.2714
     21  CB        21.5810   16.1070   28.2780 C.3    11  THR11       0.1808
     22  OG1       21.4340   16.0230   29.7020 O.3    11  THR11      -0.2208
     23  CG2       21.5540   14.6960   27.6730 C.3    11  THR11       0.0379
     24  N         23.8240   18.5590   29.4130 N.am   12  GLY12      -0.1939
     25  CA        24.0270   19.9250   29.8710 C.3    12  GLY12       0.2014
     26  C         23.6230   20.2620   31.2970 C.2    12  GLY12       0.2640
     27  O         23.8400   21.3890   31.7430 O.2    12  GLY12      -0.2714
     28  N         23.0380   19.2990   32.0110 N.am   13  THR13      -0.1936
     29  CA        22.6100   19.5120   33.3970 C.3    13  THR13       0.2028
     30  C         23.7820   19.7880   34.3450 C.2    13  THR13       0.2642
     31  O         23.7410   20.7370   35.1300 O.2    13  THR13      -0.2714
     32  CB        21.8070   18.3120   33.9390 C.3    13  THR13       0.1808
     33  OG1       20.7700   17.9670   33.0120 O.3    13  THR13      -0.2208
     34  CG2       21.1830   18.6580   35.2820 C.3    13  THR13       0.0379
     35  N         24.8190   18.9530   34.2700 N.am   14  ALA14      -0.1977
     36  CA        26.0360   19.1430   35.0640 C.3    14  ALA14       0.1597
     37  C         26.6750   20.5130   34.8100 C.2    14  ALA14       0.2287
     38  O         27.1950   21.1500   35.7340 O.2    14  ALA14      -0.2864
     39  CB        27.0370   18.0260   34.7810 C.3    14  ALA14       0.0319
     40  N         28.7650   13.8390   35.6960 N.3    64  ALA64      -0.1231
     41  CA        27.6230   12.9880   35.3970 C.3    64  ALA64       0.1694
     42  C         28.1040   11.6110   34.9500 C.2    64  ALA64       0.2593
     43  O         29.0970   11.4940   34.2220 O.2    64  ALA64      -0.2718
     44  CB        26.7290   13.6250   34.3340 C.3    64  ALA64       0.0304
     45  N         27.3930   10.5790   35.4020 N.am   65  THR65      -0.1939
     46  CA        27.7350    9.1890   35.1250 C.3    65  THR65       0.2028
     47  C         26.8610    8.6340   34.0020 C.2    65  THR65       0.2642
     48  O         25.6380    8.7740   34.0380 O.2    65  THR65      -0.2714
     49  CB        27.5140    8.3050   36.3780 C.3    65  THR65       0.1808
     50  OG1       28.3720    8.7300   37.4440 O.3    65  THR65      -0.2208
     51  CG2       27.8000    6.8590   36.0620 C.3    65  THR65       0.0379
     52  N         27.4840    8.0030   33.0090 N.am   66  TYR66      -0.1959
     53  CA        26.7310    7.3720   31.9250 C.3    66  TYR66       0.1774
     54  C         27.0560    5.8910   31.7520 C.2    66  TYR66       0.2659
     55  O         27.8570    5.3350   32.5070 O.2    66  TYR66      -0.2711
     56  CB        26.9370    8.1180   30.6070 C.3    66  TYR66       0.0574
     57  CG        26.0320    9.3140   30.4540 C.ar   66  TYR66      -0.0198
     58  CD1       24.8200    9.2090   29.7880 C.ar   66  TYR66      -0.0009
     59  CD2       26.3810   10.5460   30.9880 C.ar   66  TYR66      -0.0009
     60  CE1       23.9870   10.2980   29.6480 C.ar   66  TYR66       0.0417
     61  CE2       25.5530   11.6430   30.8530 C.ar   66  TYR66       0.0417
     62  CZ        24.3550   11.5120   30.1820 C.ar   66  TYR66       0.1957
     63  OH        23.5210   12.5970   30.0400 O.3    66  TYR66      -0.2866
     64  N         26.4120    5.2840   30.7520 N.am   67  GLY67      -0.1716
     65  CA        26.5070    3.8660   30.4190 C.2    67  GLY67       0.1480
     66  C         27.4520    2.9610   31.1920 C.2    67  GLY67       0.2820
     67  O         28.6710    3.0580   31.0470 O.2    67  GLY67      -0.2669
     68  N         26.8770    2.0740   32.0030 N.am   68  ASP68      -0.1923
     69  CA        27.6390    1.1410   32.8370 C.3    68  ASP68       0.1843
     70  C         28.5890    1.8320   33.8120 C.2    68  ASP68       0.2622
     71  O         29.6310    1.2850   34.1480 O.2    68  ASP68      -0.2715
     72  CB        28.4140    0.1310   31.9830 C.3    68  ASP68       0.1450
     73  CG        29.1420   -0.8810   32.8850 C.2    68  ASP68       0.3671
     74  OD1       28.6450   -1.2770   33.9850 O.co2  68  ASP68      -0.2456
     75  OD2       30.2310   -1.2720   32.4880 O.co2  68  ASP68      -0.2456
     76  N         28.2270    3.0300   34.2630 N.am   69  GLY69      -0.1954
     77  CA        29.0180    3.7410   35.2520 C.3    69  GLY69       0.1869
     78  C         30.2510    4.4620   34.7260 C.2    69  GLY69       0.2309
     79  O         31.1670    4.7610   35.4930 O.2    69  GLY69      -0.2863
     80  N         26.0800   13.7280   39.4370 N.3   102  LEU102     -0.1231
     81  CA        24.8470   13.6490   38.6630 C.3   102  LEU102      0.1693
     82  C         24.6010   12.1840   38.3140 C.2   102  LEU102      0.2593
     83  O         25.3460   11.6010   37.5260 O.2   102  LEU102     -0.2718
     84  CB        24.9660   14.4530   37.3640 C.3   102  LEU102      0.0284
     85  CG        25.0360   15.9830   37.2760 C.3   102  LEU102      0.0019
     86  CD1       23.6970   16.6070   37.5720 C.3   102  LEU102      0.0001
     87  CD2       26.1200   16.5880   38.1600 C.3   102  LEU102      0.0001
     88  N         23.5620   11.5920   38.8980 N.am  103  GLY103     -0.1942
     89  CA        23.2870   10.1830   38.6900 C.3   103  GLY103      0.2014
     90  C         21.8150    9.8290   38.6020 C.2   103  GLY103      0.2638
     91  O         20.9570   10.6930   38.4370 O.2   103  GLY103     -0.2714
     92  N         21.5340    8.5350   38.7040 N.am  104  ASN104     -0.1972
     93  CA        20.1740    8.0240   38.6420 C.3   104  ASN104      0.1688
     94  C         20.1170    6.6580   39.3200 C.2   104  ASN104      0.2292
     95  O         20.7160    5.6920   38.8470 O.2   104  ASN104     -0.2864
     96  CB        19.7010    7.9340   37.1890 C.3   104  ASN104      0.1181
     97  CG        18.2030    7.6980   37.0700 C.2   104  ASN104      0.2629
     98  OD1       17.6430    6.8190   37.7240 O.2   104  ASN104     -0.2716
     99  ND2       17.5470    8.4910   36.2290 N.am  104  ASN104     -0.0877
    100  N         19.9410    2.9030   37.9860 N.3   107  TYR107     -0.1241
    101  CA        21.0680    2.2180   37.3510 C.3   107  TYR107      0.1605
    102  C         21.9120    1.4320   38.3430 C.2   107  TYR107      0.2264
    103  O         22.0060    1.7920   39.5190 O.2   107  TYR107     -0.2867
    104  CB        21.9650    3.2110   36.5990 C.3   107  TYR107      0.0534
    105  CG        21.3230    3.8020   35.3710 C.ar  107  TYR107     -0.0201
    106  CD1       21.6260    3.3200   34.1030 C.ar  107  TYR107     -0.0009
    107  CD2       20.4020    4.8360   35.4790 C.ar  107  TYR107     -0.0009
    108  CE1       21.0310    3.8630   32.9750 C.ar  107  TYR107      0.0417
    109  CE2       19.8070    5.3860   34.3630 C.ar  107  TYR107      0.0417
    110  CZ        20.1220    4.8990   33.1120 C.ar  107  TYR107      0.1957
    111  OH        19.5200    5.4560   32.0040 O.3   107  TYR107     -0.2866
    112  N         25.2360    1.1680   38.5660 N.3   109  HIS109     -0.1226
    113  CA        26.3170    1.9790   39.1170 C.3   109  HIS109      0.1752
    114  C         25.8860    3.4260   39.3410 C.2   109  HIS109      0.2596
    115  O         26.1700    4.3100   38.5300 O.2   109  HIS109     -0.2718
    116  CB        27.5450    1.9070   38.2060 C.3   109  HIS109      0.0759
    117  CG        28.0060    0.5090   37.9350 C.ar  109  HIS109      0.0818
    118  ND1       28.6890   -0.2440   38.8670 N.ar  109  HIS109     -0.2268
    119  CD2       27.8680   -0.2800   36.8420 C.ar  109  HIS109      0.1154
    120  CE1       28.9560   -1.4340   38.3590 C.ar  109  HIS109      0.1986
    121  NE2       28.4680   -1.4820   37.1310 N.ar  109  HIS109     -0.2212
    122  N         25.1940    3.6530   40.4530 N.am  110  PHE110     -0.1962
    123  CA        24.6780    4.9710   40.7940 C.3   110  PHE110      0.1771
    124  C         25.8070    5.9280   41.1780 C.2   110  PHE110      0.2619
    125  O         26.5950    5.6420   42.0840 O.2   110  PHE110     -0.2715
    126  CB        23.6460    4.8620   41.9230 C.3   110  PHE110      0.0574
    127  CG        23.2090    6.1890   42.4770 C.ar  110  PHE110     -0.0200
    128  CD1       22.5650    7.1140   41.6700 C.ar  110  PHE110     -0.0042
    129  CD2       23.4350    6.5100   43.8050 C.ar  110  PHE110     -0.0042
    130  CE1       22.1600    8.3380   42.1770 C.ar  110  PHE110     -0.0003
    131  CE2       23.0310    7.7320   44.3180 C.ar  110  PHE110     -0.0003
    132  CZ        22.3930    8.6450   43.5030 C.ar  110  PHE110     -0.0000
    133  N         25.8800    7.0560   40.4740 N.am  111  ASN111     -0.1972
    134  CA        26.9170    8.0690   40.6930 C.3   111  ASN111      0.1688
    135  C         28.3510    7.5360   40.8200 C.2   111  ASN111      0.2292
    136  O         29.1570    8.0730   41.5830 O.2   111  ASN111     -0.2864
    137  CB        26.5590    8.9610   41.8830 C.3   111  ASN111      0.1181
    138  CG        25.9070   10.2530   41.4500 C.2   111  ASN111      0.2629
    139  OD1       26.3290   10.8690   40.4730 O.2   111  ASN111     -0.2716
    140  ND2       24.8660   10.6640   42.1610 N.am  111  ASN111     -0.0877
    141  N         18.2840   11.4030   39.0750 N.3   137  ASP137     -0.1239
    142  CA        17.4090   12.0370   38.1030 C.3   137  ASP137      0.1674
    143  C         15.9820   11.4890   38.1030 C.2   137  ASP137      0.2266
    144  O         15.0800   12.1300   37.5720 O.2   137  ASP137     -0.2867
    145  CB        18.0180   11.9320   36.7020 C.3   137  ASP137      0.1410
    146  CG        17.8390   13.2030   35.8930 C.2   137  ASP137      0.3668
    147  OD1       17.1070   14.1050   36.3570 O.co2 137  ASP137     -0.2456
    148  OD2       18.4260   13.2940   34.7920 O.co2 137  ASP137     -0.2456
    149  N         16.6910   16.0550   41.1650 N.3   141  ILE141     -0.1245
    150  CA        18.1330   16.2680   41.2470 C.3   141  ILE141      0.1561
    151  C         18.4760   17.7030   41.6510 C.2   141  ILE141      0.2260
    152  O         19.4980   17.9500   42.2900 O.2   141  ILE141     -0.2867
    153  CB        18.8460   15.8800   39.9230 C.3   141  ILE141      0.0252
    154  CG1       20.3570   15.7560   40.1380 C.3   141  ILE141      0.0019
    155  CG2       18.5180   16.8720   38.8090 C.3   141  ILE141      0.0019
    156  CD1       21.0460   14.9470   39.0730 C.3   141  ILE141      0.0001
    157  N         14.6170   13.5850   26.9130 N.3   292  SER292     -0.1217
    158  CA        15.3000   12.2970   26.8060 C.3   292  SER292      0.1889
    159  C         14.8190   11.4730   25.6140 C.2   292  SER292      0.2288
    160  O         15.6110   10.7680   24.9810 O.2   292  SER292     -0.2866
    161  CB        15.1230   11.4790   28.0900 C.3   292  SER292      0.2089
    162  OG        15.7220   12.1300   29.2000 O.3   292  SER292     -0.2183
    163  N         17.3570   13.0760   22.7940 N.3   296  VAL296     -0.1245
    164  CA        18.5390   12.2510   23.0460 C.3   296  VAL296      0.1561
    165  C         18.4230   10.8460   22.4730 C.2   296  VAL296      0.2260
    166  O         19.3560   10.3520   21.8400 O.2   296  VAL296     -0.2867
    167  CB        18.8570   12.1610   24.5570 C.3   296  VAL296      0.0252
    168  CG1       20.2000   11.4790   24.7940 C.3   296  VAL296      0.0019
    169  CG2       18.8670   13.5370   25.1680 C.3   296  VAL296      0.0019
    170  N         30.9230    0.5600   24.3660 N.3   509  LYS509     -0.1245
    171  CA        29.5890    0.2160   24.8590 C.3   509  LYS509      0.1561
    172  C         29.3080   -1.2830   24.9500 C.2   509  LYS509      0.2260
    173  O         28.7090   -1.7380   25.9220 O.2   509  LYS509     -0.2867
    174  CB        28.5110    0.8870   24.0000 C.3   509  LYS509      0.0271
    175  CG        28.3370    2.3690   24.2680 C.3   509  LYS509      0.0035
    176  CD        27.8190    2.6050   25.6790 C.3   509  LYS509      0.0206
    177  CE        27.9890    4.0600   26.0870 C.3   509  LYS509      0.1093
    178  NZ        27.5440    4.9820   25.0020 N.3   509  LYS509     -0.1314
@<TRIPOS>BOND
     1   166   165    2
     2   165   164    1
     3   163   164    1
     4   164   167    1
     5   174   175    1
     6   174   171    1
     7   175   176    1
     8   170   171    1
     9   167   168    1
    10   167   169    1
    11   171   172    1
    12   172   173    2
    13   160   159    2
    14   178   177    1
    15   159   158    1
    16   176   177    1
    17    15    14    2
    18    14    13    1
    19    14    16   am
    20    11    10    2
    21    13    12    1
    22   158   157    1
    23   158   161    1
    24    10     9    1
    25    10    17   am
    26    23    21    1
    27    12     9    1
    28    18    21    1
    29    18    17    1
    30    18    19    1
    31     9     8    1
    32   161   162    1
    33    20    19    2
    34    21    22    1
    35    19    24   am
    36     4     3    2
    37     8     3   am
    38    24    25    1
    39     3     2    1
    40    60    58   ar
    41    60    62   ar
    42    58    57   ar
    43    25    26    1
    44     7     5    1
    45    63    62    1
    46    62    61   ar
    47    65    64    2
    48    65    66    1
    49    57    56    1
    50    57    59   ar
    51    56    53    1
    52    64    54    1
    53    61    59   ar
    54     2     5    1
    55     2     1    1
    56    67    66    2
    57     5     6    1
    58    66    68   am
    59    26    27    2
    60    26    28   am
    61    54    53    1
    62    54    55    2
    63    53    52    1
    64    72    69    1
    65    72    73    1
    66    68    69    1
    67   111   110    1
    68    28    29    1
    69    75    73   ar
    70    69    70    1
    71    73    74   ar
    72   108   110   ar
    73   108   106   ar
    74    52    47   am
    75    33    32    1
    76   110   109   ar
    77    29    32    1
    78    29    30    1
    79    70    71    2
    80    70    76   am
    81    32    34    1
    82    47    48    2
    83    47    46    1
    84   106   105   ar
    85    43    42    2
    86    76    77    1
    87    35    30   am
    88    35    36    1
    89    44    41    1
    90    30    31    2
    91   109   107   ar
    92    78    77    1
    93    78    79    2
    94    39    36    1
    95   148   146   ar
    96    37    36    1
    97    37    38    2
    98    42    41    1
    99    42    45   am
   100    46    45    1
   101    46    49    1
   102   105   107   ar
   103   105   104    1
   104    41    40    1
   105   146   147   ar
   106   146   145    1
   107    51    49    1
   108    99    97   am
   109    49    50    1
   110   104   101    1
   111   145   142    1
   112   119   121   ar
   113   119   117   ar
   114    97    96    1
   115    97    98    2
   116   121   120   ar
   117    96    93    1
   118    85    84    1
   119    85    86    1
   120    85    87    1
   121   101   100    1
   122   101   102    1
   123    84    81    1
   124    83    82    2
   125   144   143    2
   126   117   116    1
   127   117   118   ar
   128   143   142    1
   129   142   141    1
   130   116   113    1
   131    82    81    1
   132    82    88   am
   133   102   103    2
   134   120   118   ar
   135    91    90    2
   136   115   114    2
   137   112   113    1
   138    90    89    1
   139    90    92   am
   140    93    92    1
   141    93    94    1
   142    81    80    1
   143    89    88    1
   144   155   153    1
   145    95    94    2
   146   156   154    1
   147   113   114    1
   148   114   122   am
   149   153   154    1
   150   153   150    1
   151   122   123    1
   152   139   138    2
   153   133   134    1
   154   133   124   am
   155   134   135    1
   156   134   137    1
   157   123   124    1
   158   123   126    1
   159   135   136    2
   160   149   150    1
   161   124   125    2
   162   150   151    1
   163   138   137    1
   164   138   140   am
   165   151   152    2
   166   128   130   ar
   167   128   127   ar
   168   126   127    1
   169   130   132   ar
   170   127   129   ar
   171   132   131   ar
   172   129   131   ar
