@<TRIPOS>MOLECULE
tmp/5gxxA00.pdb
 109 107 0 0 0
SMALL
GASTEIGER

@<TRIPOS>ATOM
      1  N        -16.7480   45.0850   24.9550 N.3    47  ASP47      -0.1225
      2  CA       -17.0720   45.1160   26.3770 C.3    47  ASP47       0.1805
      3  C        -15.8630   45.0430   27.3120 C.2    47  ASP47       0.2597
      4  O        -15.7230   45.8550   28.2440 O.2    47  ASP47      -0.2718
      5  CB       -18.0380   43.9780   26.7170 C.3    47  ASP47       0.1424
      6  CG       -18.3970   43.9710   28.1840 C.2    47  ASP47       0.3668
      7  OD1      -19.0480   44.9380   28.6470 O.co2  47  ASP47      -0.2456
      8  OD2      -18.0010   42.9970   28.8700 O.co2  47  ASP47      -0.2456
      9  N        -14.9850   44.0910   27.0410 N.am   48  ALA48      -0.1979
     10  CA       -13.9610   43.7400   28.0100 C.3    48  ALA48       0.1597
     11  C        -12.6970   43.4340   27.2130 C.2    48  ALA48       0.2287
     12  O        -12.3190   44.2540   26.3730 O.2    48  ALA48      -0.2864
     13  CB       -14.3970   42.5850   28.9150 C.3    48  ALA48       0.0319
     14  N        -12.6010   41.1460   25.1670 N.3    50  ASP50      -0.1239
     15  CA       -13.2690   40.4330   24.0890 C.3    50  ASP50       0.1674
     16  C        -13.7400   41.4040   23.0190 C.2    50  ASP50       0.2266
     17  O        -13.3660   42.5740   23.0000 O.2    50  ASP50      -0.2867
     18  CB       -14.4580   39.6360   24.6500 C.3    50  ASP50       0.1410
     19  CG       -15.5230   40.5150   25.2800 C.2    50  ASP50       0.3668
     20  OD1      -15.2420   41.7210   25.4680 O.co2  50  ASP50      -0.2456
     21  OD2      -16.6450   40.0050   25.5590 O.co2  50  ASP50      -0.2456
     22  N        -21.9910   44.3850   24.2120 N.3    54  PHE54      -0.1241
     23  CA       -23.0570   44.0250   25.1450 C.3    54  PHE54       0.1605
     24  C        -23.7140   45.3120   25.6200 C.2    54  PHE54       0.2264
     25  O        -23.1300   46.0230   26.4350 O.2    54  PHE54      -0.2867
     26  CB       -22.5280   43.2980   26.3850 C.3    54  PHE54       0.0534
     27  CG       -22.1780   41.8420   26.1830 C.ar   54  PHE54      -0.0203
     28  CD1      -23.1650   40.9000   25.9350 C.ar   54  PHE54      -0.0042
     29  CD2      -20.8740   41.3900   26.3980 C.ar   54  PHE54      -0.0042
     30  CE1      -22.8350   39.5460   25.8320 C.ar   54  PHE54      -0.0003
     31  CE2      -20.5260   40.0430   26.2920 C.ar   54  PHE54      -0.0003
     32  CZ       -21.5230   39.1060   26.0120 C.ar   54  PHE54      -0.0000
     33  N        -15.5870   34.4700   22.6190 N.3   116  HIS116     -0.1241
     34  CA       -14.6520   34.1450   23.6890 C.3   116  HIS116      0.1621
     35  C        -13.7870   32.9360   23.3920 C.2   116  HIS116      0.2264
     36  O        -12.6940   32.8030   23.9410 O.2   116  HIS116     -0.2867
     37  CB       -15.4270   33.9690   24.9980 C.3   116  HIS116      0.0745
     38  CG       -16.0120   35.2520   25.4930 C.ar  116  HIS116      0.0817
     39  ND1      -16.6670   35.3520   26.6990 N.ar  116  HIS116     -0.2268
     40  CD2      -16.0230   36.4910   24.9480 C.ar  116  HIS116      0.1154
     41  CE1      -17.0680   36.6000   26.8740 C.ar  116  HIS116      0.1986
     42  NE2      -16.6800   37.3120   25.8320 N.ar  116  HIS116     -0.2212
     43  N        -25.8810   34.4230   30.7670 N.3   186  GLY186     -0.1210
     44  CA       -24.6490   33.8170   31.2360 C.3   186  GLY186      0.1956
     45  C        -23.4750   34.7770   31.1350 C.2   186  GLY186      0.2612
     46  O        -22.4240   34.4620   31.6820 O.2   186  GLY186     -0.2717
     47  N        -23.6620   35.9250   30.4830 N.am  187  PHE187     -0.1962
     48  CA       -22.6180   36.9540   30.3920 C.3   187  PHE187      0.1771
     49  C        -23.0670   38.1960   31.1630 C.2   187  PHE187      0.2619
     50  O        -22.4380   38.6000   32.1480 O.2   187  PHE187     -0.2715
     51  CB       -22.2960   37.2870   28.9250 C.3   187  PHE187      0.0574
     52  CG       -21.8520   36.0960   28.1120 C.ar  187  PHE187     -0.0200
     53  CD1      -20.5390   35.6470   28.1550 C.ar  187  PHE187     -0.0042
     54  CD2      -22.7720   35.3820   27.3520 C.ar  187  PHE187     -0.0042
     55  CE1      -20.1260   34.5390   27.4180 C.ar  187  PHE187     -0.0003
     56  CE2      -22.3750   34.2630   26.6200 C.ar  187  PHE187     -0.0003
     57  CZ       -21.0480   33.8350   26.6450 C.ar  187  PHE187     -0.0000
     58  N        -24.1990   38.7500   30.7410 N.am  188  TYR188     -0.1974
     59  CA       -24.8510   39.8750   31.4100 C.3   188  TYR188      0.1639
     60  C        -26.3610   39.6120   31.5770 C.2   188  TYR188      0.2290
     61  O        -27.1980   40.3980   31.1350 O.2   188  TYR188     -0.2864
     62  CB       -24.5740   41.1780   30.6450 C.3   188  TYR188      0.0560
     63  CG       -23.1170   41.5960   30.7630 C.ar  188  TYR188     -0.0198
     64  CD1      -22.6460   42.2160   31.9180 C.ar  188  TYR188     -0.0009
     65  CD2      -22.2050   41.3490   29.7410 C.ar  188  TYR188     -0.0009
     66  CE1      -21.3070   42.5750   32.0560 C.ar  188  TYR188      0.0417
     67  CE2      -20.8530   41.7120   29.8700 C.ar  188  TYR188      0.0417
     68  CZ       -20.4240   42.3360   31.0230 C.ar  188  TYR188      0.1957
     69  OH       -19.1060   42.7120   31.1680 O.3   188  TYR188     -0.2866
     70  N        -23.6700   47.5040   36.5800 N.3   242  TRP242     -0.1241
     71  CA       -24.3470   47.3290   35.2850 C.3   242  TRP242      0.1605
     72  C        -25.7320   46.6940   35.3770 C.2   242  TRP242      0.2264
     73  O        -26.5660   46.9620   34.5170 O.2   242  TRP242     -0.2867
     74  CB       -23.4870   46.5370   34.2920 C.3   242  TRP242      0.0550
     75  CG       -23.1800   45.1480   34.7970 C.ar  242  TRP242      0.0003
     76  CD1      -22.1070   44.7590   35.5590 C.ar  242  TRP242      0.0946
     77  CD2      -23.9940   43.9800   34.6380 C.ar  242  TRP242      0.0152
     78  NE1      -22.2020   43.4280   35.8830 N.ar  242  TRP242     -0.2442
     79  CE2      -23.3440   42.9220   35.3140 C.ar  242  TRP242      0.0810
     80  CE3      -25.2000   43.7180   33.9800 C.ar  242  TRP242      0.0012
     81  CZ2      -23.8650   41.6230   35.3590 C.ar  242  TRP242      0.0191
     82  CZ3      -25.7140   42.4270   34.0170 C.ar  242  TRP242      0.0001
     83  CH2      -25.0520   41.4010   34.7070 C.ar  242  TRP242      0.0015
     84  N         -9.2730   40.3640   34.6840 N.3   406  GLU406     -0.1245
     85  CA       -10.3550   40.8870   33.8490 C.3   406  GLU406      0.1567
     86  C        -10.2850   42.4120   33.7770 C.2   406  GLU406      0.2260
     87  O         -9.8630   43.0610   34.7390 O.2   406  GLU406     -0.2867
     88  CB       -11.7350   40.4200   34.3530 C.3   406  GLU406      0.0388
     89  CG       -12.9400   40.8470   33.5050 C.3   406  GLU406      0.1160
     90  CD       -12.9220   40.3560   32.0740 C.2   406  GLU406      0.3649
     91  OE1      -11.8820   40.4130   31.3790 O.co2 406  GLU406     -0.2457
     92  OE2      -13.9880   39.9220   31.5930 O.co2 406  GLU406     -0.2457
     93  N        -12.7550   45.7570   31.8840 N.3   408  ALA408     -0.1245
     94  CA       -14.0290   45.9740   31.1900 C.3   408  ALA408      0.1562
     95  C        -14.4840   47.4160   31.2770 C.2   408  ALA408      0.2260
     96  O        -14.0830   48.1620   32.1700 O.2   408  ALA408     -0.2867
     97  CB       -15.1020   45.0370   31.7740 C.3   408  ALA408      0.0290
     98  N        -15.9030   48.2060   34.6390 N.3   411  TYR411     -0.1241
     99  CA       -14.8670   48.2520   35.6770 C.3   411  TYR411      0.1605
    100  C        -14.3440   49.6820   35.7590 C.2   411  TYR411      0.2264
    101  O        -14.0720   50.1940   36.8450 O.2   411  TYR411     -0.2867
    102  CB       -13.7090   47.3300   35.2990 C.3   411  TYR411      0.0534
    103  CG       -13.8930   45.8630   35.6080 C.ar  411  TYR411     -0.0201
    104  CD1      -15.1570   45.2960   35.6780 C.ar  411  TYR411     -0.0009
    105  CD2      -12.7840   45.0400   35.7580 C.ar  411  TYR411     -0.0009
    106  CE1      -15.3270   43.9450   35.9150 C.ar  411  TYR411      0.0417
    107  CE2      -12.9380   43.6870   36.0280 C.ar  411  TYR411      0.0417
    108  CZ       -14.2070   43.1540   36.1180 C.ar  411  TYR411      0.1957
    109  OH       -14.3990   41.8070   36.3550 O.3   411  TYR411     -0.2866
@<TRIPOS>BOND
     1    33    34    1
     2    17    16    2
     3    16    15    1
     4    35    34    1
     5    35    36    2
     6    34    37    1
     7    15    18    1
     8    15    14    1
     9    22    23    1
    10    18    19    1
    11    40    38   ar
    12    40    42   ar
    13     1     2    1
    14    37    38    1
    15    23    24    1
    16    23    26    1
    17    19    20   ar
    18    19    21   ar
    19    38    39   ar
    20    24    25    2
    21    42    41   ar
    22    30    28   ar
    23    30    32   ar
    24    28    27   ar
    25    32    31   ar
    26    27    26    1
    27    27    29   ar
    28    31    29   ar
    29    12    11    2
    30     2     5    1
    31     2     3    1
    32    56    57   ar
    33    56    54   ar
    34    57    55   ar
    35    39    41   ar
    36     5     6    1
    37     9     3   am
    38     9    10    1
    39    11    10    1
    40     3     4    2
    41    54    52   ar
    42    55    53   ar
    43    10    13    1
    44    52    53   ar
    45    52    51    1
    46     6     7   ar
    47     6     8   ar
    48    51    48    1
    49    65    67   ar
    50    65    63   ar
    51    67    68   ar
    52    48    47    1
    53    48    49    1
    54    47    45   am
    55    62    63    1
    56    62    59    1
    57    58    49   am
    58    58    59    1
    59    63    64   ar
    60    43    44    1
    61    68    69    1
    62    68    66   ar
    63    61    60    2
    64    45    44    1
    65    45    46    2
    66    49    50    2
    67    94    95    1
    68    94    97    1
    69    94    93    1
    70    95    96    2
    71    91    90   ar
    72    59    60    1
    73    92    90   ar
    74    64    66   ar
    75    90    89    1
    76    89    88    1
    77    86    85    1
    78    86    87    2
    79    85    88    1
    80    85    84    1
    81    80    82   ar
    82    80    77   ar
    83    82    83   ar
    84    74    75    1
    85    74    71    1
    86    73    72    2
    87    77    75   ar
    88    77    79   ar
    89    98    99    1
    90    83    81   ar
    91    75    76   ar
    92    71    72    1
    93    71    70    1
    94   102   103    1
    95   102    99    1
    96    79    81   ar
    97    79    78   ar
    98    76    78   ar
    99   103   104   ar
   100   103   105   ar
   101    99   100    1
   102   104   106   ar
   103   105   107   ar
   104   100   101    2
   105   106   108   ar
   106   107   108   ar
   107   108   109    1
