@<TRIPOS>MOLECULE
tmp/5gy1A02.pdb
 137 139 0 0 0
SMALL
GASTEIGER

@<TRIPOS>ATOM
      1  N        -24.9970   34.1610   30.9270 N.3   186  GLY186     -0.1210
      2  CA       -23.7160   33.6130   31.3780 C.3   186  GLY186      0.1956
      3  C        -22.5840   34.6290   31.4060 C.2   186  GLY186      0.2612
      4  O        -21.6120   34.4400   32.1330 O.2   186  GLY186     -0.2717
      5  N        -22.6840   35.6880   30.6030 N.am  187  PHE187     -0.1962
      6  CA       -21.7100   36.7800   30.6290 C.3   187  PHE187      0.1771
      7  C        -22.3110   37.9770   31.3630 C.2   187  PHE187      0.2620
      8  O        -21.7480   38.4390   32.3570 O.2   187  PHE187     -0.2715
      9  CB       -21.2980   37.1770   29.2110 C.3   187  PHE187      0.0574
     10  CG       -20.7870   36.0210   28.3880 C.ar  187  PHE187     -0.0200
     11  CD1      -19.4520   35.6550   28.4390 C.ar  187  PHE187     -0.0042
     12  CD2      -21.6510   35.2900   27.5870 C.ar  187  PHE187     -0.0042
     13  CE1      -18.9840   34.5900   27.6800 C.ar  187  PHE187     -0.0003
     14  CE2      -21.1880   34.2140   26.8380 C.ar  187  PHE187     -0.0003
     15  CZ       -19.8580   33.8700   26.8900 C.ar  187  PHE187     -0.0000
     16  N        -23.4570   38.4440   30.8610 N.am  188  TYR188     -0.1960
     17  CA       -24.2120   39.5470   31.4390 C.3   188  TYR188      0.1771
     18  C        -25.7090   39.2110   31.5230 C.2   188  TYR188      0.2620
     19  O        -26.5510   39.9710   31.0260 O.2   188  TYR188     -0.2715
     20  CB       -23.9560   40.8520   30.6550 C.3   188  TYR188      0.0574
     21  CG       -22.5210   41.3420   30.7880 C.ar  188  TYR188     -0.0198
     22  CD1      -22.1010   42.0220   31.9300 C.ar  188  TYR188     -0.0009
     23  CD2      -21.5750   41.1000   29.7930 C.ar  188  TYR188     -0.0009
     24  CE1      -20.7820   42.4590   32.0770 C.ar  188  TYR188      0.0417
     25  CE2      -20.2430   41.5290   29.9350 C.ar  188  TYR188      0.0417
     26  CZ       -19.8600   42.2210   31.0690 C.ar  188  TYR188      0.1957
     27  OH       -18.5610   42.6550   31.2470 O.3   188  TYR188     -0.2866
     28  N        -26.0330   38.0850   32.1610 N.am  189  SER189     -0.1950
     29  CA       -27.4310   37.7310   32.4310 C.3   189  SER189      0.1924
     30  C        -28.0940   38.8070   33.2760 C.2   189  SER189      0.2314
     31  O        -27.4470   39.4230   34.1130 O.2   189  SER189     -0.2863
     32  CB       -27.5140   36.4160   33.2160 C.3   189  SER189      0.2116
     33  OG       -27.0900   35.3490   32.3940 O.3   189  SER189     -0.2180
     34  N        -29.7200   39.6280   36.3220 N.3   191  HIS191     -0.1241
     35  CA       -29.8720   38.9300   37.6010 C.3   191  HIS191      0.1621
     36  C        -30.9750   39.5820   38.4380 C.2   191  HIS191      0.2264
     37  O        -31.8710   38.9150   38.9540 O.2   191  HIS191     -0.2867
     38  CB       -28.5320   38.9180   38.3540 C.3   191  HIS191      0.0745
     39  CG       -27.4500   38.1610   37.6470 C.ar  191  HIS191      0.0817
     40  ND1      -27.1490   36.8450   37.9330 N.ar  191  HIS191     -0.2268
     41  CD2      -26.5920   38.5370   36.6670 C.ar  191  HIS191      0.1154
     42  CE1      -26.1590   36.4400   37.1540 C.ar  191  HIS191      0.1986
     43  NE2      -25.7980   37.4510   36.3820 N.ar  191  HIS191     -0.2212
     44  N        -25.4380   45.5080   48.0580 N.3   238  TRP238     -0.1241
     45  CA       -24.7640   45.2270   46.8020 C.3   238  TRP238      0.1605
     46  C        -24.2280   46.5670   46.3110 C.2   238  TRP238      0.2264
     47  O        -24.3310   47.5780   47.0150 O.2   238  TRP238     -0.2867
     48  CB       -25.6960   44.5490   45.7860 C.3   238  TRP238      0.0550
     49  CG       -24.9230   43.8270   44.7080 C.ar  238  TRP238      0.0003
     50  CD1      -24.7580   44.2230   43.4090 C.ar  238  TRP238      0.0946
     51  CD2      -24.1470   42.6280   44.8620 C.ar  238  TRP238      0.0152
     52  NE1      -23.9600   43.3260   42.7330 N.ar  238  TRP238     -0.2442
     53  CE2      -23.5710   42.3380   43.6020 C.ar  238  TRP238      0.0810
     54  CE3      -23.9140   41.7530   45.9300 C.ar  238  TRP238      0.0012
     55  CZ2      -22.7600   41.2170   43.3930 C.ar  238  TRP238      0.0191
     56  CZ3      -23.0990   40.6430   45.7210 C.ar  238  TRP238      0.0001
     57  CH2      -22.5450   40.3790   44.4650 C.ar  238  TRP238      0.0015
     58  N        -23.4620   47.3210   36.4520 N.3   242  TRP242     -0.1241
     59  CA       -24.0640   47.1260   35.1270 C.3   242  TRP242      0.1605
     60  C        -25.4270   46.4340   35.1790 C.2   242  TRP242      0.2264
     61  O        -26.2510   46.6380   34.2920 O.2   242  TRP242     -0.2867
     62  CB       -23.1040   46.3330   34.2220 C.3   242  TRP242      0.0550
     63  CG       -22.7830   44.9430   34.7700 C.ar  242  TRP242      0.0003
     64  CD1      -21.6750   44.5700   35.4850 C.ar  242  TRP242      0.0946
     65  CD2      -23.5800   43.7600   34.6230 C.ar  242  TRP242      0.0152
     66  NE1      -21.7400   43.2250   35.8000 N.ar  242  TRP242     -0.2442
     67  CE2      -22.8970   42.7050   35.2790 C.ar  242  TRP242      0.0810
     68  CE3      -24.7950   43.4840   33.9850 C.ar  242  TRP242      0.0012
     69  CZ2      -23.3990   41.4000   35.3320 C.ar  242  TRP242      0.0191
     70  CZ3      -25.2980   42.1810   34.0370 C.ar  242  TRP242      0.0001
     71  CH2      -24.6010   41.1600   34.7050 C.ar  242  TRP242      0.0015
     72  N        -17.1300   40.8840   45.8460 N.3   294  ASP294     -0.1239
     73  CA       -17.2190   39.5830   45.1890 C.3   294  ASP294      0.1674
     74  C        -15.8730   39.2740   44.5580 C.2   294  ASP294      0.2266
     75  O        -15.0180   40.1530   44.3980 O.2   294  ASP294     -0.2867
     76  CB       -18.3030   39.6140   44.1040 C.3   294  ASP294      0.1410
     77  CG       -18.6310   38.2320   43.5480 C.2   294  ASP294      0.3668
     78  OD1      -18.7410   37.2580   44.3280 O.co2 294  ASP294     -0.2456
     79  OD2      -18.7770   38.1210   42.3080 O.co2 294  ASP294     -0.2456
     80  N        -15.2880   38.6470   41.4060 N.3   296  TRP296     -0.1241
     81  CA       -15.1310   39.3340   40.1190 C.3   296  TRP296      0.1605
     82  C        -15.0440   40.8430   40.3090 C.2   296  TRP296      0.2264
     83  O        -15.9280   41.4090   40.9620 O.2   296  TRP296     -0.2867
     84  CB       -16.3710   39.0960   39.2540 C.3   296  TRP296      0.0550
     85  CG       -16.4860   37.7140   38.7240 C.ar  296  TRP296      0.0003
     86  CD1      -17.3260   36.7250   39.1600 C.ar  296  TRP296      0.0946
     87  CD2      -15.7500   37.1690   37.6250 C.ar  296  TRP296      0.0152
     88  NE1      -17.1360   35.5880   38.4080 N.ar  296  TRP296     -0.2442
     89  CE2      -16.1870   35.8380   37.4500 C.ar  296  TRP296      0.0810
     90  CE3      -14.7610   37.6760   36.7740 C.ar  296  TRP296      0.0012
     91  CZ2      -15.6600   35.0040   36.4590 C.ar  296  TRP296      0.0191
     92  CZ3      -14.2380   36.8490   35.7880 C.ar  296  TRP296      0.0001
     93  CH2      -14.6880   35.5250   35.6410 C.ar  296  TRP296      0.0015
     94  N        -13.6970   47.4140   40.6330 N.3   300  ARG300     -0.1231
     95  CA       -14.8330   47.9980   39.9060 C.3   300  ARG300      0.1694
     96  C        -15.9760   48.3730   40.8530 C.2   300  ARG300      0.2592
     97  O        -16.4780   49.5010   40.8500 O.2   300  ARG300     -0.2718
     98  CB       -15.2920   47.0170   38.8080 C.3   300  ARG300      0.0321
     99  CG       -16.7020   47.2270   38.2330 C.3   300  ARG300      0.0489
    100  CD       -17.7640   46.3180   38.8750 C.3   300  ARG300      0.2205
    101  NE       -17.3510   44.9130   39.0500 N.pl3 300  ARG300     -0.0865
    102  CZ       -17.6780   43.9180   38.2260 C.cat 300  ARG300      0.5346
    103  NH1      -18.3410   44.1630   37.0970 N.pl3 300  ARG300      0.1354
    104  NH2      -17.3150   42.6670   38.5000 N.pl3 300  ARG300      0.1354
    105  N        -16.3580   47.4410   41.7200 N.am  301  TYR301     -0.1976
    106  CA       -17.4730   47.7110   42.6070 C.3   301  TYR301      0.1639
    107  C        -17.1390   48.8070   43.6180 C.2   301  TYR301      0.2290
    108  O        -17.9600   49.6790   43.8660 O.2   301  TYR301     -0.2864
    109  CB       -17.8820   46.4470   43.3560 C.3   301  TYR301      0.0560
    110  CG       -18.5290   45.3720   42.5230 C.ar  301  TYR301     -0.0198
    111  CD1      -19.6500   45.6320   41.7360 C.ar  301  TYR301     -0.0009
    112  CD2      -18.0350   44.0740   42.5650 C.ar  301  TYR301     -0.0009
    113  CE1      -20.2620   44.6120   40.9930 C.ar  301  TYR301      0.0417
    114  CE2      -18.6580   43.0430   41.8660 C.ar  301  TYR301      0.0417
    115  CZ       -19.7580   43.3200   41.0710 C.ar  301  TYR301      0.1957
    116  OH       -20.3310   42.2810   40.3730 O.3   301  TYR301     -0.2866
    117  N         -8.4730   40.9100   34.6820 N.3   406  GLU406     -0.1245
    118  CA        -9.5160   41.3260   33.7430 C.3   406  GLU406      0.1567
    119  C         -9.5990   42.8510   33.7390 C.2   406  GLU406      0.2260
    120  O         -9.2790   43.4970   34.7420 O.2   406  GLU406     -0.2867
    121  CB       -10.8630   40.7200   34.1660 C.3   406  GLU406      0.0388
    122  CG       -12.0400   40.9310   33.2100 C.3   406  GLU406      0.1160
    123  CD       -11.8710   40.3140   31.8250 C.2   406  GLU406      0.3649
    124  OE1      -10.7610   40.3050   31.2530 O.co2 406  GLU406     -0.2457
    125  OE2      -12.8850   39.8660   31.2520 O.co2 406  GLU406     -0.2457
    126  N        -15.5920   48.4500   34.5570 N.3   411  TYR411     -0.1241
    127  CA       -14.5760   48.6350   35.5890 C.3   411  TYR411      0.1605
    128  C        -14.1200   50.0950   35.6590 C.2   411  TYR411      0.2264
    129  O        -13.9100   50.6560   36.7420 O.2   411  TYR411     -0.2867
    130  CB       -13.3300   47.8030   35.2770 C.3   411  TYR411      0.0534
    131  CG       -13.4540   46.3040   35.4510 C.ar  411  TYR411     -0.0201
    132  CD1      -14.6980   45.6820   35.4830 C.ar  411  TYR411     -0.0009
    133  CD2      -12.3080   45.5200   35.5790 C.ar  411  TYR411     -0.0009
    134  CE1      -14.7920   44.3080   35.6580 C.ar  411  TYR411      0.0417
    135  CE2      -12.3780   44.1430   35.7520 C.ar  411  TYR411      0.0417
    136  CZ       -13.6320   43.5490   35.7750 C.ar  411  TYR411      0.1957
    137  OH       -13.7490   42.1920   35.9370 O.3   411  TYR411     -0.2866
@<TRIPOS>BOND
     1    14    15   ar
     2    14    12   ar
     3    15    13   ar
     4    12    10   ar
     5    13    11   ar
     6    10    11   ar
     7    10     9    1
     8     9     6    1
     9    23    25   ar
    10    23    21   ar
    11    25    26   ar
    12     5     6    1
    13     5     3   am
    14     6     7    1
    15    20    21    1
    16    20    17    1
    17    21    22   ar
    18    16     7   am
    19    16    17    1
    20     1     2    1
    21    19    18    2
    22    26    27    1
    23    26    24   ar
    24   125   123   ar
    25   124   123   ar
    26     7     8    2
    27     2     3    1
    28     3     4    2
    29    17    18    1
    30    18    28   am
    31   123   122    1
    32    22    24   ar
    33    28    29    1
    34    33    32    1
    35    29    32    1
    36    29    30    1
    37   122   121    1
    38    30    31    2
    39   119   118    1
    40   119   120    2
    41   118   121    1
    42   118   117    1
    43    68    70   ar
    44    68    65   ar
    45    70    71   ar
    46    62    63    1
    47    62    59    1
    48    61    60    2
    49   126   127    1
    50    65    63   ar
    51    65    67   ar
    52    71    69   ar
    53    63    64   ar
    54    59    60    1
    55    59    58    1
    56   130   131    1
    57   130   127    1
    58    67    69   ar
    59    67    66   ar
    60   131   132   ar
    61   131   133   ar
    62   132   134   ar
    63    64    66   ar
    64   133   135   ar
    65   127   128    1
    66    93    92   ar
    67    93    91   ar
    68   134   136   ar
    69   128   129    2
    70   135   136   ar
    71   136   137    1
    72    92    90   ar
    73    34    35    1
    74    43    41   ar
    75    43    42   ar
    76    91    89   ar
    77    41    39   ar
    78    90    87   ar
    79   103   102    1
    80    42    40   ar
    81    89    87   ar
    82    89    88   ar
    83    35    38    1
    84    35    36    1
    85    87    85   ar
    86    39    40   ar
    87    39    38    1
    88   102   104    1
    89   102   101    2
    90    99    98    1
    91    99   100    1
    92    88    86   ar
    93    36    37    2
    94    85    86   ar
    95    85    84    1
    96    98    95    1
    97   100   101    1
    98    84    81    1
    99    95    94    1
   100    95    96    1
   101    81    82    1
   102    81    80    1
   103    82    83    2
   104   116   115    1
   105    97    96    2
   106    96   105   am
   107   113   115   ar
   108   113   111   ar
   109   115   114   ar
   110   105   106    1
   111   111   110   ar
   112   114   112   ar
   113    79    77   ar
   114   110   112   ar
   115   110   109    1
   116   106   109    1
   117   106   107    1
   118    52    50   ar
   119    52    53   ar
   120    55    53   ar
   121    55    57   ar
   122    50    49   ar
   123    77    76    1
   124    77    78   ar
   125    53    51   ar
   126   107   108    2
   127    76    73    1
   128    75    74    2
   129    57    56   ar
   130    74    73    1
   131    49    51   ar
   132    49    48    1
   133    51    54   ar
   134    73    72    1
   135    56    54   ar
   136    48    45    1
   137    46    45    1
   138    46    47    2
   139    45    44    1
