@<TRIPOS>MOLECULE
tmp/5gy2A02.pdb
 87 83 0 0 0
SMALL
GASTEIGER

@<TRIPOS>ATOM
      1  N        -18.0590   -4.9200   77.2890 N.3   251  PHE251     -0.1241
      2  CA       -19.1770   -5.6370   77.8800 C.3   251  PHE251      0.1605
      3  C        -18.8400   -5.9250   79.3570 C.2   251  PHE251      0.2264
      4  O        -17.8000   -6.4780   79.6440 O.2   251  PHE251     -0.2867
      5  CB       -19.4010   -6.9320   77.1040 C.3   251  PHE251      0.0534
      6  CG       -20.5740   -7.7360   77.5740 C.ar  251  PHE251     -0.0203
      7  CD1      -21.8200   -7.5600   77.0080 C.ar  251  PHE251     -0.0042
      8  CD2      -20.4200   -8.7100   78.5410 C.ar  251  PHE251     -0.0042
      9  CE1      -22.9210   -8.3200   77.4370 C.ar  251  PHE251     -0.0003
     10  CE2      -21.5200   -9.4770   78.9820 C.ar  251  PHE251     -0.0003
     11  CZ       -22.7640   -9.2730   78.4420 C.ar  251  PHE251     -0.0000
     12  N        -23.8460   -5.2240   72.5520 N.3   307  ASN307     -0.1240
     13  CA       -25.0000   -5.9620   73.1100 C.3   307  ASN307      0.1653
     14  C        -26.2770   -5.1070   73.2650 C.2   307  ASN307      0.2266
     15  O        -27.3470   -5.6420   73.5930 O.2   307  ASN307     -0.2867
     16  CB       -24.5810   -6.5310   74.4740 C.3   307  ASN307      0.1155
     17  CG       -25.6910   -7.2930   75.1920 C.2   307  ASN307      0.2627
     18  OD1      -26.1030   -6.8890   76.2820 O.2   307  ASN307     -0.2716
     19  ND2      -26.1500   -8.4000   74.6190 N.am  307  ASN307     -0.0877
     20  N        -22.0720   -9.1090   70.2110 N.3   329  PHE329     -0.1241
     21  CA       -22.6560   -9.8630   71.3320 C.3   329  PHE329      0.1605
     22  C        -24.1620   -9.6420   71.3630 C.2   329  PHE329      0.2264
     23  O        -24.8020   -9.6760   72.3970 O.2   329  PHE329     -0.2867
     24  CB       -22.0550   -9.3980   72.6740 C.3   329  PHE329      0.0534
     25  CG       -20.5710   -9.6550   72.8570 C.ar  329  PHE329     -0.0203
     26  CD1      -19.8630  -10.5890   72.1120 C.ar  329  PHE329     -0.0042
     27  CD2      -19.9060   -9.0320   73.9210 C.ar  329  PHE329     -0.0042
     28  CE1      -18.4950  -10.8230   72.3520 C.ar  329  PHE329     -0.0003
     29  CE2      -18.5470   -9.2880   74.1790 C.ar  329  PHE329     -0.0003
     30  CZ       -17.8470  -10.1700   73.3870 C.ar  329  PHE329     -0.0000
     31  N        -27.9620  -10.3240   71.4120 N.3   331  GLY331     -0.1225
     32  CA       -28.7340  -11.4820   71.8740 C.3   331  GLY331      0.1811
     33  C        -30.1000  -11.5160   71.2490 C.2   331  GLY331      0.2280
     34  O        -30.7940  -12.5090   71.3130 O.2   331  GLY331     -0.2866
     35  N        -23.2090  -13.3530   65.7550 N.3   352  ASN352     -0.1225
     36  CA       -23.6360  -12.7920   67.0130 C.3   352  ASN352      0.1785
     37  C        -24.1730  -13.9210   67.9020 C.2   352  ASN352      0.2597
     38  O        -23.8050  -15.0990   67.7360 O.2   352  ASN352     -0.2718
     39  CB       -24.6390  -11.6540   66.7390 C.3   352  ASN352      0.1169
     40  CG       -23.9490  -10.3470   66.3920 C.2   352  ASN352      0.2627
     41  OD1      -23.5970   -9.5830   67.2790 O.2   352  ASN352     -0.2716
     42  ND2      -23.7210  -10.1010   65.0870 N.am  352  ASN352     -0.0877
     43  N        -25.0210  -13.5950   68.8640 N.am  353  HIS353     -0.1975
     44  CA       -25.6000  -14.6180   69.7540 C.3   353  HIS353      0.1656
     45  C        -27.1080  -14.4410   69.6990 C.2   353  HIS353      0.2291
     46  O        -27.8090  -14.5770   70.6990 O.2   353  HIS353     -0.2864
     47  CB       -25.0570  -14.4540   71.1800 C.3   353  HIS353      0.0771
     48  CG       -23.5640  -14.5940   71.2910 C.ar  353  HIS353      0.0820
     49  ND1      -22.9550  -15.6970   71.8570 N.ar  353  HIS353     -0.2267
     50  CD2      -22.5590  -13.7780   70.8980 C.ar  353  HIS353      0.1154
     51  CE1      -21.6400  -15.5390   71.8280 C.ar  353  HIS353      0.1986
     52  NE2      -21.3720  -14.3940   71.2310 N.ar  353  HIS353     -0.2212
     53  N        -30.8280  -14.8560   69.5560 N.3   355  ARG355     -0.1245
     54  CA       -31.7350  -15.9900   69.6930 C.3   355  ARG355      0.1563
     55  C        -33.1690  -15.6940   69.3350 C.2   355  ARG355      0.2260
     56  O        -33.9820  -16.5910   69.3300 O.2   355  ARG355     -0.2867
     57  CB       -31.6350  -16.6310   71.0730 C.3   355  ARG355      0.0307
     58  CG       -32.0270  -15.7700   72.2000 C.3   355  ARG355      0.0489
     59  CD       -31.2450  -16.2100   73.3960 C.3   355  ARG355      0.2205
     60  NE       -29.8690  -15.7100   73.2980 N.pl3 355  ARG355     -0.0865
     61  CZ       -28.7420  -16.4110   73.4600 C.cat 355  ARG355      0.5346
     62  NH1      -28.7480  -17.7130   73.7110 N.pl3 355  ARG355      0.1354
     63  NH2      -27.5810  -15.7690   73.3660 N.pl3 355  ARG355      0.1354
     64  N        -24.5970  -18.0600   61.8030 N.3   375  THR375     -0.1203
     65  CA       -23.8270  -18.2650   63.0190 C.3   375  THR375      0.1994
     66  C        -24.3300  -17.4220   64.1900 C.2   375  THR375      0.2618
     67  O        -23.6130  -16.6140   64.7560 O.2   375  THR375     -0.2717
     68  CB       -22.3100  -18.0810   62.8070 C.3   375  THR375      0.1784
     69  OG1      -21.9150  -18.7710   61.6460 O.3   375  THR375     -0.2211
     70  CG2      -21.5330  -18.6660   64.0000 C.3   375  THR375      0.0376
     71  N        -25.5990  -17.6480   64.5090 N.am  376  ASN376     -0.1960
     72  CA       -26.2610  -17.0420   65.6500 C.3   376  ASN376      0.1819
     73  C        -26.8910  -18.2080   66.4220 C.2   376  ASN376      0.2621
     74  O        -26.3900  -19.3400   66.3680 O.2   376  ASN376     -0.2715
     75  CB       -27.2620  -16.0320   65.0950 C.3   376  ASN376      0.1195
     76  CG       -26.6530  -14.6780   64.8830 C.2   376  ASN376      0.2630
     77  OD1      -26.3300  -13.9950   65.8410 O.2   376  ASN376     -0.2716
     78  ND2      -26.4840  -14.2720   63.6280 N.am  376  ASN376     -0.0877
     79  N        -27.9830  -17.9650   67.1300 N.am  377  GLN377     -0.1977
     80  CA       -28.6270  -19.0130   67.9140 C.3   377  GLN377      0.1601
     81  C        -30.0980  -18.9970   67.6160 C.2   377  GLN377      0.2287
     82  O        -30.9200  -19.1350   68.5250 O.2   377  GLN377     -0.2864
     83  CB       -28.3860  -18.7630   69.4270 C.3   377  GLN377      0.0394
     84  CG       -26.9770  -19.0870   69.9060 C.3   377  GLN377      0.0908
     85  CD       -26.7700  -20.5900   69.8810 C.2   377  GLN377      0.2608
     86  OE1      -27.0570  -21.2630   70.8730 O.2   377  GLN377     -0.2717
     87  NE2      -26.3530  -21.1420   68.7040 N.am  377  GLN377     -0.0878
@<TRIPOS>BOND
     1    69    68    1
     2    64    65    1
     3    68    65    1
     4    68    70    1
     5    65    66    1
     6    78    76   am
     7    66    71   am
     8    66    67    2
     9    71    72    1
    10    76    75    1
    11    76    77    2
    12    42    40   am
    13    75    72    1
    14    72    73    1
    15    35    36    1
    16    74    73    2
    17    40    39    1
    18    40    41    2
    19    73    79   am
    20    39    36    1
    21    36    37    1
    22    79    80    1
    23    81    80    1
    24    81    82    2
    25    38    37    2
    26    37    43   am
    27    80    83    1
    28    87    85   am
    29    43    44    1
    30    56    55    2
    31    55    54    1
    32    83    84    1
    33    53    54    1
    34    54    57    1
    35    45    44    1
    36    45    46    2
    37    44    47    1
    38    85    84    1
    39    85    86    2
    40    20    21    1
    41    50    52   ar
    42    50    48   ar
    43    57    58    1
    44    47    48    1
    45    52    51   ar
    46    33    34    2
    47    33    32    1
    48    48    49   ar
    49    21    22    1
    50    21    24    1
    51    22    23    2
    52    31    32    1
    53    51    49   ar
    54    26    28   ar
    55    26    25   ar
    56    58    59    1
    57    28    30   ar
    58    12    13    1
    59    24    25    1
    60    25    27   ar
    61    13    14    1
    62    13    16    1
    63    14    15    2
    64    60    59    1
    65    60    61    2
    66    63    61    1
    67    30    29   ar
    68    61    62    1
    69    27    29   ar
    70    16    17    1
    71    19    17   am
    72    17    18    2
    73     7     9   ar
    74     7     6   ar
    75     5     6    1
    76     5     2    1
    77     1     2    1
    78     9    11   ar
    79     6     8   ar
    80     2     3    1
    81    11    10   ar
    82     8    10   ar
    83     3     4    2
