@<TRIPOS>MOLECULE
tmp/5gy7A00.pdb
 206 198 0 0 0
SMALL
GASTEIGER

@<TRIPOS>ATOM
      1  N         10.3890   -1.0450  -15.5990 N.3    84  LYS84      -0.1245
      2  CA         8.9180   -1.1860  -15.7970 C.3    84  LYS84       0.1561
      3  C          8.4330   -2.5800  -16.0250 C.2    84  LYS84       0.2260
      4  O          7.2440   -2.7270  -16.3230 O.2    84  LYS84      -0.2867
      5  CB         8.4910   -0.3240  -16.9950 C.3    84  LYS84       0.0271
      6  CG         9.1670   -0.7120  -18.3080 C.3    84  LYS84       0.0035
      7  CD         8.3020   -0.2990  -19.5330 C.3    84  LYS84       0.0206
      8  CE         9.0280   -0.6120  -20.7940 C.3    84  LYS84       0.1093
      9  NZ         8.2030   -0.3090  -21.9720 N.3    84  LYS84      -0.1314
     10  N          7.0310   -6.0020  -14.7790 N.3    86  VAL86      -0.1245
     11  CA         6.4540   -6.6480  -13.6180 C.3    86  VAL86       0.1561
     12  C          7.2050   -7.9290  -13.2880 C.2    86  VAL86       0.2260
     13  O          7.6000   -8.1970  -12.1480 O.2    86  VAL86      -0.2867
     14  CB         4.9680   -6.8870  -13.8760 C.3    86  VAL86       0.0252
     15  CG1        4.3760   -7.7760  -12.9120 C.3    86  VAL86       0.0019
     16  CG2        4.1420   -5.5980  -13.8180 C.3    86  VAL86       0.0019
     17  N         -0.9060   -0.8980  -12.2160 N.3   126  THR126     -0.1218
     18  CA        -0.4980   -1.9200  -11.2410 C.3   126  THR126      0.1862
     19  C         -0.6170   -1.4020   -9.8150 C.2   126  THR126      0.2287
     20  O         -0.5670   -2.2460   -8.8860 O.2   126  THR126     -0.2866
     21  CB         0.9330   -2.4730  -11.5400 C.3   126  THR126      0.1770
     22  OG1        1.8730   -1.4100  -11.4040 O.3   126  THR126     -0.2211
     23  CG2        0.9740   -3.1300  -12.9200 C.3   126  THR126      0.0375
     24  N          7.5060   -3.9980   -8.8350 N.3   149  TYR149     -0.1241
     25  CA         7.2890   -2.8550   -9.7100 C.3   149  TYR149      0.1605
     26  C          6.0190   -2.1200   -9.2490 C.2   149  TYR149      0.2264
     27  O          6.0320   -0.8550   -9.0940 O.2   149  TYR149     -0.2867
     28  CB         7.0630   -3.3170  -11.1630 C.3   149  TYR149      0.0534
     29  CG         6.5600   -2.2320  -12.0940 C.ar  149  TYR149     -0.0201
     30  CD1        7.3370   -1.1310  -12.4200 C.ar  149  TYR149     -0.0009
     31  CD2        5.2640   -2.2340  -12.5690 C.ar  149  TYR149     -0.0009
     32  CE1        6.8800   -0.1470  -13.2450 C.ar  149  TYR149      0.0417
     33  CE2        4.7680   -1.2150  -13.4000 C.ar  149  TYR149      0.0417
     34  CZ         5.6250   -0.2210  -13.7430 C.ar  149  TYR149      0.1957
     35  OH         5.1640    0.7590  -14.6430 O.3   149  TYR149     -0.2866
     36  N         -2.2950    2.8490  -18.2980 N.3   178  PHE178     -0.1227
     37  CA        -2.6450    1.4310  -18.4820 C.3   178  PHE178      0.1736
     38  C         -1.6360    0.7950  -19.4220 C.2   178  PHE178      0.2595
     39  O         -0.5090    0.7220  -18.9910 O.2   178  PHE178     -0.2718
     40  CB        -4.1810    1.3450  -18.7890 C.3   178  PHE178      0.0547
     41  CG        -4.9850    1.5010  -17.5240 C.ar  178  PHE178     -0.0202
     42  CD1       -4.9660    2.7140  -16.8610 C.ar  178  PHE178     -0.0042
     43  CD2       -5.6650    0.4200  -16.9730 C.ar  178  PHE178     -0.0042
     44  CE1       -5.6330    2.8450  -15.6230 C.ar  178  PHE178     -0.0003
     45  CE2       -6.3400    0.5810  -15.7650 C.ar  178  PHE178     -0.0003
     46  CZ        -6.2320    1.8220  -15.0650 C.ar  178  PHE178     -0.0000
     47  N         -1.9670    0.2860  -20.5710 N.am  179  ASN179     -0.1974
     48  CA        -1.0190   -0.4730  -21.3810 C.3   179  ASN179      0.1688
     49  C         -0.8030    0.2020  -22.7220 C.2   179  ASN179      0.2292
     50  O         -1.4900   -0.1340  -23.7220 O.2   179  ASN179     -0.2864
     51  CB        -1.5080   -1.9040  -21.5870 C.3   179  ASN179      0.1181
     52  CG        -1.2840   -2.7280  -20.3940 C.2   179  ASN179      0.2629
     53  OD1       -1.8220   -2.4530  -19.2870 O.2   179  ASN179     -0.2716
     54  ND2       -0.5310   -3.7710  -20.4810 N.am  179  ASN179     -0.0877
     55  N         12.4720   -7.5720  -25.6540 N.3   197  PRO197     -0.2102
     56  CA        11.3850   -6.7990  -25.0830 C.3   197  PRO197      0.1504
     57  C         10.6760   -7.5600  -23.9930 C.2   197  PRO197      0.2576
     58  O         10.3610   -8.7740  -24.1600 O.2   197  PRO197     -0.2718
     59  CB        10.3830   -6.5120  -26.2390 C.3   197  PRO197      0.0282
     60  CG        11.1740   -6.7000  -27.4580 C.3   197  PRO197      0.0208
     61  CD        12.2270   -7.7730  -27.0750 C.3   197  PRO197      0.0893
     62  N         10.2970   -6.8800  -22.9270 N.am  198  ASN198     -0.1961
     63  CA         9.4780   -7.4720  -21.8640 C.3   198  ASN198      0.1819
     64  C          8.0210   -7.2980  -22.1170 C.2   198  ASN198      0.2621
     65  O          7.2030   -8.0250  -21.5380 O.2   198  ASN198     -0.2715
     66  CB         9.8730   -6.9020  -20.4900 C.3   198  ASN198      0.1195
     67  CG        11.2320   -7.3190  -20.0490 C.2   198  ASN198      0.2630
     68  OD1       11.5110   -8.5710  -20.0830 O.2   198  ASN198     -0.2716
     69  ND2       12.1160   -6.4170  -19.6600 N.am  198  ASN198     -0.0877
     70  N          7.5960   -6.2420  -22.8360 N.am  199  ASN199     -0.1958
     71  CA         6.1970   -5.9590  -23.1190 C.3   199  ASN199      0.1819
     72  C          5.7150   -6.7630  -24.3160 C.2   199  ASN199      0.2621
     73  O          6.4780   -7.1840  -25.1910 O.2   199  ASN199     -0.2715
     74  CB         6.0250   -4.4210  -23.3450 C.3   199  ASN199      0.1195
     75  CG         6.2090   -3.6450  -22.0750 C.2   199  ASN199      0.2630
     76  OD1        7.3040   -3.0710  -21.8290 O.2   199  ASN199     -0.2716
     77  ND2        5.1760   -3.6540  -21.2230 N.am  199  ASN199     -0.0877
     78  N          4.3990   -6.9790  -24.3060 N.am  200  LEU200     -0.1977
     79  CA         3.7180   -7.8040  -25.3050 C.3   200  LEU200      0.1596
     80  C          3.8680   -7.3120  -26.7300 C.2   200  LEU200      0.2287
     81  O          4.3330   -8.0780  -27.5820 O.2   200  LEU200     -0.2864
     82  CB         2.2650   -7.8690  -24.9120 C.3   200  LEU200      0.0297
     83  CG         1.3950   -8.6490  -25.8790 C.3   200  LEU200      0.0022
     84  CD1        1.7500  -10.1250  -25.9500 C.3   200  LEU200      0.0001
     85  CD2       -0.0920   -8.5330  -25.5370 C.3   200  LEU200      0.0001
     86  N          7.3720   -7.4590  -28.4350 N.3   203  TYR203     -0.1241
     87  CA         7.7460   -8.8480  -28.6720 C.3   203  TYR203      0.1605
     88  C          7.0160   -9.3990  -29.8880 C.2   203  TYR203      0.2264
     89  O          7.6610   -9.9660  -30.8150 O.2   203  TYR203     -0.2867
     90  CB         7.5450   -9.7460  -27.4210 C.3   203  TYR203      0.0534
     91  CG         8.3820  -10.9720  -27.4620 C.ar  203  TYR203     -0.0201
     92  CD1        8.0880  -12.0510  -28.3450 C.ar  203  TYR203     -0.0009
     93  CD2        9.4550  -11.1170  -26.6970 C.ar  203  TYR203     -0.0009
     94  CE1        8.8990  -13.1440  -28.4540 C.ar  203  TYR203      0.0417
     95  CE2       10.2870  -12.2310  -26.7580 C.ar  203  TYR203      0.0417
     96  CZ         9.9810  -13.2280  -27.6860 C.ar  203  TYR203      0.1957
     97  OH        10.8320  -14.3480  -27.7820 O.3   203  TYR203     -0.2866
     98  N          6.1300  -15.8870  -29.9970 N.3   215  LEU215     -0.1231
     99  CA         5.6610  -15.2100  -28.7760 C.3   215  LEU215      0.1693
    100  C          5.3280  -16.1830  -27.6750 C.2   215  LEU215      0.2592
    101  O          4.5900  -17.1570  -27.9600 O.2   215  LEU215     -0.2718
    102  CB         4.4170  -14.4400  -29.0830 C.3   215  LEU215      0.0284
    103  CG         3.6650  -13.8050  -27.8760 C.3   215  LEU215      0.0019
    104  CD1        4.4330  -12.6480  -27.2650 C.3   215  LEU215      0.0001
    105  CD2        2.2400  -13.3600  -28.2410 C.3   215  LEU215      0.0001
    106  N          5.8060  -15.9730  -26.4760 N.am  216  ALA216     -0.1966
    107  CA         5.3810  -16.6980  -25.2970 C.3   216  ALA216      0.1728
    108  C          4.1950  -16.0010  -24.6940 C.2   216  ALA216      0.2616
    109  O          4.3370  -14.8110  -24.3180 O.2   216  ALA216     -0.2715
    110  CB         6.4500  -16.8380  -24.3010 C.3   216  ALA216      0.0334
    111  N          3.0070  -16.6180  -24.5920 N.am  217  ILE217     -0.1963
    112  CA         1.8720  -16.0420  -23.9360 C.3   217  ILE217      0.1727
    113  C          1.8980  -16.5470  -22.5280 C.2   217  ILE217      0.2616
    114  O          1.8270  -17.7660  -22.2630 O.2   217  ILE217     -0.2715
    115  CB         0.5830  -16.3690  -24.6530 C.3   217  ILE217      0.0290
    116  CG1        0.5460  -15.7840  -26.0780 C.3   217  ILE217      0.0022
    117  CG2       -0.6030  -15.9380  -23.8300 C.3   217  ILE217      0.0023
    118  CD1       -0.7050  -16.0730  -26.8890 C.3   217  ILE217      0.0001
    119  N          1.9720  -15.6710  -21.5520 N.am  218  PHE218     -0.1974
    120  CA         2.1500  -16.0410  -20.1440 C.3   218  PHE218      0.1639
    121  C          0.8460  -16.2890  -19.4730 C.2   218  PHE218      0.2290
    122  O          0.1190  -15.4660  -18.9360 O.2   218  PHE218     -0.2864
    123  CB         2.9460  -14.9200  -19.3700 C.3   218  PHE218      0.0560
    124  CG         4.2370  -14.6020  -19.9470 C.ar  218  PHE218     -0.0200
    125  CD1        5.1530  -15.5440  -20.2850 C.ar  218  PHE218     -0.0042
    126  CD2        4.5860  -13.2680  -20.1680 C.ar  218  PHE218     -0.0042
    127  CE1        6.3950  -15.1960  -20.8400 C.ar  218  PHE218     -0.0003
    128  CE2        5.8450  -12.9570  -20.6830 C.ar  218  PHE218     -0.0003
    129  CZ         6.7330  -13.8990  -21.0500 C.ar  218  PHE218     -0.0000
    130  N         -6.2060  -18.3460  -17.0250 N.3   222  TYR222     -0.1241
    131  CA        -6.8100  -17.3230  -16.2410 C.3   222  TYR222      0.1605
    132  C         -8.3440  -17.3580  -16.3200 C.2   222  TYR222      0.2264
    133  O         -8.9230  -17.8300  -17.2710 O.2   222  TYR222     -0.2867
    134  CB        -6.2830  -15.9680  -16.7110 C.3   222  TYR222      0.0534
    135  CG        -4.9240  -15.6010  -16.2540 C.ar  222  TYR222     -0.0201
    136  CD1       -4.6180  -15.3860  -14.9480 C.ar  222  TYR222     -0.0009
    137  CD2       -3.8370  -15.4520  -17.1460 C.ar  222  TYR222     -0.0009
    138  CE1       -3.3300  -15.0450  -14.4970 C.ar  222  TYR222      0.0417
    139  CE2       -2.5720  -15.1070  -16.7420 C.ar  222  TYR222      0.0417
    140  CZ        -2.2780  -14.8590  -15.3950 C.ar  222  TYR222      0.1957
    141  OH        -1.0660  -14.5820  -14.8910 O.3   222  TYR222     -0.2866
    142  N         -4.4450  -13.2340  -20.2570 N.3   229  GLY229     -0.1225
    143  CA        -4.6150  -11.9740  -19.5250 C.3   229  GLY229      0.1811
    144  C         -5.3050  -10.9020  -20.3170 C.2   229  GLY229      0.2280
    145  O         -5.1930  -10.8020  -21.5550 O.2   229  GLY229     -0.2866
    146  N         -6.1280   -6.6850  -20.5860 N.3   231  ARG231     -0.1245
    147  CA        -5.6050   -5.3680  -20.2590 C.3   231  ARG231      0.1563
    148  C         -6.2790   -4.3260  -21.0590 C.2   231  ARG231      0.2260
    149  O         -6.9950   -4.5880  -22.0450 O.2   231  ARG231     -0.2867
    150  CB        -4.0700   -5.3650  -20.5610 C.3   231  ARG231      0.0307
    151  CG        -3.2580   -6.3320  -19.7850 C.3   231  ARG231      0.0489
    152  CD        -3.0780   -6.0040  -18.3190 C.3   231  ARG231      0.2205
    153  NE        -2.1440   -6.8710  -17.6160 N.pl3 231  ARG231     -0.0865
    154  CZ        -2.5020   -7.9760  -16.9870 C.cat 231  ARG231      0.5346
    155  NH1       -3.7440   -8.4380  -16.9940 N.pl3 231  ARG231      0.1354
    156  NH2       -1.5720   -8.5860  -16.2990 N.pl3 231  ARG231      0.1354
    157  N         -5.5450   -1.4680  -23.5050 N.3   233  TYR233     -0.1241
    158  CA        -4.5930   -1.0420  -24.4780 C.3   233  TYR233      0.1605
    159  C         -4.9260    0.3320  -24.9210 C.2   233  TYR233      0.2264
    160  O         -6.0620    0.6360  -25.3710 O.2   233  TYR233     -0.2867
    161  CB        -4.4190   -2.0370  -25.6200 C.3   233  TYR233      0.0534
    162  CG        -3.8530   -3.3010  -25.1260 C.ar  233  TYR233     -0.0201
    163  CD1       -2.4930   -3.4210  -24.8510 C.ar  233  TYR233     -0.0009
    164  CD2       -4.5970   -4.3970  -24.8460 C.ar  233  TYR233     -0.0009
    165  CE1       -1.9520   -4.5560  -24.2880 C.ar  233  TYR233      0.0417
    166  CE2       -4.0650   -5.5480  -24.2910 C.ar  233  TYR233      0.0417
    167  CZ        -2.7180   -5.6400  -24.0010 C.ar  233  TYR233      0.1957
    168  OH        -2.1950   -6.7600  -23.4120 O.3   233  TYR233     -0.2866
    169  N         -4.7220  -11.1540  -24.4760 N.3   269  VAL269     -0.1245
    170  CA        -3.4350  -11.3320  -25.1850 C.3   269  VAL269      0.1561
    171  C         -3.7270  -11.8410  -26.5600 C.2   269  VAL269      0.2260
    172  O         -3.1780  -11.3620  -27.5530 O.2   269  VAL269     -0.2867
    173  CB        -2.4780  -12.2380  -24.4410 C.3   269  VAL269      0.0252
    174  CG1       -1.2140  -12.4460  -25.2700 C.3   269  VAL269      0.0019
    175  CG2       -2.1160  -11.6850  -23.0730 C.3   269  VAL269      0.0019
    176  N          3.1930  -15.4250  -15.5560 N.3   292  ARG292     -0.1245
    177  CA         4.3140  -14.5800  -15.1230 C.3   292  ARG292      0.1563
    178  C          3.9790  -14.0020  -13.7290 C.2   292  ARG292      0.2260
    179  O          2.8940  -13.4720  -13.5360 O.2   292  ARG292     -0.2867
    180  CB         4.4830  -13.5060  -16.1790 C.3   292  ARG292      0.0307
    181  CG         5.6650  -12.5430  -15.8770 C.3   292  ARG292      0.0489
    182  CD         5.9320  -11.4870  -16.9860 C.3   292  ARG292      0.2205
    183  NE         4.8010  -10.5860  -17.0420 N.pl3 292  ARG292     -0.0865
    184  CZ         4.5650   -9.6060  -17.9610 C.cat 292  ARG292      0.5346
    185  NH1        5.3720   -9.4800  -18.9160 N.pl3 292  ARG292      0.1354
    186  NH2        3.4840   -8.8770  -17.7390 N.pl3 292  ARG292      0.1354
    187  N          1.4950  -10.7520  -12.5170 N.3   295  ASP295     -0.1239
    188  CA         0.3890  -10.5110  -13.3660 C.3   295  ASP295      0.1674
    189  C         -0.9440  -10.8450  -12.7350 C.2   295  ASP295      0.2266
    190  O         -1.1170  -11.9570  -12.2180 O.2   295  ASP295     -0.2867
    191  CB         0.5030  -11.3970  -14.6430 C.3   295  ASP295      0.1410
    192  CG         1.4400  -10.9020  -15.6730 C.2   295  ASP295      0.3668
    193  OD1        2.1700   -9.9060  -15.4340 O.co2 295  ASP295     -0.2456
    194  OD2        1.6380  -11.5990  -16.7280 O.co2 295  ASP295     -0.2456
    195  N         -7.6970   -6.4450  -16.0470 N.3   299  TYR299     -0.1241
    196  CA        -8.0780   -5.1110  -15.5420 C.3   299  TYR299      0.1605
    197  C         -8.1280   -4.1160  -16.6360 C.2   299  TYR299      0.2264
    198  O         -7.4770   -4.3080  -17.7160 O.2   299  TYR299     -0.2867
    199  CB        -7.1340   -4.6120  -14.4590 C.3   299  TYR299      0.0534
    200  CG        -5.6830   -4.6360  -14.6730 C.ar  299  TYR299     -0.0201
    201  CD1       -4.9130   -5.7050  -14.3610 C.ar  299  TYR299     -0.0009
    202  CD2       -5.0780   -3.5500  -15.2420 C.ar  299  TYR299     -0.0009
    203  CE1       -3.5530   -5.7090  -14.5210 C.ar  299  TYR299      0.0417
    204  CE2       -3.6980   -3.5780  -15.4220 C.ar  299  TYR299      0.0417
    205  CZ        -2.9490   -4.6460  -15.1090 C.ar  299  TYR299      0.1957
    206  OH        -1.5610   -4.7060  -15.2650 O.3   299  TYR299     -0.2866
@<TRIPOS>BOND
     1    89    88    2
     2    98    99    1
     3    88    87    1
     4   102    99    1
     5   102   103    1
     6    99   100    1
     7    87    86    1
     8    87    90    1
     9    94    92   ar
    10    94    96   ar
    11    92    91   ar
    12   105   103    1
    13   101   100    2
    14   103   104    1
    15    97    96    1
    16    96    95   ar
    17   100   106   am
    18    81    80    2
    19   172   171    2
    20    91    90    1
    21    91    93   ar
    22    60    61    1
    23    60    59    1
    24    61    55    1
    25   118   116    1
    26    95    93   ar
    27    80    79    1
    28   171   170    1
    29   106   107    1
    30    59    56    1
    31   116   115    1
    32    84    83    1
    33    83    85    1
    34    83    82    1
    35    55    56    1
    36   161   162    1
    37   161   158    1
    38   160   159    2
    39    79    82    1
    40    79    78    1
    41   107   108    1
    42   107   110    1
    43   174   173    1
    44    73    72    2
    45   170   169    1
    46   170   173    1
    47   162   163   ar
    48   162   164   ar
    49    56    57    1
    50   159   158    1
    51   163   165   ar
    52   164   166   ar
    53   108   111   am
    54   108   109    2
    55   115   112    1
    56   115   117    1
    57   111   112    1
    58   158   157    1
    59   173   175    1
    60    72    78   am
    61    72    71    1
    62   166   167   ar
    63   165   167   ar
    64    58    57    2
    65   167   168    1
    66    57    62   am
    67   112   113    1
    68    50    49    2
    69    74    71    1
    70    74    75    1
    71    71    70    1
    72    62    63    1
    73    70    64   am
    74    49    48    1
    75   113   114    2
    76   113   119   am
    77    64    63    1
    78    64    65    2
    79    75    76    2
    80    75    77   am
    81   149   148    2
    82     9     8    1
    83    63    66    1
    84    51    48    1
    85    51    52    1
    86   145   144    2
    87   119   120    1
    88    48    47    1
    89   148   147    1
    90   129   127   ar
    91   129   128   ar
    92   127   125   ar
    93     8     7    1
    94   128   126   ar
    95   146   147    1
    96    47    38   am
    97   150   147    1
    98   150   151    1
    99    66    67    1
   100    54    52   am
   101    52    53    2
   102   144   143    1
   103   125   124   ar
   104   142   143    1
   105   126   124   ar
   106   120   121    1
   107   120   123    1
   108    68    67    2
   109    67    69   am
   110   124   123    1
   111   151   152    1
   112     7     6    1
   113   121   122    2
   114    38    39    2
   115    38    37    1
   116   185   184    1
   117    40    37    1
   118    40    41    1
   119    37    36    1
   120   152   153    1
   121     6     5    1
   122   184   186    1
   123   184   183    2
   124   198   197    2
   125   153   154    2
   126    41    43   ar
   127    41    42   ar
   128   133   132    2
   129   137   139   ar
   130   137   135   ar
   131   183   182    1
   132   130   131    1
   133     5     2    1
   134   155   154    1
   135   154   156    1
   136   182   181    1
   137    43    45   ar
   138    42    44   ar
   139   139   140   ar
   140   194   192   ar
   141   134   135    1
   142   134   131    1
   143   197   196    1
   144     4     3    2
   145   132   131    1
   146   135   136   ar
   147   180   181    1
   148   180   177    1
   149   195   196    1
   150     3     2    1
   151     2     1    1
   152    45    46   ar
   153   192   193   ar
   154   192   191    1
   155    44    46   ar
   156   176   177    1
   157   196   199    1
   158   204   202   ar
   159   204   205   ar
   160   140   141    1
   161   140   138   ar
   162   206   205    1
   163   202   200   ar
   164   177   178    1
   165   205   203   ar
   166   136   138   ar
   167    10    11    1
   168   200   199    1
   169   200   201   ar
   170   191   188    1
   171    35    34    1
   172   203   201   ar
   173    14    16    1
   174    14    11    1
   175    14    15    1
   176    34    33   ar
   177    34    32   ar
   178   178   179    2
   179    11    12    1
   180    33    31   ar
   181   188   189    1
   182   188   187    1
   183    12    13    2
   184    32    30   ar
   185    23    21    1
   186   189   190    2
   187    31    29   ar
   188    30    29   ar
   189    17    18    1
   190    29    28    1
   191    21    22    1
   192    21    18    1
   193    18    19    1
   194    28    25    1
   195    19    20    2
   196    25    26    1
   197    25    24    1
   198    26    27    2
