@<TRIPOS>MOLECULE
tmp/5gydC00.pdb
 248 234 0 0 0
SMALL
GASTEIGER

@<TRIPOS>ATOM
      1  N         36.6730   52.2790  -30.9300 N.3     8  TRP8       -0.1241
      2  CA        37.7400   51.3980  -30.4580 C.3     8  TRP8        0.1605
      3  C         37.2860   50.4690  -29.3280 C.2     8  TRP8        0.2264
      4  O         38.0660   50.1460  -28.4330 O.2     8  TRP8       -0.2867
      5  CB        38.9400   52.2290  -29.9920 C.3     8  TRP8        0.0550
      6  CG        38.5730   53.4030  -29.1230 C.ar    8  TRP8        0.0003
      7  CD1       37.9750   53.3620  -27.8960 C.ar    8  TRP8        0.0946
      8  CD2       38.8010   54.7890  -29.4100 C.ar    8  TRP8        0.0152
      9  NE1       37.8070   54.6350  -27.4080 N.ar    8  TRP8       -0.2442
     10  CE2       38.3070   55.5300  -28.3180 C.ar    8  TRP8        0.0810
     11  CE3       39.3710   55.4750  -30.4870 C.ar    8  TRP8        0.0012
     12  CZ2       38.3660   56.9210  -28.2700 C.ar    8  TRP8        0.0191
     13  CZ3       39.4280   56.8570  -30.4380 C.ar    8  TRP8        0.0001
     14  CH2       38.9290   57.5650  -29.3370 C.ar    8  TRP8        0.0015
     15  N         39.4210   53.1190  -21.5490 N.3    17  LEU17      -0.1245
     16  CA        40.2030   54.3430  -21.6570 C.3    17  LEU17       0.1561
     17  C         39.7990   55.3510  -20.5820 C.2    17  LEU17       0.2260
     18  O         40.6490   55.8600  -19.8430 O.2    17  LEU17      -0.2867
     19  CB        40.0470   54.9550  -23.0500 C.3    17  LEU17       0.0270
     20  CG        40.9180   56.1800  -23.3240 C.3    17  LEU17       0.0019
     21  CD1       42.3340   55.9180  -22.8540 C.3    17  LEU17       0.0001
     22  CD2       40.9000   56.5290  -24.8010 C.3    17  LEU17       0.0001
     23  N         41.0260   54.2700  -17.2110 N.3    20  LEU20      -0.1231
     24  CA        42.4670   54.4560  -17.0860 C.3    20  LEU20       0.1693
     25  C         42.7840   55.9110  -16.7580 C.2    20  LEU20       0.2591
     26  O         43.5330   56.2010  -15.8110 O.2    20  LEU20      -0.2718
     27  CB        43.1880   54.0270  -18.3660 C.3    20  LEU20       0.0284
     28  CG        43.9040   52.6740  -18.3080 C.3    20  LEU20       0.0019
     29  CD1       42.9190   51.5490  -18.0230 C.3    20  LEU20       0.0001
     30  CD2       44.6720   52.4070  -19.5930 C.3    20  LEU20       0.0001
     31  N         42.1980   56.8250  -17.5320 N.am   21  ILE21      -0.1980
     32  CA        42.3800   58.2500  -17.2710 C.3    21  ILE21       0.1595
     33  C         41.9050   58.6020  -15.8660 C.2    21  ILE21       0.2287
     34  O         42.5480   59.3810  -15.1630 O.2    21  ILE21      -0.2864
     35  CB        41.6220   59.1400  -18.2770 C.3    21  ILE21       0.0276
     36  CG1       41.8410   58.6650  -19.7140 C.3    21  ILE21       0.0022
     37  CG2       42.0580   60.5890  -18.1220 C.3    21  ILE21       0.0022
     38  CD1       43.2360   58.8820  -20.2280 C.3    21  ILE21       0.0001
     39  N         44.4010   57.3330  -13.2040 N.3    24  HIS24      -0.1241
     40  CA        45.6360   58.1110  -13.2610 C.3    24  HIS24       0.1621
     41  C         45.4480   59.4960  -12.6350 C.2    24  HIS24       0.2264
     42  O         46.2290   59.9220  -11.7700 O.2    24  HIS24      -0.2867
     43  CB        46.1160   58.2460  -14.7040 C.3    24  HIS24       0.0745
     44  CG        47.6080   58.3840  -14.8340 C.ar   24  HIS24       0.0817
     45  ND1       48.4340   57.3110  -15.0190 N.ar   24  HIS24      -0.2268
     46  CD2       48.3960   59.4880  -14.7960 C.ar   24  HIS24       0.1154
     47  CE1       49.6940   57.7390  -15.0960 C.ar   24  HIS24       0.1986
     48  NE2       49.6920   59.0420  -14.9650 N.ar   24  HIS24      -0.2212
     49  N         35.1780   60.2200  -15.3130 N.3    46  PHE46      -0.1241
     50  CA        35.8660   60.8450  -16.4340 C.3    46  PHE46       0.1605
     51  C         35.2290   60.3720  -17.7330 C.2    46  PHE46       0.2264
     52  O         34.9100   59.1930  -17.8790 O.2    46  PHE46      -0.2867
     53  CB        37.3610   60.5180  -16.4200 C.3    46  PHE46       0.0534
     54  CG        38.1500   61.2680  -17.4540 C.ar   46  PHE46      -0.0203
     55  CD1       38.7280   62.4890  -17.1510 C.ar   46  PHE46      -0.0042
     56  CD2       38.3060   60.7590  -18.7330 C.ar   46  PHE46      -0.0042
     57  CE1       39.4500   63.1860  -18.1000 C.ar   46  PHE46      -0.0003
     58  CE2       39.0240   61.4530  -19.6870 C.ar   46  PHE46      -0.0003
     59  CZ        39.5970   62.6690  -19.3690 C.ar   46  PHE46      -0.0000
     60  N         35.7050   61.0620  -21.9760 N.3    48  LEU48      -0.1245
     61  CA        36.3560   61.7280  -23.0960 C.3    48  LEU48       0.1561
     62  C         35.3290   62.2490  -24.1020 C.2    48  LEU48       0.2260
     63  O         35.6040   63.1800  -24.8580 O.2    48  LEU48      -0.2867
     64  CB        37.3450   60.7810  -23.7760 C.3    48  LEU48       0.0270
     65  CG        38.5840   61.4540  -24.3680 C.3    48  LEU48       0.0019
     66  CD1       39.3520   62.2030  -23.2870 C.3    48  LEU48       0.0001
     67  CD2       39.4750   60.4260  -25.0400 C.3    48  LEU48       0.0001
     68  N         35.4180   64.6490  -30.9080 N.3    52  GLY52      -0.1210
     69  CA        36.8650   64.7300  -30.8870 C.3    52  GLY52       0.1940
     70  C         37.4010   65.9680  -31.5740 C.2    52  GLY52       0.2453
     71  O         36.6400   66.8660  -31.9320 O.2    52  GLY52      -0.2732
     72  N         38.7250   66.0200  -31.7640 N.am   53  PRO53      -0.2728
     73  CA        39.4030   67.1840  -32.3370 C.3    53  PRO53       0.1401
     74  C         39.3200   67.2480  -33.8540 C.2    53  PRO53       0.2269
     75  O         39.0500   66.2430  -34.5130 O.2    53  PRO53      -0.2865
     76  CB        40.8510   66.9800  -31.9000 C.3    53  PRO53       0.0296
     77  CG        41.0040   65.4980  -31.8840 C.3    53  PRO53       0.0237
     78  CD        39.6810   64.9630  -31.3880 C.3    53  PRO53       0.0939
     79  N         41.7730   67.5420  -36.7780 N.3    55  ILE55      -0.1245
     80  CA        43.2000   67.2900  -36.9350 C.3    55  ILE55       0.1561
     81  C         43.6990   67.6460  -38.3300 C.2    55  ILE55       0.2260
     82  O         43.2230   67.1110  -39.3300 O.2    55  ILE55      -0.2867
     83  CB        43.5440   65.8170  -36.6470 C.3    55  ILE55       0.0252
     84  CG1       43.1670   65.4560  -35.2090 C.3    55  ILE55       0.0019
     85  CG2       45.0230   65.5580  -36.8940 C.3    55  ILE55       0.0019
     86  CD1       43.4970   64.0300  -34.8300 C.3    55  ILE55       0.0001
     87  N         51.1670   67.6250  -35.9160 N.3    84  LEU84      -0.1245
     88  CA        49.7420   67.8760  -36.0890 C.3    84  LEU84       0.1561
     89  C         49.2800   69.2000  -35.4960 C.2    84  LEU84       0.2260
     90  O         49.6930   69.5860  -34.4020 O.2    84  LEU84      -0.2867
     91  CB        48.9250   66.7450  -35.4620 C.3    84  LEU84       0.0270
     92  CG        49.1600   65.3170  -35.9520 C.3    84  LEU84       0.0019
     93  CD1       48.3800   64.3370  -35.0880 C.3    84  LEU84       0.0001
     94  CD2       48.7640   65.1810  -37.4130 C.3    84  LEU84       0.0001
     95  N         46.0790   70.5670  -33.8700 N.3    86  VAL86      -0.1245
     96  CA        44.9100   69.9800  -33.2310 C.3    86  VAL86       0.1561
     97  C         43.9810   71.0580  -32.6920 C.2    86  VAL86       0.2260
     98  O         44.3940   71.8960  -31.8910 O.2    86  VAL86      -0.2867
     99  CB        45.3170   69.0380  -32.0830 C.3    86  VAL86       0.0252
    100  CG1       44.0880   68.5030  -31.3740 C.3    86  VAL86       0.0019
    101  CG2       46.1690   67.8990  -32.6140 C.3    86  VAL86       0.0019
    102  N         40.5320   71.4640  -30.6480 N.3    88  TYR88      -0.1241
    103  CA        39.5230   70.7970  -29.8390 C.3    88  TYR88       0.1605
    104  C         38.5070   71.7690  -29.2490 C.2    88  TYR88       0.2264
    105  O         38.8660   72.7840  -28.6510 O.2    88  TYR88      -0.2867
    106  CB        40.1910   70.0050  -28.7130 C.3    88  TYR88       0.0534
    107  CG        39.2540   69.0880  -27.9590 C.ar   88  TYR88      -0.0201
    108  CD1       38.8540   67.8760  -28.5040 C.ar   88  TYR88      -0.0009
    109  CD2       38.7780   69.4290  -26.7000 C.ar   88  TYR88      -0.0009
    110  CE1       38.0040   67.0310  -27.8180 C.ar   88  TYR88       0.0417
    111  CE2       37.9260   68.5890  -26.0060 C.ar   88  TYR88       0.0417
    112  CZ        37.5440   67.3910  -26.5700 C.ar   88  TYR88       0.1957
    113  OH        36.6940   66.5500  -25.8880 O.3    88  TYR88      -0.2866
    114  N         34.5120   66.6700  -23.6320 N.3    92  LEU92      -0.1245
    115  CA        35.1740   66.0530  -22.4870 C.3    92  LEU92       0.1561
    116  C         34.5020   66.5290  -21.2050 C.2    92  LEU92       0.2260
    117  O         34.0890   67.6840  -21.1060 O.2    92  LEU92      -0.2867
    118  CB        36.6710   66.3910  -22.4770 C.3    92  LEU92       0.0270
    119  CG        37.5910   65.8030  -21.4000 C.3    92  LEU92       0.0019
    120  CD1       39.0120   65.7090  -21.9250 C.3    92  LEU92       0.0001
    121  CD2       37.5780   66.6320  -20.1260 C.3    92  LEU92       0.0001
    122  N         36.2190   72.2090  -22.6070 N.3   121  ILE121     -0.1245
    123  CA        37.6320   72.5150  -22.7820 C.3   121  ILE121      0.1561
    124  C         37.9130   73.0040  -24.1960 C.2   121  ILE121      0.2260
    125  O         37.5580   72.3470  -25.1750 O.2   121  ILE121     -0.2867
    126  CB        38.5180   71.2910  -22.4790 C.3   121  ILE121      0.0252
    127  CG1       38.4760   70.9660  -20.9860 C.3   121  ILE121      0.0019
    128  CG2       39.9510   71.5450  -22.9100 C.3   121  ILE121      0.0019
    129  CD1       39.3290   69.7820  -20.6000 C.3   121  ILE121      0.0001
    130  N         40.8230   74.1380  -26.9750 N.3   123  LEU123     -0.1245
    131  CA        42.2260   73.8820  -27.2630 C.3   123  LEU123      0.1561
    132  C         42.5160   74.1220  -28.7410 C.2   123  LEU123      0.2260
    133  O         41.6720   73.8660  -29.5930 O.2   123  LEU123     -0.2867
    134  CB        42.5890   72.4490  -26.8510 C.3   123  LEU123      0.0270
    135  CG        44.0160   71.9140  -26.9840 C.3   123  LEU123      0.0019
    136  CD1       44.2660   70.8780  -25.9030 C.3   123  LEU123      0.0001
    137  CD2       44.2510   71.2970  -28.3550 C.3   123  LEU123      0.0001
    138  N         50.7890   69.6110  -31.7070 N.3   127  CYS127     -0.1235
    139  CA        51.2560   68.4280  -30.9990 C.3   127  CYS127      0.1677
    140  C         52.0400   67.5440  -31.9650 C.2   127  CYS127      0.2270
    141  O         52.0470   67.7950  -33.1690 O.2   127  CYS127     -0.2867
    142  CB        50.0810   67.6500  -30.4040 C.3   127  CYS127      0.0956
    143  SG        49.2870   66.5140  -31.5620 S.3   127  CYS127     -0.0801
    144  N         53.0320   63.2350  -32.8930 N.3   129  VAL129     -0.1245
    145  CA        52.7950   61.8160  -32.6550 C.3   129  VAL129      0.1561
    146  C         53.9250   61.0060  -33.2790 C.2   129  VAL129      0.2260
    147  O         54.0590   60.9520  -34.5010 O.2   129  VAL129     -0.2867
    148  CB        51.4420   61.3610  -33.2300 C.3   129  VAL129      0.0252
    149  CG1       51.2600   59.8670  -33.0340 C.3   129  VAL129      0.0019
    150  CG2       50.3030   62.1310  -32.5800 C.3   129  VAL129      0.0019
    151  N         55.0710   54.3010  -28.8420 N.3   136  LEU136     -0.1245
    152  CA        54.3220   55.4000  -29.4430 C.3   136  LEU136      0.1561
    153  C         54.3650   56.5760  -28.4860 C.2   136  LEU136      0.2260
    154  O         54.1060   56.4210  -27.2950 O.2   136  LEU136     -0.2867
    155  CB        52.8820   54.9840  -29.7670 C.3   136  LEU136      0.0270
    156  CG        51.9770   55.9980  -30.4740 C.3   136  LEU136      0.0019
    157  CD1       52.7510   56.8780  -31.4430 C.3   136  LEU136      0.0001
    158  CD2       50.8890   55.2510  -31.2150 C.3   136  LEU136      0.0001
    159  N         53.1450   60.5410  -27.6000 N.3   138  LEU138     -0.1245
    160  CA        52.1930   61.6290  -27.8250 C.3   138  LEU138      0.1561
    161  C         52.5870   62.8580  -27.0110 C.2   138  LEU138      0.2260
    162  O         52.8520   62.7450  -25.8220 O.2   138  LEU138     -0.2867
    163  CB        50.7730   61.1960  -27.4490 C.3   138  LEU138      0.0270
    164  CG        49.8350   60.5930  -28.4990 C.3   138  LEU138      0.0019
    165  CD1       50.5550   59.6250  -29.4220 C.3   138  LEU138      0.0001
    166  CD2       48.6690   59.9040  -27.8070 C.3   138  LEU138      0.0001
    167  N         51.8440   67.3640  -26.7040 N.3   140  PHE140     -0.1241
    168  CA        51.4520   68.7050  -27.1240 C.3   140  PHE140      0.1605
    169  C         52.6400   69.6520  -27.0360 C.2   140  PHE140      0.2264
    170  O         53.1490   69.9160  -25.9470 O.2   140  PHE140     -0.2867
    171  CB        50.3010   69.2330  -26.2640 C.3   140  PHE140      0.0534
    172  CG        48.9700   68.6200  -26.5860 C.ar  140  PHE140     -0.0203
    173  CD1       48.1830   69.1400  -27.5990 C.ar  140  PHE140     -0.0042
    174  CD2       48.5040   67.5280  -25.8750 C.ar  140  PHE140     -0.0042
    175  CE1       46.9560   68.5820  -27.8980 C.ar  140  PHE140     -0.0003
    176  CE2       47.2770   66.9650  -26.1700 C.ar  140  PHE140     -0.0003
    177  CZ        46.5020   67.4930  -27.1820 C.ar  140  PHE140     -0.0000
    178  N         44.0940   71.0480  -12.4520 N.3   209  PHE209     -0.1241
    179  CA        43.8190   70.2820  -13.6590 C.3   209  PHE209      0.1605
    180  C         44.7600   70.6910  -14.7840 C.2   209  PHE209      0.2264
    181  O         45.3420   69.8280  -15.4540 O.2   209  PHE209     -0.2867
    182  CB        42.3630   70.4490  -14.0980 C.3   209  PHE209      0.0534
    183  CG        41.9180   69.4280  -15.1060 C.ar  209  PHE209     -0.0203
    184  CD1       41.9450   68.0770  -14.7970 C.ar  209  PHE209     -0.0042
    185  CD2       41.4720   69.8140  -16.3600 C.ar  209  PHE209     -0.0042
    186  CE1       41.5400   67.1290  -15.7190 C.ar  209  PHE209     -0.0003
    187  CE2       41.0640   68.8710  -17.2870 C.ar  209  PHE209     -0.0003
    188  CZ        41.0980   67.5270  -16.9650 C.ar  209  PHE209     -0.0000
    189  N         48.1080   69.1900  -14.0970 N.3   212  PHE212     -0.1227
    190  CA        48.0860   67.7800  -14.4730 C.3   212  PHE212      0.1736
    191  C         48.3050   67.6180  -15.9730 C.2   212  PHE212      0.2595
    192  O         49.1370   66.8140  -16.4160 O.2   212  PHE212     -0.2718
    193  CB        46.7560   67.1450  -14.0520 C.3   212  PHE212      0.0547
    194  CG        46.4870   65.8050  -14.6800 C.ar  212  PHE212     -0.0202
    195  CD1       47.0750   64.6560  -14.1760 C.ar  212  PHE212     -0.0042
    196  CD2       45.6270   65.6920  -15.7610 C.ar  212  PHE212     -0.0042
    197  CE1       46.8200   63.4220  -14.7470 C.ar  212  PHE212     -0.0003
    198  CE2       45.3690   64.4620  -16.3370 C.ar  212  PHE212     -0.0003
    199  CZ        45.9650   63.3250  -15.8290 C.ar  212  PHE212     -0.0000
    200  N         47.5630   68.4040  -16.7470 N.am  213  LEU213     -0.1980
    201  CA        47.6470   68.3420  -18.2000 C.3   213  LEU213      0.1596
    202  C         49.0390   68.6800  -18.7250 C.2   213  LEU213      0.2287
    203  O         49.5250   68.0250  -19.6450 O.2   213  LEU213     -0.2864
    204  CB        46.6140   69.2710  -18.8380 C.3   213  LEU213      0.0297
    205  CG        45.1570   68.8430  -18.6610 C.3   213  LEU213      0.0022
    206  CD1       44.2180   69.8230  -19.3410 C.3   213  LEU213      0.0001
    207  CD2       44.9430   67.4360  -19.1980 C.3   213  LEU213      0.0001
    208  N         51.5510   65.8580  -17.8240 N.3   216  GLU216     -0.1231
    209  CA        51.3510   64.5690  -18.4840 C.3   216  GLU216      0.1699
    210  C         51.4140   64.6310  -20.0110 C.2   216  GLU216      0.2592
    211  O         51.7640   63.6440  -20.6590 O.2   216  GLU216     -0.2718
    212  CB        50.0100   63.9630  -18.0610 C.3   216  GLU216      0.0402
    213  CG        49.9750   63.4560  -16.6270 C.3   216  GLU216      0.1161
    214  CD        50.7230   62.1450  -16.4450 C.2   216  GLU216      0.3649
    215  OE1       51.1510   61.5510  -17.4570 O.co2 216  GLU216     -0.2457
    216  OE2       50.8780   61.7070  -15.2860 O.co2 216  GLU216     -0.2457
    217  N         51.0870   65.7850  -20.5840 N.am  217  LEU217     -0.1980
    218  CA        50.8790   65.8750  -22.0280 C.3   217  LEU217      0.1596
    219  C         51.6870   66.9450  -22.7540 C.2   217  LEU217      0.2287
    220  O         51.9170   66.8350  -23.9570 O.2   217  LEU217     -0.2864
    221  CB        49.3980   66.1120  -22.3150 C.3   217  LEU217      0.0297
    222  CG        48.5240   64.8690  -22.4390 C.3   217  LEU217      0.0022
    223  CD1       47.0860   65.2240  -22.1280 C.3   217  LEU217      0.0001
    224  CD2       48.6430   64.3010  -23.8390 C.3   217  LEU217      0.0001
    225  N         53.1800   61.3730  -23.3480 N.3   223  ILE223     -0.1231
    226  CA        52.5630   60.0870  -23.0770 C.3   223  ILE223      0.1692
    227  C         53.2840   58.9970  -23.8570 C.2   223  ILE223      0.2592
    228  O         53.3120   59.0130  -25.0940 O.2   223  ILE223     -0.2718
    229  CB        51.0710   60.0770  -23.4460 C.3   223  ILE223      0.0266
    230  CG1       50.2960   61.0550  -22.5640 C.3   223  ILE223      0.0019
    231  CG2       50.5010   58.6760  -23.3060 C.3   223  ILE223      0.0020
    232  CD1       48.7960   60.9220  -22.6880 C.3   223  ILE223      0.0001
    233  N         53.8700   58.0610  -23.1170 N.am  224  ASN224     -0.1960
    234  CA        54.6110   56.9480  -23.6920 C.3   224  ASN224      0.1819
    235  C         53.8080   55.6520  -23.6280 C.2   224  ASN224      0.2621
    236  O         53.3830   55.2200  -22.5540 O.2   224  ASN224     -0.2715
    237  CB        55.9490   56.7780  -22.9690 C.3   224  ASN224      0.1195
    238  CG        56.7930   55.6550  -23.5450 C.2   224  ASN224      0.2630
    239  OD1       56.5060   55.1270  -24.6210 O.2   224  ASN224     -0.2716
    240  ND2       57.8480   55.2890  -22.8280 N.am  224  ASN224     -0.0877
    241  N         53.6030   55.0380  -24.7890 N.am  225  LEU225     -0.1977
    242  CA        52.8880   53.7660  -24.8820 C.3   225  LEU225      0.1596
    243  C         53.8240   52.6350  -25.2630 C.2   225  LEU225      0.2287
    244  O         54.4330   52.6900  -26.3420 O.2   225  LEU225     -0.2864
    245  CB        51.7570   53.8580  -25.9130 C.3   225  LEU225      0.0297
    246  CG        50.6560   54.8890  -25.6480 C.3   225  LEU225      0.0022
    247  CD1       49.6670   54.9580  -26.8020 C.3   225  LEU225      0.0001
    248  CD2       49.9510   54.5670  -24.3500 C.3   225  LEU225      0.0001
@<TRIPOS>BOND
     1    82    81    2
     2    81    80    1
     3    94    92    1
     4    80    79    1
     5    80    83    1
     6    85    83    1
     7    83    84    1
     8    88    87    1
     9    88    89    1
    10    88    91    1
    11    92    91    1
    12    92    93    1
    13    89    90    2
    14    84    86    1
    15    75    74    2
    16   147   146    2
    17    95    96    1
    18    74    73    1
    19   146   145    1
    20    96    97    1
    21    96    99    1
    22   148   149    1
    23   148   145    1
    24   148   150    1
    25   141   140    2
    26   144   145    1
    27    97    98    2
    28   101    99    1
    29    73    76    1
    30    73    72    1
    31    99   100    1
    32   140   139    1
    33    71    70    2
    34    76    77    1
    35    77    78    1
    36    72    70   am
    37    72    78    1
    38   138   139    1
    39    70    69    1
    40   143   142    1
    41   157   156    1
    42   158   156    1
    43   139   142    1
    44     1     2    1
    45    68    69    1
    46   102   103    1
    47    11    13   ar
    48    11     8   ar
    49   156   155    1
    50     2     5    1
    51     2     3    1
    52    13    14   ar
    53     5     6    1
    54   103   104    1
    55   103   106    1
    56   155   152    1
    57   133   132    2
    58   152   151    1
    59   152   153    1
    60   165   164    1
    61     8     6   ar
    62     8    10   ar
    63    14    12   ar
    64     3     4    2
    65   104   105    2
    66     6     7   ar
    67   132   131    1
    68   106   107    1
    69   108   107   ar
    70   108   110   ar
    71   164   166    1
    72   164   163    1
    73   153   154    2
    74   137   135    1
    75    10    12   ar
    76    10     9   ar
    77   107   109   ar
    78   175   173   ar
    79   175   177   ar
    80     7     9   ar
    81   160   159    1
    82   160   163    1
    83   160   161    1
    84   110   112   ar
    85   173   172   ar
    86   131   130    1
    87   131   134    1
    88   177   176   ar
    89   168   169    1
    90   168   167    1
    91   168   171    1
    92   169   170    2
    93   161   162    2
    94   135   134    1
    95   135   136    1
    96   247   246    1
    97   109   111   ar
    98   172   171    1
    99   172   174   ar
   100   112   111   ar
   101   112   113    1
   102   244   243    2
   103   176   174   ar
   104   245   246    1
   105   245   242    1
   106   246   248    1
   107   243   242    1
   108   125   124    2
   109   228   227    2
   110    67    65    1
   111   242   241    1
   112    63    62    2
   113    22    20    1
   114   241   235   am
   115   239   238    2
   116    65    64    1
   117    65    66    1
   118   124   123    1
   119    62    61    1
   120   220   219    2
   121   227   233   am
   122   227   226    1
   123   224   222    1
   124    64    61    1
   125   234   235    1
   126   234   233    1
   127   234   237    1
   128   114   115    1
   129   235   236    2
   130   238   237    1
   131   238   240   am
   132   229   231    1
   133   229   226    1
   134   229   230    1
   135   225   226    1
   136    20    19    1
   137    20    21    1
   138    61    60    1
   139    19    16    1
   140   128   126    1
   141   123   122    1
   142   123   126    1
   143   219   218    1
   144   232   230    1
   145   115   118    1
   146   115   116    1
   147   126   127    1
   148   118   119    1
   149   222   221    1
   150   222   223    1
   151   221   218    1
   152   218   217    1
   153   120   119    1
   154    16    15    1
   155    16    17    1
   156   119   121    1
   157   116   117    2
   158   127   129    1
   159   211   210    2
   160   217   210   am
   161    17    18    2
   162    38    36    1
   163   210   209    1
   164    36    35    1
   165    58    59   ar
   166    58    56   ar
   167   203   202    2
   168    30    28    1
   169    59    57   ar
   170   206   205    1
   171   207   205    1
   172   204   205    1
   173   204   201    1
   174    56    54   ar
   175   202   201    1
   176   209   212    1
   177   209   208    1
   178    27    28    1
   179    27    24    1
   180    28    29    1
   181    35    37    1
   182    35    32    1
   183   201   200    1
   184    57    55   ar
   185   212   213    1
   186    52    51    2
   187    51    50    1
   188    31    32    1
   189    31    25   am
   190   215   214   ar
   191    54    55   ar
   192    54    53    1
   193   187   188   ar
   194   187   185   ar
   195    32    33    1
   196    23    24    1
   197    24    25    1
   198   188   186   ar
   199    25    26    2
   200   200   191   am
   201   213   214    1
   202   214   216   ar
   203    50    53    1
   204    50    49    1
   205   192   191    2
   206   185   183   ar
   207   198   199   ar
   208   198   196   ar
   209   191   190    1
   210    33    34    2
   211   199   197   ar
   212   196   194   ar
   213   186   184   ar
   214   181   180    2
   215   183   184   ar
   216   183   182    1
   217    47    45   ar
   218    47    48   ar
   219    45    44   ar
   220    48    46   ar
   221    44    46   ar
   222    44    43    1
   223   180   179    1
   224   197   195   ar
   225    43    40    1
   226   194   195   ar
   227   194   193    1
   228   190   189    1
   229   190   193    1
   230   182   179    1
   231   179   178    1
   232    40    39    1
   233    40    41    1
   234    41    42    2
