@<TRIPOS>MOLECULE
tmp/5gydD00.pdb
 158 148 0 0 0
SMALL
GASTEIGER

@<TRIPOS>ATOM
      1  N         44.4550   66.3940  -44.5890 N.3     8  TRP8       -0.1241
      2  CA        45.7200   65.8920  -45.1110 C.3     8  TRP8        0.1605
      3  C         46.3210   66.8210  -46.1710 C.2     8  TRP8        0.2264
      4  O         47.0760   66.3690  -47.0300 O.2     8  TRP8       -0.2867
      5  CB        45.5060   64.4980  -45.7070 C.3     8  TRP8        0.0550
      6  CG        44.5170   64.5100  -46.8370 C.ar    8  TRP8        0.0003
      7  CD1       44.7960   64.6560  -48.1640 C.ar    8  TRP8        0.0946
      8  CD2       43.0890   64.3990  -46.7400 C.ar    8  TRP8        0.0152
      9  NE1       43.6380   64.6350  -48.8960 N.ar    8  TRP8       -0.2442
     10  CE2       42.5750   64.4790  -48.0470 C.ar    8  TRP8        0.0810
     11  CE3       42.2000   64.2360  -45.6730 C.ar    8  TRP8        0.0012
     12  CZ2       41.2120   64.4020  -48.3220 C.ar    8  TRP8        0.0191
     13  CZ3       40.8470   64.1590  -45.9480 C.ar    8  TRP8        0.0001
     14  CH2       40.3660   64.2420  -47.2610 C.ar    8  TRP8        0.0015
     15  N         50.1140   67.6520  -46.7400 N.3    11  LEU11      -0.1231
     16  CA        50.5640   66.3500  -47.1890 C.3    11  LEU11       0.1693
     17  C         50.1670   66.2710  -48.6540 C.2    11  LEU11       0.2591
     18  O         49.0230   65.9310  -48.9390 O.2    11  LEU11      -0.2718
     19  CB        49.9590   65.1850  -46.3440 C.3    11  LEU11       0.0284
     20  CG        50.4770   63.7600  -46.5140 C.3    11  LEU11       0.0019
     21  CD1       52.0260   63.7030  -46.1800 C.3    11  LEU11       0.0001
     22  CD2       49.5670   62.7750  -45.7020 C.3    11  LEU11       0.0001
     23  N         51.0630   66.6580  -49.5570 N.am   12  GLU12      -0.1979
     24  CA        51.1140   66.1210  -50.9080 C.3    12  GLU12       0.1602
     25  C         49.7470   66.1090  -51.5740 C.2    12  GLU12       0.2287
     26  O         49.3360   65.0850  -52.1190 O.2    12  GLU12      -0.2864
     27  CB        51.7030   64.7080  -50.8990 C.3    12  GLU12       0.0415
     28  CG        51.5790   63.9930  -49.5630 C.3    12  GLU12       0.1163
     29  CD        50.7950   62.7000  -49.6650 C.2    12  GLU12       0.3649
     30  OE1       49.8060   62.6610  -50.4270 O.co2  12  GLU12      -0.2457
     31  OE2       51.1670   61.7220  -48.9830 O.co2  12  GLU12      -0.2457
     32  N         45.0260   65.3370  -53.5030 N.3    15  ASN15      -0.1225
     33  CA        43.9810   64.4230  -53.1010 C.3    15  ASN15       0.1785
     34  C         44.4800   63.0950  -53.6260 C.2    15  ASN15       0.2597
     35  O         43.7800   62.3870  -54.3500 O.2    15  ASN15      -0.2718
     36  CB        42.6510   64.7940  -53.7510 C.3    15  ASN15       0.1169
     37  CG        42.2200   66.2110  -53.4290 C.2    15  ASN15       0.2627
     38  OD1       41.0500   66.5640  -53.5720 O.2    15  ASN15      -0.2716
     39  ND2       43.1680   67.0320  -52.9920 N.am   15  ASN15      -0.0877
     40  N         45.7210   62.7800  -53.2630 N.am   16  ARG16      -0.1966
     41  CA        46.5350   61.8070  -53.9680 C.3    16  ARG16       0.1729
     42  C         45.8430   60.4620  -54.0010 C.2    16  ARG16       0.2616
     43  O         45.8590   59.7890  -55.0310 O.2    16  ARG16      -0.2715
     44  CB        47.9070   61.6760  -53.3030 C.3    16  ARG16       0.0348
     45  CG        48.8050   60.6240  -53.9350 C.3    16  ARG16       0.0492
     46  CD        49.7930   60.0630  -52.9260 C.3    16  ARG16       0.2205
     47  NE        50.7540   61.0690  -52.4830 N.pl3  16  ARG16      -0.0865
     48  CZ        52.0330   61.0920  -52.8460 C.cat  16  ARG16       0.5346
     49  NH1       52.5090   60.1600  -53.6600 N.pl3  16  ARG16       0.1354
     50  NH2       52.8350   62.0460  -52.3940 N.pl3  16  ARG16       0.1354
     51  N         45.2060   60.0650  -52.9060 N.am   17  LEU17      -0.1977
     52  CA        44.2970   58.9200  -53.0320 C.3    17  LEU17       0.1596
     53  C         43.1750   59.1490  -54.0690 C.2    17  LEU17       0.2287
     54  O         42.8450   58.2520  -54.8440 O.2    17  LEU17      -0.2864
     55  CB        43.6910   58.5670  -51.6730 C.3    17  LEU17       0.0297
     56  CG        42.8860   57.2680  -51.6070 C.3    17  LEU17       0.0022
     57  CD1       43.7090   56.0980  -52.1240 C.3    17  LEU17       0.0001
     58  CD2       42.4050   57.0040  -50.1880 C.3    17  LEU17       0.0001
     59  N         33.7940   57.5130  -43.7640 N.3    53  PRO53      -0.2116
     60  CA        33.1070   56.3560  -43.1900 C.3    53  PRO53       0.1372
     61  C         33.0820   56.3610  -41.6660 C.2    53  PRO53       0.2244
     62  O         33.8740   57.0530  -41.0250 O.2    53  PRO53      -0.2868
     63  CB        33.9380   55.1810  -43.6990 C.3    53  PRO53       0.0268
     64  CG        35.3170   55.7390  -43.8000 C.3    53  PRO53       0.0207
     65  CD        35.1440   57.1680  -44.2460 C.3    53  PRO53       0.0892
     66  N         34.1650   54.1720  -38.7670 N.3    55  ILE55      -0.1245
     67  CA        35.1650   53.1190  -38.6590 C.3    55  ILE55       0.1561
     68  C         35.1800   52.4700  -37.2830 C.2    55  ILE55       0.2260
     69  O         35.3770   53.1360  -36.2700 O.2    55  ILE55      -0.2867
     70  CB        36.5750   53.6540  -38.9690 C.3    55  ILE55       0.0252
     71  CG1       36.6400   54.1780  -40.4040 C.3    55  ILE55       0.0019
     72  CG2       37.6180   52.5680  -38.7530 C.3    55  ILE55       0.0019
     73  CD1       38.0010   54.7060  -40.8000 C.3    55  ILE55       0.0001
     74  N         39.2910   46.4130  -40.0840 N.3    80  LEU80      -0.1245
     75  CA        38.2900   47.4430  -39.8400 C.3    80  LEU80       0.1561
     76  C         36.9050   47.0780  -40.3570 C.2    80  LEU80       0.2260
     77  O         36.7580   46.5260  -41.4430 O.2    80  LEU80      -0.2867
     78  CB        38.7280   48.7640  -40.4780 C.3    80  LEU80       0.0270
     79  CG        40.0720   49.3580  -40.0550 C.3    80  LEU80       0.0019
     80  CD1       40.3960   50.5840  -40.8940 C.3    80  LEU80       0.0001
     81  CD2       40.0620   49.7030  -38.5750 C.3    80  LEU80       0.0001
     82  N         33.9230   48.9920  -41.8040 N.3    82  VAL82      -0.1245
     83  CA        33.7690   50.3010  -42.4200 C.3    82  VAL82       0.1561
     84  C         32.3500   50.5120  -42.9350 C.2    82  VAL82       0.2260
     85  O         31.8760   49.7720  -43.8000 O.2    82  VAL82      -0.2867
     86  CB        34.7720   50.4850  -43.5770 C.3    82  VAL82       0.0252
     87  CG1       34.4410   51.7260  -44.3830 C.3    82  VAL82       0.0019
     88  CG2       36.1930   50.5550  -43.0370 C.3    82  VAL82       0.0019
     89  N         37.2640   45.6600  -44.1310 N.3   123  CYS123     -0.1235
     90  CA        38.4910   46.0200  -44.8300 C.3   123  CYS123      0.1677
     91  C         39.7030   45.6640  -43.9790 C.2   123  CYS123      0.2270
     92  O         39.5730   45.3330  -42.7970 O.2   123  CYS123     -0.2867
     93  CB        38.5360   47.5220  -45.1250 C.3   123  CYS123      0.0956
     94  SG        37.0040   48.2530  -45.7100 S.3   123  CYS123     -0.0801
     95  N         43.7600   47.4760  -43.4180 N.3   125  VAL125     -0.1245
     96  CA        44.7280   48.5070  -43.7740 C.3   125  VAL125      0.1561
     97  C         46.0860   48.1500  -43.1920 C.2   125  VAL125      0.2260
     98  O         46.2450   48.0850  -41.9760 O.2   125  VAL125     -0.2867
     99  CB        44.3030   49.8990  -43.2680 C.3   125  VAL125      0.0252
    100  CG1       45.3320   50.9440  -43.6720 C.3   125  VAL125      0.0019
    101  CG2       42.9300   50.2670  -43.8090 C.3   125  VAL125      0.0019
    102  N         51.8930   51.3420  -48.0370 N.3   132  LEU132     -0.1245
    103  CA        50.5820   51.2290  -47.4090 C.3   132  LEU132      0.1561
    104  C         49.6470   50.3620  -48.2520 C.2   132  LEU132      0.2260
    105  O         49.5820   50.5170  -49.4670 O.2   132  LEU132     -0.2867
    106  CB        49.9870   52.6230  -47.2050 C.3   132  LEU132      0.0270
    107  CG        48.6640   52.7750  -46.4560 C.3   132  LEU132      0.0019
    108  CD1       48.7040   52.0490  -45.1230 C.3   132  LEU132      0.0001
    109  CD2       48.3470   54.2500  -46.2620 C.3   132  LEU132      0.0001
    110  N         45.6630   48.8390  -48.8170 N.3   134  LEU134     -0.1231
    111  CA        44.2380   48.9060  -48.4940 C.3   134  LEU134      0.1693
    112  C         43.4640   47.8400  -49.2600 C.2   134  LEU134      0.2593
    113  O         43.6840   47.6590  -50.4510 O.2   134  LEU134     -0.2718
    114  CB        43.6730   50.2910  -48.8200 C.3   134  LEU134      0.0284
    115  CG        44.6090   51.4910  -48.6640 C.3   134  LEU134      0.0019
    116  CD1       44.0180   52.7180  -49.3390 C.3   134  LEU134      0.0001
    117  CD2       44.8890   51.7690  -47.1980 C.3   134  LEU134      0.0001
    118  N         42.5560   47.1350  -48.5920 N.am  135  SER135     -0.1938
    119  CA        41.7810   46.1030  -49.2780 C.3   135  SER135      0.2055
    120  C         40.4530   45.7820  -48.6040 C.2   135  SER135      0.2643
    121  O         40.4050   45.4740  -47.4140 O.2   135  SER135     -0.2714
    122  CB        42.6050   44.8190  -49.4000 C.3   135  SER135      0.2130
    123  OG        41.8950   43.8300  -50.1270 O.3   135  SER135     -0.2179
    124  N         39.3760   45.8540  -49.3820 N.am  136  PHE136     -0.1973
    125  CA        38.0700   45.3910  -48.9340 C.3   136  PHE136      0.1639
    126  C         38.0470   43.8710  -48.8920 C.2   136  PHE136      0.2290
    127  O         38.1850   43.2180  -49.9260 O.2   136  PHE136     -0.2864
    128  CB        36.9590   45.8970  -49.8570 C.3   136  PHE136      0.0560
    129  CG        36.6730   47.3640  -49.7250 C.ar  136  PHE136     -0.0200
    130  CD1       35.7780   47.8240  -48.7760 C.ar  136  PHE136     -0.0042
    131  CD2       37.2900   48.2810  -50.5580 C.ar  136  PHE136     -0.0042
    132  CE1       35.5100   49.1730  -48.6510 C.ar  136  PHE136     -0.0003
    133  CE2       37.0250   49.6320  -50.4390 C.ar  136  PHE136     -0.0003
    134  CZ        36.1340   50.0780  -49.4830 C.ar  136  PHE136     -0.0000
    135  N         39.8050   46.7320  -55.7810 N.3   213  LEU213     -0.1245
    136  CA        39.8260   47.0780  -54.3620 C.3   213  LEU213      0.1561
    137  C         39.4630   45.9160  -53.4420 C.2   213  LEU213      0.2260
    138  O         39.7840   45.9380  -52.2540 O.2   213  LEU213     -0.2867
    139  CB        38.8830   48.2530  -54.0900 C.3   213  LEU213      0.0270
    140  CG        39.3890   49.6750  -54.3560 C.3   213  LEU213      0.0019
    141  CD1       39.6430   49.9370  -55.8350 C.3   213  LEU213      0.0001
    142  CD2       38.4090   50.6920  -53.7920 C.3   213  LEU213      0.0001
    143  N         44.8270   48.0550  -53.0420 N.3   219  ILE219     -0.1245
    144  CA        45.4240   49.3300  -53.4040 C.3   219  ILE219      0.1561
    145  C         46.7600   49.4940  -52.6900 C.2   219  ILE219      0.2260
    146  O         46.8380   49.4000  -51.4590 O.2   219  ILE219     -0.2867
    147  CB        44.5040   50.5130  -53.0510 C.3   219  ILE219      0.0252
    148  CG1       43.2260   50.4620  -53.8890 C.3   219  ILE219      0.0019
    149  CG2       45.2250   51.8340  -53.2730 C.3   219  ILE219      0.0019
    150  CD1       43.4630   50.6560  -55.3690 C.3   219  ILE219      0.0001
    151  N         50.0450   51.9150  -51.9220 N.3   221  LEU221     -0.1245
    152  CA        50.5030   53.2940  -51.8620 C.3   221  LEU221      0.1561
    153  C         51.9660   53.4060  -51.4850 C.2   221  LEU221      0.2260
    154  O         52.3770   52.9300  -50.4240 O.2   221  LEU221     -0.2867
    155  CB        49.6790   54.1020  -50.8580 C.3   221  LEU221      0.0270
    156  CG        48.2140   54.4260  -51.1460 C.3   221  LEU221      0.0019
    157  CD1       47.6050   55.1420  -49.9510 C.3   221  LEU221      0.0001
    158  CD2       48.0880   55.2770  -52.3950 C.3   221  LEU221      0.0001
@<TRIPOS>BOND
     1   141   140    1
     2   135   136    1
     3   150   148    1
     4    43    42    2
     5    54    53    2
     6   136   139    1
     7   136   137    1
     8   140   139    1
     9   140   142    1
    10    35    34    2
    11    53    52    1
    12    42    41    1
    13    42    51   am
    14    41    44    1
    15    41    40    1
    16    45    44    1
    17    45    46    1
    18   148   147    1
    19    36    37    1
    20    36    33    1
    21    49    48    1
    22    34    40   am
    23    34    33    1
    24    38    37    2
    25    32    33    1
    26   137   138    2
    27    37    39   am
    28   144   147    1
    29   144   143    1
    30   144   145    1
    31   149   147    1
    32    52    51    1
    33    52    55    1
    34    46    47    1
    35    48    47    2
    36    48    50    1
    37   145   146    2
    38   158   156    1
    39    57    56    1
    40    26    25    2
    41   151   152    1
    42   152   153    1
    43   152   155    1
    44    55    56    1
    45    56    58    1
    46    25    24    1
    47   153   154    2
    48   156   155    1
    49   156   157    1
    50    24    27    1
    51    24    23    1
    52    27    28    1
    53   131   133   ar
    54   131   129   ar
    55   113   112    2
    56   133   134   ar
    57    30    29   ar
    58   123   122    1
    59   127   126    2
    60   128   129    1
    61   128   125    1
    62   129   130   ar
    63    29    28    1
    64    29    31   ar
    65    23    17   am
    66   134   132   ar
    67   105   104    2
    68   122   119    1
    69   124   125    1
    70   124   120   am
    71   116   115    1
    72   119   120    1
    73   119   118    1
    74   112   118   am
    75   112   111    1
    76    18    17    2
    77   125   126    1
    78     9     7   ar
    79     9    10   ar
    80   114   115    1
    81   114   111    1
    82   110   111    1
    83   130   132   ar
    84   115   117    1
    85    17    16    1
    86   120   121    2
    87    12    10   ar
    88    12    14   ar
    89   104   103    1
    90     7     6   ar
    91    10     8   ar
    92   102   103    1
    93   103   106    1
    94    14    13   ar
    95   106   107    1
    96    16    15    1
    97    16    19    1
    98     4     3    2
    99     6     8   ar
   100     6     5    1
   101     8    11   ar
   102    20    19    1
   103    20    21    1
   104    20    22    1
   105   107   109    1
   106   107   108    1
   107     3     2    1
   108    13    11   ar
   109    94    93    1
   110     5     2    1
   111    93    90    1
   112     2     1    1
   113    90    89    1
   114    90    91    1
   115    87    86    1
   116    65    64    1
   117    65    59    1
   118    91    92    2
   119   101    99    1
   120    64    63    1
   121    85    84    2
   122    96    95    1
   123    96    99    1
   124    96    97    1
   125    59    60    1
   126    63    60    1
   127   100    99    1
   128    86    88    1
   129    86    83    1
   130    97    98    2
   131    60    61    1
   132    84    83    1
   133    83    82    1
   134    61    62    2
   135    77    76    2
   136    80    79    1
   137    73    71    1
   138    78    79    1
   139    78    75    1
   140    71    70    1
   141    76    75    1
   142    74    75    1
   143    79    81    1
   144    70    72    1
   145    70    67    1
   146    66    67    1
   147    67    68    1
   148    68    69    2
