@<TRIPOS>MOLECULE
tmp/5gydD01.pdb
 157 147 0 0 0
SMALL
GASTEIGER

@<TRIPOS>ATOM
      1  N         39.6350   65.1550  -40.1400 N.3     6  ILE6       -0.1245
      2  CA        41.0430   65.0000  -40.4860 C.3     6  ILE6        0.1561
      3  C         41.3880   65.7310  -41.7850 C.2     6  ILE6        0.2260
      4  O         40.6490   65.6560  -42.7660 O.2     6  ILE6       -0.2867
      5  CB        41.4100   63.5060  -40.6010 C.3     6  ILE6        0.0252
      6  CG1       41.4330   62.8690  -39.2110 C.3     6  ILE6        0.0019
      7  CG2       42.7590   63.3240  -41.2700 C.3     6  ILE6        0.0019
      8  CD1       41.3290   61.3620  -39.2240 C.3     6  ILE6        0.0001
      9  N         44.4550   66.3940  -44.5890 N.3     8  TRP8       -0.1241
     10  CA        45.7200   65.8920  -45.1110 C.3     8  TRP8        0.1605
     11  C         46.3210   66.8210  -46.1710 C.2     8  TRP8        0.2264
     12  O         47.0760   66.3690  -47.0300 O.2     8  TRP8       -0.2867
     13  CB        45.5060   64.4980  -45.7070 C.3     8  TRP8        0.0550
     14  CG        44.5170   64.5100  -46.8370 C.ar    8  TRP8        0.0003
     15  CD1       44.7960   64.6560  -48.1640 C.ar    8  TRP8        0.0946
     16  CD2       43.0890   64.3990  -46.7400 C.ar    8  TRP8        0.0152
     17  NE1       43.6380   64.6350  -48.8960 N.ar    8  TRP8       -0.2442
     18  CE2       42.5750   64.4790  -48.0470 C.ar    8  TRP8        0.0810
     19  CE3       42.2000   64.2360  -45.6730 C.ar    8  TRP8        0.0012
     20  CZ2       41.2120   64.4020  -48.3220 C.ar    8  TRP8        0.0191
     21  CZ3       40.8470   64.1590  -45.9480 C.ar    8  TRP8        0.0001
     22  CH2       40.3660   64.2420  -47.2610 C.ar    8  TRP8        0.0015
     23  N         50.1140   67.6520  -46.7400 N.3    11  LEU11      -0.1245
     24  CA        50.5640   66.3500  -47.1890 C.3    11  LEU11       0.1561
     25  C         50.1670   66.2710  -48.6540 C.2    11  LEU11       0.2260
     26  O         49.0230   65.9310  -48.9390 O.2    11  LEU11      -0.2867
     27  CB        49.9590   65.1850  -46.3440 C.3    11  LEU11       0.0270
     28  CG        50.4770   63.7600  -46.5140 C.3    11  LEU11       0.0019
     29  CD1       52.0260   63.7030  -46.1800 C.3    11  LEU11       0.0001
     30  CD2       49.5670   62.7750  -45.7020 C.3    11  LEU11       0.0001
     31  N         45.2060   60.0650  -52.9060 N.3    17  LEU17      -0.1245
     32  CA        44.2970   58.9200  -53.0320 C.3    17  LEU17       0.1561
     33  C         43.1750   59.1490  -54.0690 C.2    17  LEU17       0.2260
     34  O         42.8450   58.2520  -54.8440 O.2    17  LEU17      -0.2867
     35  CB        43.6910   58.5670  -51.6730 C.3    17  LEU17       0.0270
     36  CG        42.8860   57.2680  -51.6070 C.3    17  LEU17       0.0019
     37  CD1       43.7090   56.0980  -52.1240 C.3    17  LEU17       0.0001
     38  CD2       42.4050   57.0040  -50.1880 C.3    17  LEU17       0.0001
     39  N         42.8830   56.7670  -57.4940 N.3    21  ILE21      -0.1245
     40  CA        41.6170   56.1200  -57.8050 C.3    21  ILE21       0.1561
     41  C         41.0760   56.5950  -59.1500 C.2    21  ILE21       0.2260
     42  O         40.5780   55.7910  -59.9380 O.2    21  ILE21      -0.2867
     43  CB        40.5620   56.3790  -56.7120 C.3    21  ILE21       0.0252
     44  CG1       41.0540   55.8590  -55.3610 C.3    21  ILE21       0.0019
     45  CG2       39.2450   55.7130  -57.0720 C.3    21  ILE21       0.0019
     46  CD1       41.2120   54.3570  -55.3080 C.3    21  ILE21       0.0001
     47  N         36.6460   63.0950  -60.0550 N.3    46  PHE46      -0.1241
     48  CA        36.5070   62.2240  -58.8950 C.3    46  PHE46       0.1605
     49  C         36.6490   63.0580  -57.6290 C.2    46  PHE46       0.2264
     50  O         37.5150   63.9290  -57.5530 O.2    46  PHE46      -0.2867
     51  CB        37.5490   61.1040  -58.9260 C.3    46  PHE46       0.0534
     52  CG        37.3470   60.0550  -57.8690 C.ar   46  PHE46      -0.0203
     53  CD1       36.6000   58.9200  -58.1360 C.ar   46  PHE46      -0.0042
     54  CD2       37.9080   60.2010  -56.6100 C.ar   46  PHE46      -0.0042
     55  CE1       36.4120   57.9530  -57.1670 C.ar   46  PHE46      -0.0003
     56  CE2       37.7230   59.2390  -55.6380 C.ar   46  PHE46      -0.0003
     57  CZ        36.9750   58.1130  -55.9170 C.ar   46  PHE46      -0.0000
     58  N         36.4000   62.4390  -53.3670 N.3    48  LEU48      -0.1245
     59  CA        36.1570   61.6890  -52.1330 C.3    48  LEU48       0.1561
     60  C         35.1680   62.3980  -51.2110 C.2    48  LEU48       0.2260
     61  O         34.4410   61.7540  -50.4550 O.2    48  LEU48      -0.2867
     62  CB        37.4700   61.4450  -51.3840 C.3    48  LEU48       0.0270
     63  CG        38.4910   60.5020  -52.0200 C.3    48  LEU48       0.0019
     64  CD1       39.8050   60.5430  -51.2570 C.3    48  LEU48       0.0001
     65  CD2       37.9440   59.0890  -52.0550 C.3    48  LEU48       0.0001
     66  N         33.3900   61.0960  -44.4780 N.3    52  GLY52      -0.1210
     67  CA        34.0340   59.7990  -44.5440 C.3    52  GLY52       0.1940
     68  C         33.1980   58.7010  -43.9220 C.2    52  GLY52       0.2453
     69  O         32.0310   58.9090  -43.5930 O.2    52  GLY52      -0.2732
     70  N         33.7940   57.5130  -43.7640 N.am   53  PRO53      -0.2728
     71  CA        33.1070   56.3560  -43.1900 C.3    53  PRO53       0.1401
     72  C         33.0820   56.3610  -41.6660 C.2    53  PRO53       0.2269
     73  O         33.8740   57.0530  -41.0250 O.2    53  PRO53      -0.2865
     74  CB        33.9380   55.1810  -43.6990 C.3    53  PRO53       0.0296
     75  CG        35.3170   55.7390  -43.8000 C.3    53  PRO53       0.0237
     76  CD        35.1440   57.1680  -44.2460 C.3    53  PRO53       0.0939
     77  N         33.9230   48.9920  -41.8040 N.3    82  VAL82      -0.1245
     78  CA        33.7690   50.3010  -42.4200 C.3    82  VAL82       0.1561
     79  C         32.3500   50.5120  -42.9350 C.2    82  VAL82       0.2260
     80  O         31.8760   49.7720  -43.8000 O.2    82  VAL82      -0.2867
     81  CB        34.7720   50.4850  -43.5770 C.3    82  VAL82       0.0252
     82  CG1       34.4410   51.7260  -44.3830 C.3    82  VAL82       0.0019
     83  CG2       36.1930   50.5550  -43.0370 C.3    82  VAL82       0.0019
     84  N         30.1130   53.1870  -44.8180 N.3    84  TYR84      -0.1241
     85  CA        30.1240   54.4050  -45.6120 C.3    84  TYR84       0.1605
     86  C         28.7440   54.7990  -46.1290 C.2    84  TYR84       0.2264
     87  O         28.0610   54.0130  -46.7940 O.2    84  TYR84      -0.2867
     88  CB        31.0850   54.2510  -46.7930 C.3    84  TYR84       0.0534
     89  CG        31.3830   55.5480  -47.5130 C.ar   84  TYR84      -0.0201
     90  CD1       32.3010   56.4520  -46.9970 C.ar   84  TYR84      -0.0009
     91  CD2       30.7500   55.8670  -48.7070 C.ar   84  TYR84      -0.0009
     92  CE1       32.5800   57.6370  -47.6470 C.ar   84  TYR84       0.0417
     93  CE2       31.0240   57.0510  -49.3650 C.ar   84  TYR84       0.0417
     94  CZ        31.9410   57.9300  -48.8310 C.ar   84  TYR84       0.1957
     95  OH        32.2200   59.1140  -49.4740 O.3    84  TYR84      -0.2866
     96  N         30.9420   60.8670  -51.5010 N.3    88  LEU88      -0.1245
     97  CA        31.7660   60.5790  -52.6690 C.3    88  LEU88       0.1561
     98  C         30.9940   60.9280  -53.9340 C.2    88  LEU88       0.2260
     99  O         29.7980   60.6560  -54.0330 O.2    88  LEU88      -0.2867
    100  CB        32.1880   59.1070  -52.6870 C.3    88  LEU88       0.0270
    101  CG        32.8810   58.5740  -53.9440 C.3    88  LEU88       0.0019
    102  CD1       34.1250   59.3800  -54.2610 C.3    88  LEU88       0.0001
    103  CD2       33.2350   57.1090  -53.7730 C.3    88  LEU88       0.0001
    104  N         26.8150   56.6780  -52.4320 N.3   117  ILE117     -0.1245
    105  CA        27.2460   55.2890  -52.3870 C.3   117  ILE117      0.1561
    106  C         27.0920   54.7010  -50.9890 C.2   117  ILE117      0.2260
    107  O         27.6640   55.2070  -50.0240 O.2   117  ILE117     -0.2867
    108  CB        28.7070   55.1470  -52.8490 C.3   117  ILE117      0.0252
    109  CG1       28.8030   55.4070  -54.3530 C.3   117  ILE117      0.0019
    110  CG2       29.2450   53.7680  -52.5120 C.3   117  ILE117      0.0019
    111  CD1       30.2130   55.5210  -54.8700 C.3   117  ILE117      0.0001
    112  N         27.6950   51.5730  -48.3930 N.3   119  LEU119     -0.1245
    113  CA        28.7350   50.5660  -48.2480 C.3   119  LEU119      0.1561
    114  C         28.8430   50.1500  -46.7850 C.2   119  LEU119      0.2260
    115  O         28.6970   50.9760  -45.8960 O.2   119  LEU119     -0.2867
    116  CB        30.0620   51.1220  -48.7810 C.3   119  LEU119      0.0270
    117  CG        31.3090   50.2630  -48.9810 C.3   119  LEU119      0.0019
    118  CD1       32.0640   50.7630  -50.1980 C.3   119  LEU119      0.0001
    119  CD2       32.2050   50.3260  -47.7590 C.3   119  LEU119      0.0001
    120  N         39.3760   45.8540  -49.3820 N.3   136  PHE136     -0.1241
    121  CA        38.0700   45.3910  -48.9340 C.3   136  PHE136      0.1605
    122  C         38.0470   43.8710  -48.8920 C.2   136  PHE136      0.2264
    123  O         38.1850   43.2180  -49.9260 O.2   136  PHE136     -0.2867
    124  CB        36.9590   45.8970  -49.8570 C.3   136  PHE136      0.0534
    125  CG        36.6730   47.3640  -49.7250 C.ar  136  PHE136     -0.0203
    126  CD1       35.7780   47.8240  -48.7760 C.ar  136  PHE136     -0.0042
    127  CD2       37.2900   48.2810  -50.5580 C.ar  136  PHE136     -0.0042
    128  CE1       35.5100   49.1730  -48.6510 C.ar  136  PHE136     -0.0003
    129  CE2       37.0250   49.6320  -50.4390 C.ar  136  PHE136     -0.0003
    130  CZ        36.1340   50.0780  -49.4830 C.ar  136  PHE136     -0.0000
    131  N         30.8310   49.8480  -62.3310 N.3   205  PHE205     -0.1241
    132  CA        31.4830   50.4030  -61.1520 C.3   205  PHE205      0.1605
    133  C         31.6720   49.3180  -60.0970 C.2   205  PHE205      0.2264
    134  O         32.7770   49.1600  -59.5520 O.2   205  PHE205     -0.2867
    135  CB        30.6830   51.5730  -60.5790 C.3   205  PHE205      0.0534
    136  CG        31.4770   52.4480  -59.6530 C.ar  205  PHE205     -0.0203
    137  CD1       32.5790   53.1470  -60.1190 C.ar  205  PHE205     -0.0042
    138  CD2       31.1280   52.5710  -58.3180 C.ar  205  PHE205     -0.0042
    139  CE1       33.3170   53.9530  -59.2720 C.ar  205  PHE205     -0.0003
    140  CE2       31.8610   53.3770  -57.4650 C.ar  205  PHE205     -0.0003
    141  CZ        32.9570   54.0680  -57.9430 C.ar  205  PHE205     -0.0000
    142  N         35.3400   47.9630  -58.6610 N.3   209  LEU209     -0.1245
    143  CA        35.6550   47.8710  -57.2430 C.3   209  LEU209      0.1561
    144  C         36.0870   46.4540  -56.8800 C.2   209  LEU209      0.2260
    145  O         37.0560   46.2700  -56.1410 O.2   209  LEU209     -0.2867
    146  CB        34.4610   48.3000  -56.3870 C.3   209  LEU209      0.0270
    147  CG        34.7880   48.6880  -54.9410 C.3   209  LEU209      0.0019
    148  CD1       33.8190   49.7420  -54.4420 C.3   209  LEU209      0.0001
    149  CD2       34.7790   47.4790  -54.0120 C.3   209  LEU209      0.0001
    150  N         39.8050   46.7320  -55.7810 N.3   213  LEU213     -0.1245
    151  CA        39.8260   47.0780  -54.3620 C.3   213  LEU213      0.1561
    152  C         39.4630   45.9160  -53.4420 C.2   213  LEU213      0.2260
    153  O         39.7840   45.9380  -52.2540 O.2   213  LEU213     -0.2867
    154  CB        38.8830   48.2530  -54.0900 C.3   213  LEU213      0.0270
    155  CG        39.3890   49.6750  -54.3560 C.3   213  LEU213      0.0019
    156  CD1       39.6430   49.9370  -55.8350 C.3   213  LEU213      0.0001
    157  CD2       38.4090   50.6920  -53.7920 C.3   213  LEU213      0.0001
@<TRIPOS>BOND
     1   131   132    1
     2   132   135    1
     3   132   133    1
     4   135   136    1
     5   137   136   ar
     6   137   139   ar
     7   133   134    2
     8    47    48    1
     9    42    41    2
    10   136   138   ar
    11   139   141   ar
    12    41    40    1
    13    51    48    1
    14    51    52    1
    15    48    49    1
    16   142   143    1
    17   138   140   ar
    18    53    52   ar
    19    53    55   ar
    20   141   140   ar
    21    52    54   ar
    22    40    39    1
    23    40    43    1
    24    49    50    2
    25   143   144    1
    26   143   146    1
    27    55    57   ar
    28    45    43    1
    29   144   145    2
    30    43    44    1
    31    54    56   ar
    32   146   147    1
    33    57    56   ar
    34   156   155    1
    35   150   151    1
    36    44    46    1
    37   147   148    1
    38   147   149    1
    39   111   109    1
    40    34    33    2
    41   151   154    1
    42   151   152    1
    43   155   154    1
    44   155   157    1
    45   109   108    1
    46   102   101    1
    47    33    32    1
    48    99    98    2
    49   101   103    1
    50   101   100    1
    51    98    97    1
    52   152   153    2
    53    58    59    1
    54    32    31    1
    55    32    35    1
    56   108   110    1
    57   108   105    1
    58   100    97    1
    59    97    96    1
    60   104   105    1
    61   105   106    1
    62    59    62    1
    63    59    60    1
    64    37    36    1
    65    65    63    1
    66    63    62    1
    67    63    64    1
    68    35    36    1
    69    36    38    1
    70    60    61    2
    71   106   107    2
    72   127   129   ar
    73   127   125   ar
    74   129   130   ar
    75   118   117    1
    76   123   122    2
    77   124   125    1
    78   124   121    1
    79   125   126   ar
    80   130   128   ar
    81    95    94    1
    82   120   121    1
    83    93    94   ar
    84    93    91   ar
    85   117   116    1
    86   117   119    1
    87    26    25    2
    88   121   122    1
    89    17    15   ar
    90    17    18   ar
    91    94    92   ar
    92   116   113    1
    93   126   128   ar
    94    91    89   ar
    95    25    24    1
    96   112   113    1
    97    20    18   ar
    98    20    22   ar
    99   113   114    1
   100    15    14   ar
   101    18    16   ar
   102    92    90   ar
   103    89    90   ar
   104    89    88    1
   105    22    21   ar
   106    24    23    1
   107    24    27    1
   108    12    11    2
   109    14    16   ar
   110    14    13    1
   111    87    86    2
   112    88    85    1
   113   114   115    2
   114    16    19   ar
   115    28    27    1
   116    28    29    1
   117    28    30    1
   118    11    10    1
   119    86    85    1
   120    21    19   ar
   121    13    10    1
   122    85    84    1
   123    10     9    1
   124    67    66    1
   125    67    68    1
   126    82    81    1
   127    76    75    1
   128    76    70    1
   129    68    70   am
   130    68    69    2
   131    80    79    2
   132    75    74    1
   133    70    71    1
   134    74    71    1
   135    81    83    1
   136    81    78    1
   137    71    72    1
   138    79    78    1
   139     4     3    2
   140    78    77    1
   141     3     2    1
   142    72    73    2
   143     7     5    1
   144     5     2    1
   145     5     6    1
   146     2     1    1
   147     8     6    1
