@<TRIPOS>MOLECULE
tmp/5gykA00.pdb
 218 212 0 0 0
SMALL
GASTEIGER

@<TRIPOS>ATOM
      1  N          8.8820  -23.1070  -44.6630 N.3     8  TRP8       -0.1241
      2  CA        10.0190  -23.7960  -45.2660 C.3     8  TRP8        0.1605
      3  C         11.3080  -23.5590  -44.4850 C.2     8  TRP8        0.2264
      4  O         12.3710  -23.3690  -45.0750 O.2     8  TRP8       -0.2867
      5  CB        10.2030  -23.3480  -46.7170 C.3     8  TRP8        0.0550
      6  CG        10.1690  -21.8570  -46.8980 C.ar    8  TRP8        0.0003
      7  CD1       11.0730  -20.9500  -46.4230 C.ar    8  TRP8        0.0946
      8  CD2        9.1860  -21.1020  -47.6160 C.ar    8  TRP8        0.0152
      9  NE1       10.7100  -19.6790  -46.7940 N.ar    8  TRP8       -0.2442
     10  CE2        9.5540  -19.7450  -47.5300 C.ar    8  TRP8        0.0810
     11  CE3        8.0280  -21.4420  -48.3220 C.ar    8  TRP8        0.0012
     12  CZ2        8.8080  -18.7290  -48.1210 C.ar    8  TRP8        0.0191
     13  CZ3        7.2870  -20.4320  -48.9090 C.ar    8  TRP8        0.0001
     14  CH2        7.6800  -19.0920  -48.8050 C.ar    8  TRP8        0.0015
     15  N         16.9890  -16.3990  -46.6930 N.3    17  LEU17      -0.1245
     16  CA        16.2300  -15.9630  -47.8610 C.3    17  LEU17       0.1561
     17  C         16.1590  -14.4370  -47.8830 C.2    17  LEU17       0.2260
     18  O         16.4590  -13.8050  -48.9090 O.2    17  LEU17      -0.2867
     19  CB        14.8230  -16.5700  -47.8670 C.3    17  LEU17       0.0270
     20  CG        13.8400  -16.0340  -48.9110 C.3    17  LEU17       0.0019
     21  CD1       14.3620  -16.2690  -50.3210 C.3    17  LEU17       0.0001
     22  CD2       12.4660  -16.6650  -48.7310 C.3    17  LEU17       0.0001
     23  N         19.4360  -13.0530  -48.8320 N.3    20  LEU20      -0.1231
     24  CA        19.7440  -13.2820  -50.2370 C.3    20  LEU20       0.1693
     25  C         19.0980  -12.1810  -51.0710 C.2    20  LEU20       0.2591
     26  O         19.7630  -11.5040  -51.8770 O.2    20  LEU20      -0.2718
     27  CB        19.2520  -14.6590  -50.6850 C.3    20  LEU20       0.0284
     28  CG        19.7900  -15.1700  -52.0230 C.3    20  LEU20       0.0019
     29  CD1       21.0700  -15.9690  -51.8160 C.3    20  LEU20       0.0001
     30  CD2       18.7430  -16.0040  -52.7370 C.3    20  LEU20       0.0001
     31  N         17.7970  -12.0010  -50.8560 N.am   21  ILE21      -0.1980
     32  CA        17.0590  -10.9360  -51.5230 C.3    21  ILE21       0.1595
     33  C         17.7030   -9.5810  -51.2510 C.2    21  ILE21       0.2287
     34  O         17.8540   -8.7620  -52.1570 O.2    21  ILE21      -0.2864
     35  CB        15.5900  -10.8980  -51.0750 C.3    21  ILE21       0.0276
     36  CG1       14.8980  -12.2160  -51.4250 C.3    21  ILE21       0.0022
     37  CG2       14.8720   -9.7320  -51.7220 C.3    21  ILE21       0.0022
     38  CD1       13.5380  -12.3830  -50.7850 C.3    21  ILE21       0.0001
     39  N         20.9940   -9.1600  -53.2610 N.3    24  HIS24      -0.1241
     40  CA        20.8170   -8.8990  -54.6890 C.3    24  HIS24       0.1621
     41  C         20.1160   -7.5660  -54.9700 C.2    24  HIS24       0.2264
     42  O         20.3290   -6.9560  -56.0230 O.2    24  HIS24      -0.2867
     43  CB        20.0720  -10.0550  -55.3520 C.3    24  HIS24       0.0745
     44  CG        20.9310  -11.2360  -55.6410 C.ar   24  HIS24       0.0817
     45  ND1       20.5320  -12.2970  -56.4160 N.ar   24  HIS24      -0.2268
     46  CD2       22.2130  -11.5290  -55.2550 C.ar   24  HIS24       0.1154
     47  CE1       21.5000  -13.1900  -56.5010 C.ar   24  HIS24       0.1986
     48  NE2       22.5320  -12.7360  -55.7980 N.ar   24  HIS24      -0.2212
     49  N         15.7210   -6.3220  -45.2080 N.3    46  PHE46      -0.1241
     50  CA        14.6360   -6.8350  -46.0330 C.3    46  PHE46       0.1605
     51  C         13.8460   -7.8850  -45.2640 C.2    46  PHE46       0.2264
     52  O         14.4180   -8.6930  -44.5310 O.2    46  PHE46      -0.2867
     53  CB        15.1680   -7.4230  -47.3420 C.3    46  PHE46       0.0534
     54  CG        14.0860   -7.8400  -48.2990 C.ar   46  PHE46      -0.0203
     55  CD1       13.5150   -9.1000  -48.2210 C.ar   46  PHE46      -0.0042
     56  CD2       13.6330   -6.9660  -49.2720 C.ar   46  PHE46      -0.0042
     57  CE1       12.5150   -9.4790  -49.0930 C.ar   46  PHE46      -0.0003
     58  CE2       12.6360   -7.3420  -50.1500 C.ar   46  PHE46      -0.0003
     59  CZ        12.0760   -8.6000  -50.0590 C.ar   46  PHE46      -0.0000
     60  N         10.4860  -10.4620  -46.1010 N.3    48  LEU48      -0.1245
     61  CA         9.4620  -10.9260  -47.0340 C.3    48  LEU48       0.1561
     62  C          8.0810  -10.8970  -46.3860 C.2    48  LEU48       0.2260
     63  O          7.0770  -10.6430  -47.0520 O.2    48  LEU48      -0.2867
     64  CB         9.7850  -12.3340  -47.5430 C.3    48  LEU48       0.0270
     65  CG         9.0580  -12.7480  -48.8270 C.3    48  LEU48       0.0019
     66  CD1        9.6310  -12.0130  -50.0320 C.3    48  LEU48       0.0001
     67  CD2        9.1220  -14.2540  -49.0380 C.3    48  LEU48       0.0001
     68  N          1.3230  -13.8930  -47.2090 N.3    52  GLY52      -0.1210
     69  CA         1.5590  -14.2050  -48.6060 C.3    52  GLY52       0.1940
     70  C          0.4480  -13.7250  -49.5200 C.2    52  GLY52       0.2453
     71  O         -0.4020  -12.9330  -49.1110 O.2    52  GLY52      -0.2732
     72  N          0.4510  -14.2050  -50.7720 N.am   53  PRO53      -0.2728
     73  CA        -0.5030  -13.7940  -51.8050 C.3    53  PRO53       0.1401
     74  C         -1.7530  -14.6670  -51.8630 C.2    53  PRO53       0.2269
     75  O         -1.7570  -15.7810  -51.3400 O.2    53  PRO53      -0.2865
     76  CB         0.3100  -13.9480  -53.0840 C.3    53  PRO53       0.0296
     77  CG         1.1640  -15.1490  -52.8000 C.3    53  PRO53       0.0237
     78  CD         1.4840  -15.1040  -51.3180 C.3    53  PRO53       0.0939
     79  N         -1.0750  -10.2920  -54.6120 N.3    87  TYR87      -0.1241
     80  CA        -0.3060   -9.9710  -53.4160 C.3    87  TYR87       0.1605
     81  C         -0.5950   -8.5710  -52.8970 C.2    87  TYR87       0.2264
     82  O         -0.4330   -7.5900  -53.6110 O.2    87  TYR87      -0.2867
     83  CB         1.1950  -10.0950  -53.6860 C.3    87  TYR87       0.0534
     84  CG         2.0480   -9.9300  -52.4440 C.ar   87  TYR87      -0.0201
     85  CD1        2.2930  -11.0050  -51.6020 C.ar   87  TYR87      -0.0009
     86  CD2        2.5920   -8.6950  -52.1060 C.ar   87  TYR87      -0.0009
     87  CE1        3.0650  -10.8620  -50.4670 C.ar   87  TYR87       0.0417
     88  CE2        3.3640   -8.5430  -50.9690 C.ar   87  TYR87       0.0417
     89  CZ         3.5970   -9.6320  -50.1540 C.ar   87  TYR87       0.1957
     90  OH         4.3630   -9.4970  -49.0200 O.3    87  TYR87      -0.2866
     91  N          5.2950   -7.2530  -47.2650 N.3    91  LEU91      -0.1245
     92  CA         6.6850   -7.1570  -47.6820 C.3    91  LEU91       0.1561
     93  C          7.2230   -5.8270  -47.1750 C.2    91  LEU91       0.2260
     94  O          6.5580   -4.7980  -47.2960 O.2    91  LEU91      -0.2867
     95  CB         6.8150   -7.2700  -49.2040 C.3    91  LEU91       0.0270
     96  CG         8.1560   -7.7270  -49.7860 C.3    91  LEU91       0.0019
     97  CD1        7.9750   -8.1860  -51.2230 C.3    91  LEU91       0.0001
     98  CD2        9.2020   -6.6290  -49.7170 C.3    91  LEU91       0.0001
     99  N          3.1760   -3.3950  -50.8360 N.3   120  ILE120     -0.1245
    100  CA         3.3280   -3.5550  -52.2730 C.3   120  ILE120      0.1561
    101  C          2.1170   -4.2620  -52.8690 C.2   120  ILE120      0.2260
    102  O          1.8900   -5.4460  -52.6220 O.2   120  ILE120     -0.2867
    103  CB         4.6050   -4.3350  -52.6170 C.3   120  ILE120      0.0252
    104  CG1        5.8350   -3.5260  -52.2050 C.3   120  ILE120      0.0019
    105  CG2        4.6550   -4.6470  -54.1040 C.3   120  ILE120      0.0019
    106  CD1        7.0610   -4.3680  -51.9620 C.3   120  ILE120      0.0001
    107  N         -0.1120   -5.8980  -55.8830 N.3   122  LEU122     -0.1245
    108  CA         0.2440   -6.7720  -56.9910 C.3   122  LEU122      0.1561
    109  C         -0.9410   -7.6360  -57.4000 C.2   122  LEU122      0.2260
    110  O         -1.6080   -8.2420  -56.5630 O.2   122  LEU122     -0.2867
    111  CB         1.4460   -7.6490  -56.6200 C.3   122  LEU122      0.0270
    112  CG         1.8280   -8.8120  -57.5390 C.3   122  LEU122      0.0019
    113  CD1        2.0530   -8.3330  -58.9570 C.3   122  LEU122      0.0001
    114  CD2        3.0790   -9.4970  -57.0130 C.3   122  LEU122      0.0001
    115  N          9.6590  -20.3040  -61.4050 N.3   137  LEU137     -0.1245
    116  CA         8.5570  -19.3480  -61.2880 C.3   137  LEU137      0.1561
    117  C          8.8650  -18.0830  -62.0720 C.2   137  LEU137      0.2260
    118  O          9.9920  -17.5950  -62.0580 O.2   137  LEU137     -0.2867
    119  CB         8.2680  -19.0030  -59.8220 C.3   137  LEU137      0.0270
    120  CG         7.6150  -17.6400  -59.5420 C.3   137  LEU137      0.0019
    121  CD1        6.1480  -17.6100  -59.9660 C.3   137  LEU137      0.0001
    122  CD2        7.7600  -17.2430  -58.0780 C.3   137  LEU137      0.0001
    123  N          6.7250  -14.2500  -63.3800 N.3   139  PHE139     -0.1241
    124  CA         5.5530  -13.4030  -63.5460 C.3   139  PHE139      0.1605
    125  C          5.4200  -13.0260  -65.0130 C.2   139  PHE139      0.2264
    126  O          6.2600  -12.3110  -65.5560 O.2   139  PHE139     -0.2867
    127  CB         5.6530  -12.1460  -62.6770 C.3   139  PHE139      0.0534
    128  CG         5.4300  -12.3940  -61.2100 C.ar  139  PHE139     -0.0203
    129  CD1        6.3080  -13.1780  -60.4810 C.ar  139  PHE139     -0.0042
    130  CD2        4.3540  -11.8200  -60.5550 C.ar  139  PHE139     -0.0042
    131  CE1        6.1050  -13.4020  -59.1340 C.ar  139  PHE139     -0.0003
    132  CE2        4.1470  -12.0380  -59.2080 C.ar  139  PHE139     -0.0003
    133  CZ         5.0240  -12.8290  -58.4970 C.ar  139  PHE139     -0.0000
    134  N         12.7530    0.4110  -57.5770 N.3   208  PHE208     -0.1241
    135  CA        12.2840   -0.8410  -57.0020 C.3   208  PHE208      0.1605
    136  C         11.3930   -1.5890  -57.9880 C.2   208  PHE208      0.2264
    137  O         11.4920   -2.8190  -58.1210 O.2   208  PHE208     -0.2867
    138  CB        11.5340   -0.5850  -55.6940 C.3   208  PHE208      0.0534
    139  CG        11.3300   -1.8190  -54.8650 C.ar  208  PHE208     -0.0203
    140  CD1       12.4190   -2.5440  -54.4090 C.ar  208  PHE208     -0.0042
    141  CD2       10.0570   -2.2520  -54.5360 C.ar  208  PHE208     -0.0042
    142  CE1       12.2430   -3.6820  -53.6440 C.ar  208  PHE208     -0.0003
    143  CE2        9.8750   -3.3890  -53.7700 C.ar  208  PHE208     -0.0003
    144  CZ        10.9690   -4.1040  -53.3240 C.ar  208  PHE208     -0.0000
    145  N         13.4800   -3.1440  -60.5660 N.3   211  PHE211     -0.1227
    146  CA        14.1630   -4.2610  -59.9190 C.3   211  PHE211      0.1736
    147  C         13.2920   -5.5080  -59.9790 C.2   211  PHE211      0.2595
    148  O         13.7350   -6.5700  -60.4330 O.2   211  PHE211     -0.2718
    149  CB        14.5040   -3.9330  -58.4660 C.3   211  PHE211      0.0547
    150  CG        14.9800   -5.1210  -57.6670 C.ar  211  PHE211     -0.0202
    151  CD1       16.2420   -5.6560  -57.8720 C.ar  211  PHE211     -0.0042
    152  CD2       14.1610   -5.7010  -56.7090 C.ar  211  PHE211     -0.0042
    153  CE1       16.6790   -6.7470  -57.1350 C.ar  211  PHE211     -0.0003
    154  CE2       14.5910   -6.7900  -55.9710 C.ar  211  PHE211     -0.0003
    155  CZ        15.8510   -7.3130  -56.1840 C.ar  211  PHE211     -0.0000
    156  N         12.0490   -5.3700  -59.5240 N.am  212  LEU212     -0.1980
    157  CA        11.1120   -6.4920  -59.5380 C.3   212  LEU212      0.1596
    158  C         10.8020   -6.9660  -60.9590 C.2   212  LEU212      0.2287
    159  O         10.5210   -8.1420  -61.1760 O.2   212  LEU212     -0.2864
    160  CB         9.8180   -6.1180  -58.8120 C.3   212  LEU212      0.0297
    161  CG         9.9740   -5.6900  -57.3510 C.3   212  LEU212      0.0022
    162  CD1        8.6190   -5.5300  -56.6860 C.3   212  LEU212      0.0001
    163  CD2       10.8240   -6.6930  -56.5890 C.3   212  LEU212      0.0001
    164  N         13.8290   -9.0180  -62.0490 N.3   215  GLU215     -0.1231
    165  CA        14.0130  -10.2500  -61.2820 C.3   215  GLU215      0.1699
    166  C         12.8690  -11.2580  -61.4230 C.2   215  GLU215      0.2592
    167  O         13.0920  -12.4660  -61.3570 O.2   215  GLU215     -0.2718
    168  CB        14.2090   -9.9220  -59.7990 C.3   215  GLU215      0.0402
    169  CG        15.5520   -9.2900  -59.4750 C.3   215  GLU215      0.1161
    170  CD        16.6840  -10.3000  -59.4270 C.2   215  GLU215      0.3649
    171  OE1       16.4370  -11.4960  -59.6930 O.co2 215  GLU215     -0.2457
    172  OE2       17.8260   -9.8940  -59.1280 O.co2 215  GLU215     -0.2457
    173  N         11.6500  -10.7630  -61.6110 N.am  216  LEU216     -0.1980
    174  CA        10.4590  -11.6130  -61.5610 C.3   216  LEU216      0.1596
    175  C          9.7130  -11.7080  -62.8880 C.2   216  LEU216      0.2287
    176  O          9.1940  -12.7680  -63.2400 O.2   216  LEU216     -0.2864
    177  CB         9.4900  -11.1060  -60.4870 C.3   216  LEU216      0.0297
    178  CG         9.6600  -11.5610  -59.0370 C.3   216  LEU216      0.0022
    179  CD1       11.0840  -11.3830  -58.5470 C.3   216  LEU216      0.0001
    180  CD2        8.6870  -10.8070  -58.1430 C.3   216  LEU216      0.0001
    181  N         13.2800  -14.8620  -64.5880 N.3   221  TRP221     -0.1227
    182  CA        12.6070  -15.8550  -63.7570 C.3   221  TRP221      0.1737
    183  C         13.4430  -16.3460  -62.5720 C.2   221  TRP221      0.2595
    184  O         14.6550  -16.1410  -62.5250 O.2   221  TRP221     -0.2718
    185  CB        12.1710  -17.0440  -64.6230 C.3   221  TRP221      0.0564
    186  CG        13.2790  -17.7130  -65.3740 C.ar  221  TRP221      0.0003
    187  CD1       14.4490  -18.2230  -64.8720 C.ar  221  TRP221      0.0946
    188  CD2       13.3090  -17.9480  -66.7820 C.ar  221  TRP221      0.0152
    189  NE1       15.2040  -18.7590  -65.9000 N.ar  221  TRP221     -0.2442
    190  CE2       14.5240  -18.6010  -67.0730 C.ar  221  TRP221      0.0810
    191  CE3       12.4290  -17.6660  -67.8200 C.ar  221  TRP221      0.0012
    192  CZ2       14.8670  -18.9740  -68.3620 C.ar  221  TRP221      0.0191
    193  CZ3       12.7750  -18.0410  -69.0790 C.ar  221  TRP221      0.0001
    194  CH2       13.9830  -18.6820  -69.3510 C.ar  221  TRP221      0.0015
    195  N         12.7840  -17.0020  -61.6180 N.am  222  ILE222     -0.1966
    196  CA        13.4520  -17.4900  -60.4110 C.3   222  ILE222      0.1727
    197  C         13.5360  -19.0240  -60.3900 C.2   222  ILE222      0.2616
    198  O         12.5710  -19.7240  -60.7610 O.2   222  ILE222     -0.2715
    199  CB        12.7490  -16.9690  -59.1210 C.3   222  ILE222      0.0290
    200  CG1       11.3480  -17.5640  -58.9410 C.3   222  ILE222      0.0022
    201  CG2       12.6820  -15.4450  -59.1140 C.3   222  ILE222      0.0023
    202  CD1       11.2690  -18.6630  -57.8930 C.3   222  ILE222      0.0001
    203  N         14.6940  -19.5380  -59.9600 N.am  223  ASN223     -0.1958
    204  CA        14.9630  -20.9780  -59.9900 C.3   223  ASN223      0.1819
    205  C         15.1750  -21.5920  -58.6170 C.2   223  ASN223      0.2621
    206  O         16.0130  -21.1320  -57.8440 O.2   223  ASN223     -0.2715
    207  CB        16.1950  -21.2800  -60.8560 C.3   223  ASN223      0.1195
    208  CG        16.3340  -22.7570  -61.1690 C.2   223  ASN223      0.2630
    209  OD1       15.3870  -23.5260  -60.9870 O.2   223  ASN223     -0.2716
    210  ND2       17.4830  -23.1500  -61.7000 N.am  223  ASN223     -0.0877
    211  N         14.4180  -22.6420  -58.3210 N.am  224  LEU224     -0.1977
    212  CA        14.6720  -23.3900  -57.1010 C.3   224  LEU224      0.1596
    213  C         14.9380  -24.8420  -57.4750 C.2   224  LEU224      0.2287
    214  O         14.1000  -25.4950  -58.0920 O.2   224  LEU224     -0.2864
    215  CB        13.5040  -23.2530  -56.1250 C.3   224  LEU224      0.0297
    216  CG        13.0540  -21.7930  -55.9950 C.3   224  LEU224      0.0022
    217  CD1       11.6310  -21.7060  -55.4780 C.3   224  LEU224      0.0001
    218  CD2       14.0030  -20.9490  -55.1340 C.3   224  LEU224      0.0001
@<TRIPOS>BOND
     1   194   193   ar
     2   194   192   ar
     3   193   191   ar
     4   192   190   ar
     5   191   188   ar
     6   190   188   ar
     7   190   189   ar
     8   188   186   ar
     9   189   187   ar
    10   126   125    2
    11   186   187   ar
    12   186   185    1
    13   125   124    1
    14   185   182    1
    15   181   182    1
    16   182   183    1
    17   124   123    1
    18   124   127    1
    19   176   175    2
    20   175   174    1
    21   127   128    1
    22   183   184    2
    23   183   195   am
    24   117   118    2
    25   117   116    1
    26   164   165    1
    27   210   208   am
    28   195   196    1
    29   173   174    1
    30   173   166   am
    31   174   177    1
    32   166   167    2
    33   166   165    1
    34   115   116    1
    35   116   119    1
    36   165   168    1
    37   128   130   ar
    38   128   129   ar
    39   159   158    2
    40   208   209    2
    41   208   207    1
    42   158   157    1
    43   207   204    1
    44   198   197    2
    45   145   146    1
    46   130   132   ar
    47   177   178    1
    48   129   131   ar
    49   148   147    2
    50   196   197    1
    51   196   199    1
    52   197   203   am
    53   204   203    1
    54   204   205    1
    55   147   146    1
    56   147   156   am
    57   121   120    1
    58   146   149    1
    59   119   120    1
    60   168   169    1
    61   171   170   ar
    62   120   122    1
    63   157   156    1
    64   157   160    1
    65   169   170    1
    66   170   172   ar
    67   132   133   ar
    68   131   133   ar
    69   199   201    1
    70   199   200    1
    71   178   179    1
    72   178   180    1
    73   113   112    1
    74   200   202    1
    75   160   161    1
    76   205   211   am
    77   205   206    2
    78   149   150    1
    79   211   212    1
    80   137   136    2
    81   214   213    2
    82   136   135    1
    83   151   150   ar
    84   151   153   ar
    85   150   152   ar
    86   134   135    1
    87   112   114    1
    88   112   111    1
    89   213   212    1
    90   109   108    1
    91   109   110    2
    92   161   162    1
    93   161   163    1
    94   153   155   ar
    95   212   215    1
    96   135   138    1
    97   108   111    1
    98   108   107    1
    99   152   154   ar
   100    47    45   ar
   101    47    48   ar
   102    45    44   ar
   103   155   154   ar
   104   215   216    1
   105    42    41    2
   106   216   217    1
   107   216   218    1
   108    48    46   ar
   109   138   139    1
   110    44    43    1
   111    44    46   ar
   112    43    40    1
   113    41    40    1
   114   139   141   ar
   115   139   140   ar
   116    40    39    1
   117    79    80    1
   118   141   143   ar
   119   140   142   ar
   120   105   103    1
   121   143   144   ar
   122    83    80    1
   123    83    84    1
   124   142   144   ar
   125    82    81    2
   126    80    81    1
   127    76    77    1
   128    76    73    1
   129   101   102    2
   130   101   100    1
   131    77    78    1
   132    30    28    1
   133   103   100    1
   134   103   104    1
   135    84    86   ar
   136    84    85   ar
   137   100    99    1
   138   104   106    1
   139    34    33    2
   140    86    88   ar
   141    28    29    1
   142    28    27    1
   143    26    25    2
   144    74    73    1
   145    74    75    2
   146    73    72    1
   147    37    35    1
   148    85    87   ar
   149    32    33    1
   150    32    35    1
   151    32    31    1
   152    36    35    1
   153    36    38    1
   154    78    72    1
   155    97    96    1
   156    25    31   am
   157    25    24    1
   158    88    89   ar
   159    72    70   am
   160    27    24    1
   161    87    89   ar
   162    21    20    1
   163    24    23    1
   164    89    90    1
   165    58    59   ar
   166    58    56   ar
   167    59    57   ar
   168    66    65    1
   169    96    98    1
   170    96    95    1
   171    70    71    2
   172    70    69    1
   173    56    54   ar
   174    95    92    1
   175    57    55   ar
   176    67    65    1
   177    20    22    1
   178    20    19    1
   179    18    17    2
   180    13    14   ar
   181    13    11   ar
   182    65    64    1
   183    14    12   ar
   184    69    68    1
   185    11     8   ar
   186    54    55   ar
   187    54    53    1
   188    12    10   ar
   189    17    16    1
   190    19    16    1
   191    16    15    1
   192    92    91    1
   193    92    93    1
   194     8    10   ar
   195     8     6   ar
   196    64    61    1
   197    10     9   ar
   198    53    50    1
   199    94    93    2
   200    63    62    2
   201    61    62    1
   202    61    60    1
   203     6     5    1
   204     6     7   ar
   205     9     7   ar
   206     5     2    1
   207    50    51    1
   208    50    49    1
   209     2     1    1
   210     2     3    1
   211    51    52    2
   212     4     3    2
