@<TRIPOS>MOLECULE
tmp/5gymE00.pdb
 95 89 0 0 0
SMALL
GASTEIGER

@<TRIPOS>ATOM
      1  N        -16.7690   42.2290   32.4470 N.3     1  VAL1       -0.1245
      2  CA       -16.2640   41.2730   33.4680 C.3     1  VAL1        0.1561
      3  C        -16.3120   41.6070   34.9560 C.2     1  VAL1        0.2260
      4  O        -16.3400   40.6710   35.7330 O.2     1  VAL1       -0.2867
      5  CB       -14.7660   40.8970   33.2380 C.3     1  VAL1        0.0252
      6  CG1      -14.6320   39.9510   32.0760 C.3     1  VAL1        0.0019
      7  CG2      -13.9210   42.1450   33.0020 C.3     1  VAL1        0.0019
      8  N        -18.9370   40.0470   37.2000 N.3     4  ILE4       -0.1245
      9  CA       -18.7040   38.6320   37.3300 C.3     4  ILE4        0.1561
     10  C        -17.6170   38.3920   38.3520 C.2     4  ILE4        0.2260
     11  O        -17.7810   37.5530   39.2320 O.2     4  ILE4       -0.2867
     12  CB       -18.2840   37.9940   35.9830 C.3     4  ILE4        0.0252
     13  CG1      -19.4290   38.0540   34.9720 C.3     4  ILE4        0.0019
     14  CG2      -17.8520   36.5450   36.1910 C.3     4  ILE4        0.0019
     15  CD1      -18.9440   37.9890   33.5310 C.3     4  ILE4        0.0001
     16  N        -27.0200   28.8090   26.4830 N.3    74  ALA74      -0.1245
     17  CA       -25.6430   29.3070   26.6040 C.3    74  ALA74       0.1562
     18  C        -24.5810   28.2390   26.2960 C.2    74  ALA74       0.2260
     19  O        -23.4220   28.4120   26.6650 O.2    74  ALA74      -0.2867
     20  CB       -25.4180   29.9060   27.9850 C.3    74  ALA74       0.0290
     21  N        -13.3980   23.0240   32.7290 N.3   168  GLU168     -0.1231
     22  CA       -13.2200   23.0730   31.2680 C.3   168  GLU168      0.1699
     23  C        -14.0960   24.1140   30.5820 C.2   168  GLU168      0.2592
     24  O        -13.6010   25.0560   29.9740 O.2   168  GLU168     -0.2718
     25  CB       -13.5350   21.7070   30.6260 C.3   168  GLU168      0.0402
     26  CG       -12.4950   20.6130   30.8160 C.3   168  GLU168      0.1161
     27  CD       -12.9840   19.2650   30.2930 C.2   168  GLU168      0.3649
     28  OE1      -13.6700   19.2440   29.2410 O.co2 168  GLU168     -0.2457
     29  OE2      -12.6790   18.2320   30.9390 O.co2 168  GLU168     -0.2457
     30  N        -15.4080   23.9340   30.6900 N.am  169  HIS169     -0.1962
     31  CA       -16.3590   24.7600   29.9550 C.3   169  HIS169      0.1787
     32  C        -16.8150   26.0200   30.7490 C.2   169  HIS169      0.2620
     33  O        -17.9150   26.5340   30.5180 O.2   169  HIS169     -0.2715
     34  CB       -17.5460   23.8760   29.4950 C.3   169  HIS169      0.0785
     35  CG       -17.1390   22.5630   28.8640 C.ar  169  HIS169      0.0821
     36  ND1      -17.9390   21.4320   28.8740 N.ar  169  HIS169     -0.2267
     37  CD2      -16.0040   22.2010   28.2200 C.ar  169  HIS169      0.1154
     38  CE1      -17.3180   20.4410   28.2560 C.ar  169  HIS169      0.1986
     39  NE2      -16.1400   20.8800   27.8530 N.ar  169  HIS169     -0.2212
     40  N        -15.9780   26.4690   31.6960 N.am  170  LEU170     -0.1977
     41  CA       -16.2190   27.6450   32.5720 C.3   170  LEU170      0.1596
     42  C        -17.7070   27.8190   32.9970 C.2   170  LEU170      0.2287
     43  O        -18.2970   28.8940   32.9330 O.2   170  LEU170     -0.2864
     44  CB       -15.5230   28.9220   32.0520 C.3   170  LEU170      0.0297
     45  CG       -14.3670   29.4400   32.9040 C.3   170  LEU170      0.0022
     46  CD1      -13.5930   28.5520   33.9010 C.3   170  LEU170      0.0001
     47  CD2      -13.4300   30.0990   31.9290 C.3   170  LEU170      0.0001
     48  N        -18.9790   30.7990   35.4390 N.3   173  PHE173     -0.1227
     49  CA       -18.7040   32.0630   34.8310 C.3   173  PHE173      0.1736
     50  C        -19.6980   32.2930   33.6860 C.2   173  PHE173      0.2595
     51  O        -20.2750   33.3730   33.5960 O.2   173  PHE173     -0.2718
     52  CB       -17.2170   32.2140   34.5010 C.3   173  PHE173      0.0547
     53  CG       -16.2780   32.1370   35.7240 C.ar  173  PHE173     -0.0202
     54  CD1      -16.6590   31.5830   36.9520 C.ar  173  PHE173     -0.0042
     55  CD2      -14.9910   32.6650   35.6380 C.ar  173  PHE173     -0.0042
     56  CE1      -15.7860   31.5540   38.0490 C.ar  173  PHE173     -0.0003
     57  CE2      -14.1190   32.6450   36.7260 C.ar  173  PHE173     -0.0003
     58  CZ       -14.5160   32.0860   37.9330 C.ar  173  PHE173     -0.0000
     59  N        -19.9880   31.2730   32.8760 N.am  174  LYS174     -0.1980
     60  CA       -20.9200   31.4450   31.7520 C.3   174  LYS174      0.1596
     61  C        -22.3330   31.7290   32.2400 C.2   174  LYS174      0.2287
     62  O        -22.8680   32.8050   31.9880 O.2   174  LYS174     -0.2864
     63  CB       -20.9190   30.2280   30.8050 C.3   174  LYS174      0.0298
     64  CG       -19.6370   30.0830   30.0040 C.3   174  LYS174      0.0038
     65  CD       -19.7810   29.0570   28.8920 C.3   174  LYS174      0.0206
     66  CE       -18.4450   28.7600   28.2550 C.3   174  LYS174      0.1093
     67  NZ       -18.5750   27.6420   27.2840 N.3   174  LYS174     -0.1314
     68  N        -22.4880   35.3000   33.7710 N.3   177  GLY177     -0.1210
     69  CA       -21.9380   36.3930   33.0180 C.3   177  GLY177      0.1956
     70  C        -22.5610   36.2630   31.6740 C.2   177  GLY177      0.2611
     71  O        -22.2750   37.0630   30.8490 O.2   177  GLY177     -0.2717
     72  N        -23.4200   35.2720   31.4590 N.am  178  ASP178     -0.1973
     73  CA       -23.9100   35.0370   30.1180 C.3   178  ASP178      0.1709
     74  C        -24.8620   36.1510   29.6500 C.2   178  ASP178      0.2293
     75  O        -24.5730   36.8510   28.6650 O.2   178  ASP178     -0.2864
     76  CB       -24.5930   33.6740   30.0270 C.3   178  ASP178      0.1436
     77  CG       -24.5480   33.0980   28.6400 C.2   178  ASP178      0.3671
     78  OD1      -23.4280   32.7830   28.1740 O.co2 178  ASP178     -0.2456
     79  OD2      -25.6320   32.9530   28.0130 O.co2 178  ASP178     -0.2456
     80  N        -23.5070   39.7490   29.6800 N.3   181  ILE181     -0.1245
     81  CA       -22.6210   39.9960   28.5390 C.3   181  ILE181      0.1561
     82  C        -23.4500   40.3240   27.2990 C.2   181  ILE181      0.2260
     83  O        -23.1840   41.3370   26.6530 O.2   181  ILE181     -0.2867
     84  CB       -21.6460   38.8130   28.2920 C.3   181  ILE181      0.0252
     85  CG1      -20.5150   38.8430   29.3350 C.3   181  ILE181      0.0019
     86  CG2      -21.0530   38.8360   26.8810 C.3   181  ILE181      0.0019
     87  CD1      -19.5150   39.9720   29.1620 C.3   181  ILE181      0.0001
     88  N        -23.3700   43.8920   25.3830 N.3   185  LEU185     -0.1245
     89  CA       -23.0450   43.9960   23.9670 C.3   185  LEU185      0.1561
     90  C        -24.1760   44.6840   23.2300 C.2   185  LEU185      0.2260
     91  O        -23.9370   45.6230   22.5030 O.2   185  LEU185     -0.2867
     92  CB       -22.7410   42.6090   23.3560 C.3   185  LEU185      0.0270
     93  CG       -21.4300   41.9510   23.8200 C.3   185  LEU185      0.0019
     94  CD1      -21.3610   40.4880   23.4270 C.3   185  LEU185      0.0001
     95  CD2      -20.2120   42.7020   23.3000 C.3   185  LEU185      0.0001
@<TRIPOS>BOND
     1    91    90    2
     2    90    89    1
     3    95    93    1
     4    92    93    1
     5    92    89    1
     6    94    93    1
     7    89    88    1
     8    18    17    1
     9    18    19    2
    10    16    17    1
    11    17    20    1
    12    83    82    2
    13    86    84    1
    14    67    66    1
    15    82    81    1
    16    39    37   ar
    17    39    38   ar
    18    79    77   ar
    19    78    77   ar
    20    37    35   ar
    21    66    65    1
    22    38    36   ar
    23    84    81    1
    24    84    85    1
    25    81    80    1
    26    77    76    1
    27    75    74    2
    28    35    36   ar
    29    35    34    1
    30    65    64    1
    31    87    85    1
    32    28    27   ar
    33    34    31    1
    34    74    73    1
    35    31    30    1
    36    31    32    1
    37    24    23    2
    38    64    63    1
    39    76    73    1
    40    73    72    1
    41    27    26    1
    42    27    29   ar
    43    33    32    2
    44    23    30   am
    45    23    22    1
    46    25    26    1
    47    25    22    1
    48    32    40   am
    49    63    60    1
    50    71    70    2
    51    22    21    1
    52    72    70   am
    53    70    69    1
    54    40    41    1
    55    60    61    1
    56    60    59    1
    57    47    45    1
    58    62    61    2
    59    44    41    1
    60    44    45    1
    61     6     5    1
    62     1     2    1
    63    41    42    1
    64    59    50   am
    65    45    46    1
    66    43    42    2
    67     7     5    1
    68    69    68    1
    69     5     2    1
    70     2     3    1
    71    15    13    1
    72    51    50    2
    73    50    49    1
    74    52    49    1
    75    52    53    1
    76    49    48    1
    77     3     4    2
    78    13    12    1
    79    55    53   ar
    80    55    57   ar
    81    53    54   ar
    82    12    14    1
    83    12     9    1
    84    57    58   ar
    85    54    56   ar
    86     8     9    1
    87     9    10    1
    88    58    56   ar
    89    10    11    2
