@<TRIPOS>MOLECULE
tmp/5gyqA00.pdb
 89 88 0 0 0
SMALL
GASTEIGER

@<TRIPOS>ATOM
      1  N          1.5930   -8.9990  -26.2350 N.3    72  ASN72      -0.1225
      2  CA         2.7540   -8.6530  -27.0500 C.3    72  ASN72       0.1785
      3  C          2.6380   -7.2260  -27.5810 C.2    72  ASN72       0.2597
      4  O          1.6170   -6.5650  -27.3730 O.2    72  ASN72      -0.2718
      5  CB         2.9820   -9.6880  -28.1750 C.3    72  ASN72       0.1169
      6  CG         2.0090   -9.5740  -29.3520 C.2    72  ASN72       0.2627
      7  OD1        1.1400   -8.7050  -29.4120 O.2    72  ASN72      -0.2716
      8  ND2        2.1820  -10.4840  -30.3150 N.am   72  ASN72      -0.0877
      9  N          3.6920   -6.7520  -28.2420 N.am   73  GLU73      -0.1965
     10  CA         3.8190   -5.3380  -28.5980 C.3    73  GLU73       0.1733
     11  C          2.6820   -4.8070  -29.4760 C.2    73  GLU73       0.2617
     12  O          2.1780   -3.7120  -29.2370 O.2    73  GLU73      -0.2715
     13  CB         5.1580   -5.0930  -29.2950 C.3    73  GLU73       0.0429
     14  CG         5.4050   -3.6330  -29.6760 C.3    73  GLU73       0.1163
     15  CD         5.7670   -2.7490  -28.4880 C.2    73  GLU73       0.3649
     16  OE1        5.7560   -1.5090  -28.6420 O.co2  73  GLU73      -0.2457
     17  OE2        6.0710   -3.2840  -27.4020 O.co2  73  GLU73      -0.2457
     18  N          2.2910   -5.5760  -30.4880 N.am   74  THR74      -0.1937
     19  CA         1.2100   -5.1790  -31.3890 C.3    74  THR74       0.2028
     20  C         -0.0820   -4.9230  -30.6150 C.2    74  THR74       0.2642
     21  O         -0.7070   -3.8540  -30.7190 O.2    74  THR74      -0.2714
     22  CB         0.9460   -6.2640  -32.4600 C.3    74  THR74       0.1808
     23  OG1        2.1660   -6.5860  -33.1420 O.3    74  THR74      -0.2208
     24  CG2       -0.0920   -5.7890  -33.4680 C.3    74  THR74       0.0379
     25  N         -0.4650   -5.9180  -29.8260 N.am   75  HIS75      -0.1973
     26  CA        -1.6950   -5.8610  -29.0520 C.3    75  HIS75       0.1656
     27  C         -1.6290   -4.7830  -27.9820 C.2    75  HIS75       0.2291
     28  O         -2.6410   -4.1670  -27.6610 O.2    75  HIS75      -0.2864
     29  CB        -1.9840   -7.2200  -28.4180 C.3    75  HIS75       0.0771
     30  CG        -2.2800   -8.3000  -29.4120 C.ar   75  HIS75       0.0820
     31  ND1       -2.0640   -9.6320  -29.1450 N.ar   75  HIS75      -0.2267
     32  CD2       -2.7810   -8.2420  -30.6690 C.ar   75  HIS75       0.1154
     33  CE1       -2.4150  -10.3530  -30.1970 C.ar   75  HIS75       0.1986
     34  NE2       -2.8540   -9.5350  -31.1340 N.ar   75  HIS75      -0.2212
     35  N         -7.5600   -8.7840  -32.2990 N.3    86  THR86      -0.1218
     36  CA        -7.9630  -10.0650  -31.7190 C.3    86  THR86       0.1862
     37  C         -7.9240  -10.0390  -30.1950 C.2    86  THR86       0.2287
     38  O         -8.7780  -10.6330  -29.5310 O.2    86  THR86      -0.2866
     39  CB        -7.0730  -11.2190  -32.2180 C.3    86  THR86       0.1770
     40  OG1       -5.6960  -10.8880  -32.0110 O.3    86  THR86      -0.2211
     41  CG2       -7.3040  -11.4710  -33.6970 C.3    86  THR86       0.0375
     42  N          1.8790  -17.8990  -26.9810 N.3   113  TYR113     -0.1241
     43  CA         1.0420  -16.7350  -26.7550 C.3   113  TYR113      0.1605
     44  C         -0.3810  -17.1050  -27.1410 C.2   113  TYR113      0.2264
     45  O         -0.7310  -17.1100  -28.3230 O.2   113  TYR113     -0.2867
     46  CB         1.5700  -15.5510  -27.5710 C.3   113  TYR113      0.0534
     47  CG         0.8930  -14.2170  -27.3380 C.ar  113  TYR113     -0.0201
     48  CD1        0.5490  -13.7930  -26.0600 C.ar  113  TYR113     -0.0009
     49  CD2        0.6380  -13.3630  -28.4020 C.ar  113  TYR113     -0.0009
     50  CE1       -0.0580  -12.5600  -25.8550 C.ar  113  TYR113      0.0417
     51  CE2        0.0400  -12.1350  -28.2080 C.ar  113  TYR113      0.0417
     52  CZ        -0.3090  -11.7380  -26.9350 C.ar  113  TYR113      0.1957
     53  OH        -0.9070  -10.5130  -26.7500 O.3   113  TYR113     -0.2866
     54  N         -3.9410  -16.5670  -27.7350 N.3   115  VAL115     -0.1245
     55  CA        -4.8750  -15.4830  -27.9970 C.3   115  VAL115      0.1561
     56  C         -6.0550  -15.9760  -28.8240 C.2   115  VAL115      0.2260
     57  O         -5.8690  -16.4920  -29.9220 O.2   115  VAL115     -0.2867
     58  CB        -4.1860  -14.3190  -28.7360 C.3   115  VAL115      0.0252
     59  CG1       -5.1760  -13.1980  -29.0220 C.3   115  VAL115      0.0019
     60  CG2       -3.0130  -13.8030  -27.9280 C.3   115  VAL115      0.0019
     61  N          5.6700  -18.2910  -31.5090 N.3   145  PHE145     -0.1227
     62  CA         5.7730  -17.7640  -30.1590 C.3   145  PHE145      0.1736
     63  C          5.8480  -16.2490  -30.2580 C.2   145  PHE145      0.2596
     64  O          6.2000  -15.7090  -31.3090 O.2   145  PHE145     -0.2718
     65  CB         6.9990  -18.3180  -29.4240 C.3   145  PHE145      0.0547
     66  CG         6.9100  -19.7870  -29.0930 C.ar  145  PHE145     -0.0202
     67  CD1        7.9630  -20.4260  -28.4550 C.ar  145  PHE145     -0.0042
     68  CD2        5.7830  -20.5270  -29.4200 C.ar  145  PHE145     -0.0042
     69  CE1        7.8940  -21.7730  -28.1490 C.ar  145  PHE145     -0.0003
     70  CE2        5.7080  -21.8750  -29.1180 C.ar  145  PHE145     -0.0003
     71  CZ         6.7650  -22.4990  -28.4810 C.ar  145  PHE145     -0.0000
     72  N          5.5070  -15.5600  -29.1770 N.am  146  SER146     -0.1938
     73  CA         5.6230  -14.1100  -29.1640 C.3   146  SER146      0.2055
     74  C          6.5010  -13.6470  -28.0210 C.2   146  SER146      0.2643
     75  O          6.4540  -14.2150  -26.9290 O.2   146  SER146     -0.2714
     76  CB         4.2470  -13.4480  -29.0520 C.3   146  SER146      0.2130
     77  OG         3.7930  -12.9900  -30.3130 O.3   146  SER146     -0.2179
     78  N          7.3100  -12.6260  -28.2840 N.am  147  TYR147     -0.1973
     79  CA         7.9580  -11.8900  -27.2120 C.3   147  TYR147      0.1639
     80  C          6.8610  -11.1470  -26.4700 C.2   147  TYR147      0.2290
     81  O          5.9950  -10.5260  -27.0850 O.2   147  TYR147     -0.2864
     82  CB         9.0190  -10.9300  -27.7440 C.3   147  TYR147      0.0560
     83  CG         9.5680  -10.0040  -26.6850 C.ar  147  TYR147     -0.0198
     84  CD1       10.4800  -10.4590  -25.7430 C.ar  147  TYR147     -0.0009
     85  CD2        9.1680   -8.6780  -26.6220 C.ar  147  TYR147     -0.0009
     86  CE1       10.9820   -9.6160  -24.7710 C.ar  147  TYR147      0.0417
     87  CE2        9.6650   -7.8290  -25.6570 C.ar  147  TYR147      0.0417
     88  CZ        10.5710   -8.3020  -24.7340 C.ar  147  TYR147      0.1957
     89  OH        11.0690   -7.4590  -23.7670 O.3   147  TYR147     -0.2866
@<TRIPOS>BOND
     1    41    39    1
     2    24    22    1
     3    23    22    1
     4    22    19    1
     5    35    36    1
     6    39    40    1
     7    39    36    1
     8    36    37    1
     9    61    62    1
    10    19    20    1
    11    19    18    1
    12    64    63    2
    13    34    32   ar
    14    34    33   ar
    15    21    20    2
    16    32    30   ar
    17    20    25   am
    18    18    11   am
    19     8     6   am
    20    77    76    1
    21    63    62    1
    22    63    72   am
    23    33    31   ar
    24    37    38    2
    25    62    65    1
    26    57    56    2
    27    25    26    1
    28    14    13    1
    29    14    15    1
    30    11    12    2
    31    11    10    1
    32    65    66    1
    33    68    70   ar
    34    68    66   ar
    35    30    31   ar
    36    30    29    1
    37     7     6    2
    38     6     5    1
    39    13    10    1
    40    72    73    1
    41    73    76    1
    42    73    74    1
    43    70    71   ar
    44    66    67   ar
    45    26    29    1
    46    26    27    1
    47    59    58    1
    48    56    55    1
    49    58    55    1
    50    58    60    1
    51    16    15   ar
    52    10     9    1
    53    15    17   ar
    54    71    69   ar
    55    67    69   ar
    56    49    51   ar
    57    49    47   ar
    58    45    44    2
    59    78    74   am
    60    78    79    1
    61     9     3   am
    62    51    52   ar
    63     5     2    1
    64    74    75    2
    65    55    54    1
    66    27    28    2
    67    82    79    1
    68    82    83    1
    69     3     4    2
    70     3     2    1
    71    46    47    1
    72    46    43    1
    73    47    48   ar
    74    79    80    1
    75    44    43    1
    76    81    80    2
    77     2     1    1
    78    42    43    1
    79    52    53    1
    80    52    50   ar
    81    83    85   ar
    82    83    84   ar
    83    85    87   ar
    84    48    50   ar
    85    84    86   ar
    86    87    88   ar
    87    86    88   ar
    88    88    89    1
