@<TRIPOS>MOLECULE
tmp/5gyrA01.pdb
 134 128 0 0 0
SMALL
GASTEIGER

@<TRIPOS>ATOM
      1  N          6.6660  -12.5120   42.5280 N.3     9  ILE9       -0.1245
      2  CA         6.0680  -11.9630   41.3090 C.3     9  ILE9        0.1561
      3  C          4.6060  -12.3910   41.2070 C.2     9  ILE9        0.2260
      4  O          3.7470  -11.5810   40.9260 O.2     9  ILE9       -0.2867
      5  CB         6.8460  -12.4030   40.0470 C.3     9  ILE9        0.0252
      6  CG1        8.2530  -11.8000   40.0500 C.3     9  ILE9        0.0019
      7  CG2        6.1100  -11.9790   38.7870 C.3     9  ILE9        0.0019
      8  CD1        9.1890  -12.4480   39.0570 C.3     9  ILE9        0.0001
      9  N          2.5100  -10.4380   43.9200 N.3    12  ARG12      -0.1231
     10  CA         2.2440   -9.0440   43.6300 C.3    12  ARG12       0.1694
     11  C          1.2630   -8.9250   42.4710 C.2    12  ARG12       0.2591
     12  O          0.3480   -8.1300   42.5190 O.2    12  ARG12      -0.2718
     13  CB         3.5270   -8.2410   43.4220 C.3    12  ARG12       0.0321
     14  CG         4.2670   -8.4890   42.1230 C.3    12  ARG12       0.0489
     15  CD         5.7320   -8.1170   42.2940 C.3    12  ARG12       0.2205
     16  NE         6.4640   -8.1430   41.0380 N.pl3  12  ARG12      -0.0865
     17  CZ         7.7890   -8.1280   40.9490 C.cat  12  ARG12       0.5346
     18  NH1        8.3690   -8.1630   39.7640 N.pl3  12  ARG12       0.1354
     19  NH2        8.5330   -8.1010   42.0340 N.pl3  12  ARG12       0.1354
     20  N          1.4270   -9.7630   41.4510 N.am   13  GLN13      -0.1979
     21  CA         0.4840   -9.7560   40.3370 C.3    13  GLN13       0.1601
     22  C         -0.9360  -10.0930   40.7970 C.2    13  GLN13       0.2287
     23  O         -1.8960   -9.5040   40.3220 O.2    13  GLN13      -0.2864
     24  CB         0.9370  -10.7070   39.2400 C.3    13  GLN13       0.0394
     25  CG         2.1640  -10.1820   38.5060 C.3    13  GLN13       0.0908
     26  CD         2.7350  -11.1730   37.5170 C.2    13  GLN13       0.2608
     27  OE1        2.3850  -12.3500   37.5170 O.2    13  GLN13      -0.2717
     28  NE2        3.6330  -10.7040   36.6740 N.am   13  GLN13      -0.0878
     29  N         -2.5100   -6.9690   42.4470 N.3    16  TYR16      -0.1227
     30  CA        -2.9000   -6.0060   41.4370 C.3    16  TYR16       0.1736
     31  C         -4.1330   -6.4400   40.6480 C.2    16  TYR16       0.2595
     32  O         -5.0450   -5.6650   40.4270 O.2    16  TYR16      -0.2718
     33  CB        -1.7430   -5.7450   40.4540 C.3    16  TYR16       0.0548
     34  CG        -0.5220   -5.0670   41.0510 C.ar   16  TYR16      -0.0200
     35  CD1       -0.6350   -3.8850   41.7630 C.ar   16  TYR16      -0.0009
     36  CD2        0.7510   -5.5990   40.8680 C.ar   16  TYR16      -0.0009
     37  CE1        0.4750   -3.2760   42.2960 C.ar   16  TYR16       0.0417
     38  CE2        1.8700   -4.9950   41.3890 C.ar   16  TYR16       0.0417
     39  CZ         1.7220   -3.8360   42.1190 C.ar   16  TYR16       0.1957
     40  OH         2.8400   -3.2350   42.6600 O.3    16  TYR16      -0.2866
     41  N         -4.1380   -7.6940   40.2170 N.am   17  GLU17      -0.1979
     42  CA        -5.2540   -8.2440   39.4860 C.3    17  GLU17       0.1602
     43  C         -6.5250   -8.1290   40.3240 C.2    17  GLU17       0.2287
     44  O         -7.5840   -7.7560   39.8300 O.2    17  GLU17      -0.2864
     45  CB        -4.9630   -9.6980   39.0950 C.3    17  GLU17       0.0415
     46  CG        -5.7930  -10.2220   37.9400 C.3    17  GLU17       0.1163
     47  CD        -7.1670  -10.7180   38.3330 C.2    17  GLU17       0.3649
     48  OE1       -7.4560  -10.7760   39.5440 O.co2  17  GLU17      -0.2457
     49  OE2       -7.9650  -11.0690   37.4290 O.co2  17  GLU17      -0.2457
     50  N         -7.1740   -6.0480   42.8350 N.3    19  MET19      -0.1230
     51  CA        -7.5840   -4.6490   42.8800 C.3    19  MET19       0.1702
     52  C         -8.3130   -4.2600   41.6040 C.2    19  MET19       0.2592
     53  O         -9.2910   -3.5430   41.6510 O.2    19  MET19      -0.2718
     54  CB        -6.3860   -3.7130   43.1040 C.3    19  MET19       0.0401
     55  CG        -5.8250   -3.7700   44.5100 C.3    19  MET19       0.0596
     56  SD        -4.8140   -2.3470   44.9390 S.3    19  MET19      -0.1393
     57  CE        -3.3960   -2.6190   43.8630 C.3    19  MET19       0.0692
     58  N         -7.7990   -4.7100   40.4610 N.am   20  GLY20      -0.1957
     59  CA        -8.4050   -4.3840   39.1720 C.3    20  GLY20       0.1869
     60  C         -9.8500   -4.8440   39.1040 C.2    20  GLY20       0.2309
     61  O        -10.7170   -4.1220   38.6320 O.2    20  GLY20      -0.2863
     62  N        -11.8870   -2.4940   41.2810 N.3    23  MET23      -0.1245
     63  CA       -12.0630   -1.1990   40.5850 C.3    23  MET23       0.1570
     64  C        -13.1760   -1.3150   39.5390 C.2    23  MET23       0.2261
     65  O        -14.0160   -0.4320   39.4000 O.2    23  MET23      -0.2867
     66  CB       -10.7690   -0.7390   39.9180 C.3    23  MET23       0.0387
     67  CG        -9.6700   -0.3150   40.8880 C.3    23  MET23       0.0595
     68  SD        -9.9620    1.2720   41.7210 S.3    23  MET23      -0.1393
     69  CE        -9.5600    2.4030   40.4040 C.3    23  MET23       0.0692
     70  N         -9.4350   -2.2960   47.9400 N.3    46  ILE46      -0.1245
     71  CA        -8.4100   -1.4580   47.3210 C.3    46  ILE46       0.1561
     72  C         -7.5530   -0.8050   48.4030 C.2    46  ILE46       0.2260
     73  O         -6.3240   -0.8070   48.3200 O.2    46  ILE46      -0.2867
     74  CB        -9.0120   -0.4320   46.3390 C.3    46  ILE46       0.0252
     75  CG1       -9.6780   -1.2010   45.1720 C.3    46  ILE46       0.0019
     76  CG2       -7.9430    0.5010   45.7990 C.3    46  ILE46       0.0019
     77  CD1      -10.8740   -0.5360   44.5690 C.3    46  ILE46       0.0001
     78  N          8.9840   -7.2150   46.1010 N.3    58  TYR58      -0.1241
     79  CA         9.8820   -6.6880   45.0800 C.3    58  TYR58       0.1605
     80  C         11.3290   -6.9510   45.4680 C.2    58  TYR58       0.2264
     81  O         12.1760   -6.0570   45.4450 O.2    58  TYR58      -0.2867
     82  CB         9.6170   -5.1940   44.8370 C.3    58  TYR58       0.0534
     83  CG         8.4010   -4.9290   43.9780 C.ar   58  TYR58      -0.0201
     84  CD1        8.4950   -4.9870   42.5900 C.ar   58  TYR58      -0.0009
     85  CD2        7.1520   -4.6770   44.5430 C.ar   58  TYR58      -0.0009
     86  CE1        7.4050   -4.7410   41.7940 C.ar   58  TYR58       0.0417
     87  CE2        6.0450   -4.4490   43.7420 C.ar   58  TYR58       0.0417
     88  CZ         6.1770   -4.4860   42.3650 C.ar   58  TYR58       0.1957
     89  OH         5.0830   -4.2710   41.5620 O.3    58  TYR58      -0.2866
     90  N          7.3110  -11.1360   34.3150 N.3    71  THR71      -0.1203
     91  CA         7.0280   -9.8880   35.0180 C.3    71  THR71       0.1994
     92  C          7.0750   -8.7280   34.0320 C.2    71  THR71       0.2618
     93  O          7.7720   -8.7790   33.0130 O.2    71  THR71      -0.2717
     94  CB         8.0230   -9.6210   36.1720 C.3    71  THR71       0.1784
     95  OG1        7.6480   -8.4190   36.8520 O.3    71  THR71      -0.2211
     96  CG2        9.4480   -9.4650   35.6740 C.3    71  THR71       0.0376
     97  N          6.3030   -7.6990   34.3390 N.am   72  ARG72      -0.1965
     98  CA         6.2500   -6.4840   33.5300 C.3    72  ARG72       0.1729
     99  C          6.8650   -5.2980   34.2550 C.2    72  ARG72       0.2616
    100  O          6.7420   -4.1730   33.7990 O.2    72  ARG72      -0.2715
    101  CB         4.8000   -6.1620   33.1600 C.3    72  ARG72       0.0348
    102  CG         4.1410   -7.2270   32.2960 C.3    72  ARG72       0.0492
    103  CD         2.6640   -6.9560   32.0870 C.3    72  ARG72       0.2205
    104  NE         2.4190   -5.6690   31.4460 N.pl3  72  ARG72      -0.0865
    105  CZ         1.2200   -5.1100   31.3140 C.cat  72  ARG72       0.5346
    106  NH1        0.1270   -5.7050   31.7910 N.pl3  72  ARG72       0.1354
    107  NH2        1.1090   -3.9350   30.7130 N.pl3  72  ARG72       0.1354
    108  N          7.5260   -5.5360   35.3850 N.am   73  VAL73      -0.1963
    109  CA         8.1510   -4.4340   36.1050 C.3    73  VAL73       0.1727
    110  C          9.3240   -3.8790   35.3110 C.2    73  VAL73       0.2616
    111  O         10.0690   -4.6280   34.6720 O.2    73  VAL73      -0.2715
    112  CB         8.5980   -4.8380   37.5220 C.3    73  VAL73       0.0290
    113  CG1        9.7930   -5.7850   37.4760 C.3    73  VAL73       0.0023
    114  CG2        8.9000   -3.5940   38.3470 C.3    73  VAL73       0.0023
    115  N          9.4530   -2.5550   35.3280 N.am   74  LYS74      -0.1977
    116  CA        10.6190   -1.8810   34.7560 C.3    74  LYS74       0.1596
    117  C         11.6990   -1.7140   35.8150 C.2    74  LYS74       0.2287
    118  O         11.3970   -1.4780   36.9760 O.2    74  LYS74      -0.2864
    119  CB        10.2220   -0.5190   34.2130 C.3    74  LYS74       0.0298
    120  CG         9.3190   -0.6140   33.0020 C.3    74  LYS74       0.0038
    121  CD         8.7810    0.7440   32.6200 C.3    74  LYS74       0.0206
    122  CE         9.7940    1.5480   31.8350 C.3    74  LYS74       0.1093
    123  NZ         9.2140    1.9500   30.5240 N.3    74  LYS74      -0.1314
    124  N         11.8240    0.9590   38.7280 N.3    77  PHE77      -0.1241
    125  CA        10.9400    0.8980   39.8770 C.3    77  PHE77       0.1605
    126  C         11.6910    0.7140   41.1860 C.2    77  PHE77       0.2264
    127  O         11.4120    1.4070   42.1780 O.2    77  PHE77      -0.2867
    128  CB         9.9760   -0.2690   39.6920 C.3    77  PHE77       0.0534
    129  CG         8.9560   -0.3650   40.7960 C.ar   77  PHE77      -0.0203
    130  CD1        7.9360    0.5810   40.9060 C.ar   77  PHE77      -0.0042
    131  CD2        9.0320   -1.3700   41.7330 C.ar   77  PHE77      -0.0042
    132  CE1        7.0050    0.5090   41.9310 C.ar   77  PHE77      -0.0003
    133  CE2        8.1020   -1.4540   42.7520 C.ar   77  PHE77      -0.0003
    134  CZ         7.0880   -0.5140   42.8530 C.ar   77  PHE77      -0.0000
@<TRIPOS>BOND
     1   123   122    1
     2   107   105    1
     3   105   104    2
     4   105   106    1
     5   104   103    1
     6   122   121    1
     7   103   102    1
     8   102   101    1
     9   121   120    1
    10   120   119    1
    11    93    92    2
    12   101    98    1
    13    98    99    1
    14    98    97    1
    15   100    99    2
    16    92    97   am
    17    92    91    1
    18   119   116    1
    19    99   108   am
    20    90    91    1
    21   111   110    2
    22   116   115    1
    23   116   117    1
    24    91    94    1
    25   110   115   am
    26   110   109    1
    27   108   109    1
    28    96    94    1
    29   117   118    2
    30   109   112    1
    31    94    95    1
    32    28    26   am
    33    49    47   ar
    34   113   112    1
    35    27    26    2
    36    26    25    1
    37   112   114    1
    38    46    47    1
    39    46    45    1
    40    47    48   ar
    41    25    24    1
    42    61    60    2
    43   124   125    1
    44     7     5    1
    45     8     6    1
    46    45    42    1
    47    60    59    1
    48    59    58    1
    49    24    21    1
    50    65    64    2
    51    42    41    1
    52    42    43    1
    53    64    63    1
    54   128   125    1
    55   128   129    1
    56    18    17    1
    57    44    43    2
    58   125   126    1
    59    66    63    1
    60    66    67    1
    61     5     6    1
    62     5     2    1
    63    41    31   am
    64    23    22    2
    65    21    22    1
    66    21    20    1
    67    69    68    1
    68    32    31    2
    69    33    34    1
    70    33    30    1
    71    58    52   am
    72    63    62    1
    73    31    30    1
    74   129   130   ar
    75   129   131   ar
    76    36    34   ar
    77    36    38   ar
    78    67    68    1
    79   130   132   ar
    80     4     3    2
    81    17    16    2
    82    17    19    1
    83    16    15    1
    84    34    35   ar
    85   126   127    2
    86     3     2    1
    87     2     1    1
    88    38    39   ar
    89    30    29    1
    90    20    11   am
    91    89    88    1
    92    52    53    2
    93    52    51    1
    94   131   133   ar
    95    35    37   ar
    96    86    88   ar
    97    86    84   ar
    98   132   134   ar
    99    39    37   ar
   100    39    40    1
   101    14    15    1
   102    14    13    1
   103    88    87   ar
   104    11    12    2
   105    11    10    1
   106    84    83   ar
   107   133   134   ar
   108    50    51    1
   109    51    54    1
   110    54    55    1
   111    13    10    1
   112    10     9    1
   113    87    85   ar
   114    57    56    1
   115    83    85   ar
   116    83    82    1
   117    55    56    1
   118    77    75    1
   119    82    79    1
   120    79    80    1
   121    79    78    1
   122    75    74    1
   123    81    80    2
   124    76    74    1
   125    74    71    1
   126    71    70    1
   127    71    72    1
   128    73    72    2
