@<TRIPOS>MOLECULE
tmp/5gyrA00.pdb
 89 85 0 0 0
SMALL
GASTEIGER

@<TRIPOS>ATOM
      1  N         14.5510    0.8230   52.9700 N.3    83  ASP83      -0.1239
      2  CA        14.3950   -0.0640   54.1080 C.3    83  ASP83       0.1674
      3  C         13.5530    0.6870   55.1330 C.2    83  ASP83       0.2266
      4  O         13.9830    1.7020   55.6540 O.2    83  ASP83      -0.2867
      5  CB        15.7580   -0.4850   54.6630 C.3    83  ASP83       0.1410
      6  CG        15.6380   -1.3190   55.9310 C.2    83  ASP83       0.3668
      7  OD1       14.5320   -1.7640   56.3190 O.co2  83  ASP83      -0.2456
      8  OD2       16.6760   -1.5390   56.5430 O.co2  83  ASP83      -0.2456
      9  N         14.9510   -1.6460   62.5260 N.3    87  ILE87      -0.1231
     10  CA        16.3180   -1.2460   62.8440 C.3    87  ILE87       0.1692
     11  C         16.7300   -0.0060   62.0640 C.2    87  ILE87       0.2591
     12  O         17.3890    0.8810   62.6080 O.2    87  ILE87      -0.2718
     13  CB        17.3330   -2.3840   62.6320 C.3    87  ILE87       0.0266
     14  CG1       16.9300   -3.5900   63.4780 C.3    87  ILE87       0.0019
     15  CG2       18.7210   -1.9160   63.0380 C.3    87  ILE87       0.0020
     16  CD1       17.7710   -4.8260   63.2420 C.3    87  ILE87       0.0001
     17  N         16.3260    0.0730   60.8010 N.am   88  ALA88      -0.1980
     18  CA        16.6240    1.2440   59.9870 C.3    88  ALA88       0.1597
     19  C         15.9940    2.4990   60.5840 C.2    88  ALA88       0.2287
     20  O         16.6070    3.5700   60.5940 O.2    88  ALA88      -0.2864
     21  CB        16.1260    1.0440   58.5730 C.3    88  ALA88       0.0319
     22  N         17.9190    3.4470   63.5710 N.3    91  PHE91      -0.1241
     23  CA        19.1860    4.0420   63.1600 C.3    91  PHE91       0.1605
     24  C         19.0440    5.4920   62.7320 C.2    91  PHE91       0.2264
     25  O         19.8210    6.3480   63.1630 O.2    91  PHE91      -0.2867
     26  CB        19.7970    3.2210   62.0210 C.3    91  PHE91       0.0534
     27  CG        21.0430    3.8150   61.4480 C.ar   91  PHE91      -0.0203
     28  CD1       22.0840    4.1980   62.2810 C.ar   91  PHE91      -0.0042
     29  CD2       21.1800    3.9630   60.0970 C.ar   91  PHE91      -0.0042
     30  CE1       23.2460    4.7380   61.7710 C.ar   91  PHE91      -0.0003
     31  CE2       22.3470    4.4850   59.5740 C.ar   91  PHE91      -0.0003
     32  CZ        23.3720    4.8670   60.4080 C.ar   91  PHE91      -0.0000
     33  N         23.5900    5.1650   68.6020 N.3   117  VAL117     -0.1245
     34  CA        23.8620    4.9300   67.1810 C.3   117  VAL117      0.1561
     35  C         24.6310    3.6230   67.0050 C.2   117  VAL117      0.2260
     36  O         24.2640    2.7960   66.1730 O.2   117  VAL117     -0.2867
     37  CB        24.6360    6.0860   66.5420 C.3   117  VAL117      0.0252
     38  CG1       25.0300    5.7430   65.1150 C.3   117  VAL117      0.0019
     39  CG2       23.7920    7.3460   66.5640 C.3   117  VAL117      0.0019
     40  N         22.5610    0.5650   67.0690 N.3   120  ALA120     -0.1231
     41  CA        21.7890    0.3620   65.8440 C.3   120  ALA120      0.1694
     42  C         22.6510   -0.2400   64.7380 C.2   120  ALA120      0.2592
     43  O         22.2020   -1.1350   64.0490 O.2   120  ALA120     -0.2718
     44  CB        21.1420    1.6640   65.3820 C.3   120  ALA120      0.0304
     45  N         23.8840    0.2280   64.5760 N.am  121  CYS121     -0.1970
     46  CA        24.7970   -0.3830   63.5770 C.3   121  CYS121      0.1712
     47  C         24.9240   -1.8700   63.8580 C.2   121  CYS121      0.2296
     48  O         24.7200   -2.7210   62.9890 O.2   121  CYS121     -0.2864
     49  CB        26.2060    0.2260   63.6230 C.3   121  CYS121      0.0983
     50  SG        26.3000    2.0540   63.7110 S.3   121  CYS121     -0.0798
     51  N         21.7360   -4.2190   63.3440 N.3   124  CYS124     -0.1221
     52  CA        21.4770   -4.5480   61.9480 C.3   124  CYS124      0.1808
     53  C         22.4720   -5.5960   61.4480 C.2   124  CYS124      0.2601
     54  O         22.0910   -6.5230   60.7430 O.2   124  CYS124     -0.2717
     55  CB        21.5520   -3.3470   61.0250 C.3   124  CYS124      0.0970
     56  SG        20.9940   -3.7820   59.3860 S.3   124  CYS124     -0.0800
     57  N         23.7350   -5.4550   61.8330 N.am  125  HIS125     -0.1975
     58  CA        24.7530   -6.4060   61.3940 C.3   125  HIS125      0.1656
     59  C         24.5030   -7.8130   61.9020 C.2   125  HIS125      0.2291
     60  O         24.6560   -8.7860   61.1750 O.2   125  HIS125     -0.2864
     61  CB        26.1360   -5.9600   61.8410 C.3   125  HIS125      0.0771
     62  CG        26.5730   -4.6920   61.1920 C.ar  125  HIS125      0.0820
     63  ND1       27.5000   -3.8430   61.7540 N.ar  125  HIS125     -0.2267
     64  CD2       26.1570   -4.1000   60.0520 C.ar  125  HIS125      0.1154
     65  CE1       27.6480   -2.7860   60.9800 C.ar  125  HIS125      0.1986
     66  NE2       26.8440   -2.9230   59.9400 N.ar  125  HIS125     -0.2212
     67  N         21.4790   -9.0620   59.7780 N.3   128  TYR128     -0.1227
     68  CA        21.4270   -8.9650   58.3110 C.3   128  TYR128      0.1736
     69  C         22.7650   -8.9220   57.5820 C.2   128  TYR128      0.2595
     70  O         22.7910   -8.7870   56.3560 O.2   128  TYR128     -0.2718
     71  CB        20.6160   -7.7410   57.9200 C.3   128  TYR128      0.0548
     72  CG        19.1900   -7.7950   58.3850 C.ar  128  TYR128     -0.0200
     73  CD1       18.3440   -8.8080   57.9560 C.ar  128  TYR128     -0.0009
     74  CD2       18.6760   -6.8160   59.2250 C.ar  128  TYR128     -0.0009
     75  CE1       17.0280   -8.8630   58.3730 C.ar  128  TYR128      0.0417
     76  CE2       17.3540   -6.8460   59.6280 C.ar  128  TYR128      0.0417
     77  CZ        16.5390   -7.8850   59.2000 C.ar  128  TYR128      0.1957
     78  OH        15.2250   -7.9340   59.6000 O.3   128  TYR128     -0.2866
     79  N         23.8690   -9.0230   58.3140 N.am  129  ARG129     -0.1980
     80  CA        25.1900   -9.0100   57.6940 C.3   129  ARG129      0.1597
     81  C         25.9260  -10.2940   58.0370 C.2   129  ARG129      0.2287
     82  O         26.0780  -10.6320   59.2040 O.2   129  ARG129     -0.2864
     83  CB        26.0170   -7.7930   58.1280 C.3   129  ARG129      0.0334
     84  CG        27.3260   -7.6570   57.3440 C.3   129  ARG129      0.0492
     85  CD        28.1670   -6.4940   57.8310 C.3   129  ARG129      0.2205
     86  NE        28.7550   -6.7530   59.1430 N.pl3 129  ARG129     -0.0865
     87  CZ        29.5170   -5.8920   59.8060 C.cat 129  ARG129      0.5346
     88  NH1       29.7960   -4.6960   59.2950 N.pl3 129  ARG129      0.1354
     89  NH2       30.0080   -6.2200   60.9860 N.pl3 129  ARG129      0.1354
@<TRIPOS>BOND
     1     1     2    1
     2     2     5    1
     3     2     3    1
     4     5     6    1
     5     3     4    2
     6     6     7   ar
     7     6     8   ar
     8    70    69    2
     9    84    85    1
    10    84    83    1
    11    69    68    1
    12    69    79   am
    13    80    81    1
    14    80    83    1
    15    80    79    1
    16    85    86    1
    17    71    68    1
    18    71    72    1
    19    73    75   ar
    20    73    72   ar
    21    81    82    2
    22    68    67    1
    23    75    77   ar
    24    72    74   ar
    25    21    18    1
    26    86    87    2
    27    77    78    1
    28    77    76   ar
    29    74    76   ar
    30    88    87    1
    31    56    55    1
    32    31    29   ar
    33    31    32   ar
    34    87    89    1
    35    66    64   ar
    36    66    65   ar
    37    18    19    1
    38    18    17    1
    39    64    62   ar
    40    29    27   ar
    41    32    30   ar
    42    19    20    2
    43    54    53    2
    44    17    11   am
    45    65    63   ar
    46    55    52    1
    47    60    59    2
    48    62    63   ar
    49    62    61    1
    50    58    57    1
    51    58    61    1
    52    58    59    1
    53    27    26    1
    54    27    28   ar
    55    53    57   am
    56    53    52    1
    57    30    28   ar
    58    52    51    1
    59    26    23    1
    60    11    12    2
    61    11    10    1
    62     9    10    1
    63    13    10    1
    64    13    15    1
    65    13    14    1
    66    24    23    1
    67    24    25    2
    68    48    47    2
    69    23    22    1
    70    16    14    1
    71    46    49    1
    72    46    47    1
    73    46    45    1
    74    49    50    1
    75    43    42    2
    76    45    42   am
    77    42    41    1
    78    38    37    1
    79    44    41    1
    80    41    40    1
    81    36    35    2
    82    37    39    1
    83    37    34    1
    84    35    34    1
    85    34    33    1
