@<TRIPOS>MOLECULE
tmp/5gyzA00.pdb
 183 175 0 0 0
SMALL
GASTEIGER

@<TRIPOS>ATOM
      1  N          6.5430   19.3370   12.5020 N.3   211  ARG211     -0.1245
      2  CA         7.6610   19.8280   11.7010 C.3   211  ARG211      0.1563
      3  C          8.9110   19.0000   11.9330 C.2   211  ARG211      0.2260
      4  O          9.6740   18.7280   10.9920 O.2   211  ARG211     -0.2867
      5  CB         7.9380   21.2970   12.0240 C.3   211  ARG211      0.0307
      6  CG         9.2590   21.8170   11.4620 C.3   211  ARG211      0.0489
      7  CD         9.2860   21.8360    9.9340 C.3   211  ARG211      0.2205
      8  NE        10.6530   21.8120    9.4200 N.pl3 211  ARG211     -0.0865
      9  CZ        10.9820   21.4630    8.1760 C.cat 211  ARG211      0.5346
     10  NH1       10.0430   21.1190    7.2980 N.pl3 211  ARG211      0.1354
     11  NH2       12.2580   21.4440    7.8050 N.pl3 211  ARG211      0.1354
     12  N         11.2300   13.6630    3.0730 N.3   220  PHE220     -0.1227
     13  CA        10.6910   15.0120    3.1610 C.3   220  PHE220      0.1736
     14  C         11.5820   15.9720    3.9310 C.2   220  PHE220      0.2596
     15  O         11.2100   17.1340    4.0980 O.2   220  PHE220     -0.2718
     16  CB         9.2790   14.9590    3.7640 C.3   220  PHE220      0.0547
     17  CG         8.2720   14.3360    2.8240 C.ar  220  PHE220     -0.0202
     18  CD1        8.0190   12.9710    2.8580 C.ar  220  PHE220     -0.0042
     19  CD2        7.6470   15.1060    1.8420 C.ar  220  PHE220     -0.0042
     20  CE1        7.1290   12.4010    1.9720 C.ar  220  PHE220     -0.0003
     21  CE2        6.7520   14.5340    0.9490 C.ar  220  PHE220     -0.0003
     22  CZ         6.4930   13.1840    1.0140 C.ar  220  PHE220     -0.0000
     23  N         12.7670   15.5380    4.3560 N.am  221  GLY221     -0.1942
     24  CA        13.6840   16.4160    5.0590 C.3   221  GLY221      0.2014
     25  C         15.1220   16.1250    4.7080 C.2   221  GLY221      0.2638
     26  O         15.4690   16.0150    3.5330 O.2   221  GLY221     -0.2714
     27  N         15.9670   15.9820    5.7160 N.am  222  ASN222     -0.1972
     28  CA        17.3680   15.6350    5.5310 C.3   222  ASN222      0.1688
     29  C         17.6650   14.3890    6.3550 C.2   222  ASN222      0.2292
     30  O         17.2690   14.3080    7.5290 O.2   222  ASN222     -0.2864
     31  CB        18.2990   16.7950    5.9610 C.3   222  ASN222      0.1181
     32  CG        18.0160   18.1040    5.2160 C.2   222  ASN222      0.2629
     33  OD1       17.3740   19.0090    5.7510 O.2   222  ASN222     -0.2716
     34  ND2       18.4990   18.2030    3.9780 N.am  222  ASN222     -0.0877
     35  N         10.9140   34.7190   10.4660 N.3   238  HIS238     -0.1226
     36  CA         9.7890   34.2190    9.6790 C.3   238  HIS238      0.1752
     37  C          9.7860   32.6920    9.6980 C.2   238  HIS238      0.2597
     38  O         10.7630   32.0440   10.0880 O.2   238  HIS238     -0.2718
     39  CB         9.8140   34.7640    8.2370 C.3   238  HIS238      0.0759
     40  CG         9.3990   36.2080    8.1260 C.ar  238  HIS238      0.0818
     41  ND1       10.0850   37.1300    7.3560 N.ar  238  HIS238     -0.2268
     42  CD2        8.3700   36.8890    8.6960 C.ar  238  HIS238      0.1154
     43  CE1        9.4950   38.3120    7.4560 C.ar  238  HIS238      0.1986
     44  NE2        8.4550   38.1950    8.2650 N.ar  238  HIS238     -0.2212
     45  N          8.6520   32.1160    9.2900 N.am  239  GLY239     -0.1942
     46  CA         8.4250   30.6980    9.5000 C.3   239  GLY239      0.2014
     47  C          9.3650   29.8090    8.7150 C.2   239  GLY239      0.2638
     48  O          9.6640   28.6850    9.1370 O.2   239  GLY239     -0.2714
     49  N          9.8370   30.2850    7.5640 N.am  240  PHE240     -0.1973
     50  CA        10.7810   29.5060    6.7790 C.3   240  PHE240      0.1639
     51  C         12.0950   29.3240    7.5420 C.2   240  PHE240      0.2290
     52  O         12.5940   28.2060    7.6870 O.2   240  PHE240     -0.2864
     53  CB        10.9790   30.1960    5.4240 C.3   240  PHE240      0.0560
     54  CG        11.8980   29.4680    4.4880 C.ar  240  PHE240     -0.0200
     55  CD1       12.1540   28.1090    4.6360 C.ar  240  PHE240     -0.0042
     56  CD2       12.5260   30.1590    3.4600 C.ar  240  PHE240     -0.0042
     57  CE1       13.0230   27.4560    3.7770 C.ar  240  PHE240     -0.0003
     58  CE2       13.3980   29.5170    2.6050 C.ar  240  PHE240     -0.0003
     59  CZ        13.6460   28.1640    2.7540 C.ar  240  PHE240     -0.0000
     60  N         13.0000   25.6550    9.7940 N.3   244  THR244     -0.1218
     61  CA        14.1230   24.9000    9.2630 C.3   244  THR244      0.1862
     62  C         15.2650   24.8560   10.2790 C.2   244  THR244      0.2287
     63  O         15.8910   23.8020   10.4680 O.2   244  THR244     -0.2866
     64  CB        14.5950   25.5070    7.9380 C.3   244  THR244      0.1770
     65  OG1       14.9640   26.8750    8.1390 O.3   244  THR244     -0.2211
     66  CG2       13.4840   25.4310    6.8480 C.3   244  THR244      0.0375
     67  N         16.9800   21.6930   12.0170 N.3   248  TYR248     -0.1241
     68  CA        18.4020   21.3790   11.9220 C.3   248  TYR248      0.1605
     69  C         19.0040   21.1300   13.2980 C.2   248  TYR248      0.2264
     70  O         19.8930   20.2910   13.4450 O.2   248  TYR248     -0.2867
     71  CB        19.1610   22.5070   11.2250 C.3   248  TYR248      0.0534
     72  CG        18.7250   22.7980    9.8140 C.ar  248  TYR248     -0.0201
     73  CD1       18.2810   21.7770    8.9510 C.ar  248  TYR248     -0.0009
     74  CD2       18.7450   24.0990    9.3370 C.ar  248  TYR248     -0.0009
     75  CE1       17.8780   22.0590    7.6440 C.ar  248  TYR248      0.0417
     76  CE2       18.3480   24.3930    8.0360 C.ar  248  TYR248      0.0417
     77  CZ        17.9160   23.3740    7.2020 C.ar  248  TYR248      0.1957
     78  OH        17.5300   23.7030    5.9320 O.3   248  TYR248     -0.2866
     79  N         20.3280   27.1830    1.7660 N.3   279  LEU279     -0.1245
     80  CA        18.9500   27.6110    2.0110 C.3   279  LEU279      0.1561
     81  C         18.8220   29.0850    1.6500 C.2   279  LEU279      0.2260
     82  O         19.3970   29.9420    2.3300 O.2   279  LEU279     -0.2867
     83  CB        18.5790   27.3880    3.4710 C.3   279  LEU279      0.0270
     84  CG        17.4090   26.4860    3.8380 C.3   279  LEU279      0.0019
     85  CD1       16.6430   27.1040    4.9980 C.3   279  LEU279      0.0001
     86  CD2       16.4900   26.2550    2.6740 C.3   279  LEU279      0.0001
     87  N         22.3770   19.8160   -2.3600 N.3   304  GLU304     -0.1245
     88  CA        21.1130   20.4290   -2.7360 C.3   304  GLU304      0.1567
     89  C         21.1150   21.9240   -2.4490 C.2   304  GLU304      0.2260
     90  O         21.8030   22.4130   -1.5430 O.2   304  GLU304     -0.2867
     91  CB        19.9390   19.7810   -2.0210 C.3   304  GLU304      0.0388
     92  CG        20.0140   19.9520   -0.5400 C.3   304  GLU304      0.1160
     93  CD        18.7930   19.4240    0.1800 C.2   304  GLU304      0.3649
     94  OE1       18.1130   18.5310   -0.3720 O.co2 304  GLU304     -0.2457
     95  OE2       18.4970   19.9340    1.2840 O.co2 304  GLU304     -0.2457
     96  N         18.0140   24.8360   -1.9330 N.3   306  ALA306     -0.1231
     97  CA        16.6010   24.8330   -1.5900 C.3   306  ALA306      0.1694
     98  C         16.0600   26.2530   -1.5290 C.2   306  ALA306      0.2593
     99  O         16.7740   27.2040   -1.1780 O.2   306  ALA306     -0.2718
    100  CB        16.3450   24.1230   -0.2490 C.3   306  ALA306      0.0304
    101  N         14.7790   26.3740   -1.8630 N.am  307  SER307     -0.1938
    102  CA        14.0760   27.6410   -1.9220 C.3   307  SER307      0.2055
    103  C         12.7130   27.4600   -1.2800 C.2   307  SER307      0.2644
    104  O         12.1430   26.3660   -1.3070 O.2   307  SER307     -0.2714
    105  CB        13.9160   28.1190   -3.3780 C.3   307  SER307      0.2130
    106  OG        13.3980   29.4330   -3.4570 O.3   307  SER307     -0.2179
    107  N         12.1960   28.5390   -0.7000 N.am  308  GLY308     -0.1939
    108  CA        10.8110   28.5480   -0.2610 C.3   308  GLY308      0.2014
    109  C         10.3720   29.9540    0.0760 C.2   308  GLY308      0.2639
    110  O         11.1680   30.8990    0.0510 O.2   308  GLY308     -0.2714
    111  N          9.0720   30.0790    0.3780 N.am  309  GLY309     -0.1954
    112  CA         8.5230   31.2800    0.9680 C.3   309  GLY309      0.1869
    113  C          8.0020   32.3330    0.0000 C.2   309  GLY309      0.2309
    114  O          7.3740   33.3010    0.4570 O.2   309  GLY309     -0.2863
    115  N         15.5440   21.9270   -4.8820 N.3   330  ARG330     -0.1231
    116  CA        14.6570   21.4560   -3.8310 C.3   330  ARG330      0.1694
    117  C         13.7630   22.6140   -3.4060 C.2   330  ARG330      0.2592
    118  O         14.2360   23.7380   -3.2370 O.2   330  ARG330     -0.2718
    119  CB        15.4780   20.9210   -2.6600 C.3   330  ARG330      0.0321
    120  CG        14.7050   20.0740   -1.6900 C.3   330  ARG330      0.0489
    121  CD        15.1230   18.6310   -1.7510 C.3   330  ARG330      0.2205
    122  NE        14.2730   17.8000   -0.8980 N.pl3 330  ARG330     -0.0865
    123  CZ        14.5840   17.4190    0.3350 C.cat 330  ARG330      0.5346
    124  NH1       15.7360   17.7850    0.8750 N.pl3 330  ARG330      0.1354
    125  NH2       13.7500   16.6480    1.0240 N.pl3 330  ARG330      0.1354
    126  N         12.4700   22.3630   -3.2670 N.am  331  GLN331     -0.1966
    127  CA        11.5570   23.4720   -3.0310 C.3   331  GLN331      0.1733
    128  C         10.4880   23.0920   -2.0160 C.2   331  GLN331      0.2616
    129  O         10.1760   21.9190   -1.8090 O.2   331  GLN331     -0.2715
    130  CB        10.9000   23.9370   -4.3440 C.3   331  GLN331      0.0408
    131  CG        10.4850   25.3940   -4.2920 C.3   331  GLN331      0.0908
    132  CD         9.9590   25.9050   -5.6230 C.2   331  GLN331      0.2608
    133  OE1        9.2880   26.9440   -5.6810 O.2   331  GLN331     -0.2717
    134  NE2       10.2660   25.1820   -6.7030 N.am  331  GLN331     -0.0878
    135  N          9.9160   24.1030   -1.3910 N.am  332  GLY332     -0.1955
    136  CA         8.8300   23.8770   -0.4580 C.3   332  GLY332      0.1869
    137  C          7.8920   25.0560   -0.4530 C.2   332  GLY332      0.2309
    138  O          8.3020   26.1970   -0.6900 O.2   332  GLY332     -0.2863
    139  N          4.5620   26.8150    1.8590 N.3   334  GLY334     -0.1210
    140  CA         3.7780   26.8840    3.0790 C.3   334  GLY334      0.1956
    141  C          3.3750   28.3160    3.3540 C.2   334  GLY334      0.2612
    142  O          3.7480   29.2390    2.6280 O.2   334  GLY334     -0.2717
    143  N          2.5910   28.4930    4.4160 N.am  335  LEU335     -0.1965
    144  CA         2.2020   29.8160    4.8780 C.3   335  LEU335      0.1728
    145  C          2.5620   29.9260    6.3510 C.2   335  LEU335      0.2616
    146  O          2.7890   28.9210    7.0330 O.2   335  LEU335     -0.2715
    147  CB         0.6990   30.0920    4.6800 C.3   335  LEU335      0.0311
    148  CG         0.0890   29.7330    3.3150 C.3   335  LEU335      0.0022
    149  CD1       -1.3980   29.9470    3.3470 C.3   335  LEU335      0.0001
    150  CD2        0.7040   30.5420    2.1850 C.3   335  LEU335      0.0001
    151  N          2.6580   31.1610    6.8330 N.am  336  THR336     -0.1951
    152  CA         2.8820   31.3460    8.2580 C.3   336  THR336      0.1897
    153  C          1.8250   30.5980    9.0570 C.2   336  THR336      0.2313
    154  O          2.1410   29.9150   10.0430 O.2   336  THR336     -0.2863
    155  CB         2.8750   32.8370    8.6010 C.3   336  THR336      0.1794
    156  OG1        3.7890   33.5290    7.7420 O.3   336  THR336     -0.2208
    157  CG2        3.2910   33.0520   10.0460 C.3   336  THR336      0.0378
    158  N          2.5380   26.8640    9.8180 N.3   339  THR339     -0.1203
    159  CA         3.7880   26.6200   10.5420 C.3   339  THR339      0.1994
    160  C          4.9700   26.6040    9.5790 C.2   339  THR339      0.2619
    161  O          5.8020   27.5200    9.6010 O.2   339  THR339     -0.2717
    162  CB         3.7420   25.3110   11.3550 C.3   339  THR339      0.1784
    163  OG1        2.7150   25.4020   12.3420 O.3   339  THR339     -0.2211
    164  CG2        5.0810   25.0550   12.0540 C.3   339  THR339      0.0376
    165  N          5.0600   25.5770    8.7560 N.am  340  SER340     -0.1937
    166  CA         6.1760   25.3570    7.8710 C.3   340  SER340      0.2055
    167  C          5.7120   24.8940    6.4960 C.2   340  SER340      0.2642
    168  O          4.5940   25.0880    6.1460 O.2   340  SER340     -0.2714
    169  CB         7.0860   24.3190    8.4820 C.3   340  SER340      0.2130
    170  OG         8.1560   24.0590    7.6510 O.3   340  SER340     -0.2179
    171  N          6.5850   24.2760    5.7230 N.am  341  ALA341     -0.1977
    172  CA         6.1900   23.7770    4.4150 C.3   341  ALA341      0.1597
    173  C          5.2520   22.5880    4.5640 C.2   341  ALA341      0.2287
    174  O          5.5120   21.6750    5.3530 O.2   341  ALA341     -0.2864
    175  CB         7.4170   23.3760    3.6010 C.3   341  ALA341      0.0319
    176  N          6.4320   19.8120   -0.2470 N.3   344  ILE344     -0.1245
    177  CA         7.8860   19.6780   -0.2200 C.3   344  ILE344      0.1561
    178  C          8.3140   18.7570   -1.3510 C.2   344  ILE344      0.2260
    179  O          7.7480   17.6740   -1.5200 O.2   344  ILE344     -0.2867
    180  CB         8.3810   19.1190    1.1380 C.3   344  ILE344      0.0252
    181  CG1        8.2040   20.1550    2.2450 C.3   344  ILE344      0.0019
    182  CG2        9.8330   18.6570    1.0490 C.3   344  ILE344      0.0019
    183  CD1        8.7500   19.7140    3.5920 C.3   344  ILE344      0.0001
@<TRIPOS>BOND
     1   134   132   am
     2   133   132    2
     3   132   131    1
     4   115   116    1
     5   130   131    1
     6   130   127    1
     7   116   117    1
     8   116   119    1
     9   106   105    1
    10   117   126   am
    11   117   118    2
    12   105   102    1
    13   126   127    1
    14   127   128    1
    15    88    89    1
    16    88    87    1
    17    88    91    1
    18   119   120    1
    19    89    90    2
    20    91    92    1
    21   128   129    2
    22   128   135   am
    23    96    97    1
    24   102   101    1
    25   102   103    1
    26   101    98   am
    27   121   120    1
    28   121   122    1
    29    97    98    1
    30    97   100    1
    31    98    99    2
    32   179   178    2
    33   135   136    1
    34   178   177    1
    35   104   103    2
    36   103   107   am
    37   122   123    2
    38   107   108    1
    39   138   137    2
    40    92    93    1
    41   136   137    1
    42    94    93   ar
    43   108   109    1
    44   176   177    1
    45   177   180    1
    46   113   114    2
    47   113   112    1
    48   110   109    2
    49   109   111   am
    50    93    95   ar
    51   123   124    1
    52   123   125    1
    53   111   112    1
    54    21    22   ar
    55    21    19   ar
    56    22    20   ar
    57   182   180    1
    58   180   181    1
    59    81    80    1
    60    81    82    2
    61    79    80    1
    62    19    17   ar
    63   139   140    1
    64    20    18   ar
    65    80    83    1
    66   150   148    1
    67   181   183    1
    68    58    59   ar
    69    58    56   ar
    70   142   141    2
    71    86    84    1
    72    59    57   ar
    73    17    18   ar
    74    17    16    1
    75    12    13    1
    76   140   141    1
    77    13    16    1
    78    13    14    1
    79   148   149    1
    80   148   147    1
    81   141   143   am
    82    56    54   ar
    83    83    84    1
    84    26    25    2
    85   175   172    1
    86    57    55   ar
    87    84    85    1
    88    14    15    2
    89    14    23   am
    90    34    32   am
    91    23    24    1
    92   172   173    1
    93   172   171    1
    94   143   144    1
    95    54    55   ar
    96    54    53    1
    97   173   174    2
    98   147   144    1
    99    25    24    1
   100    25    27   am
   101   144   145    1
   102    32    33    2
   103    32    31    1
   104    53    50    1
   105    28    27    1
   106    28    31    1
   107    28    29    1
   108   171   167   am
   109    78    77    1
   110   168   167    2
   111   145   151   am
   112   145   146    2
   113    29    30    2
   114   167   166    1
   115    50    51    1
   116    50    49    1
   117   151   152    1
   118    66    64    1
   119    77    75   ar
   120    77    76   ar
   121    10     9    1
   122    41    43   ar
   123    41    40   ar
   124    43    44   ar
   125    51    52    2
   126    49    47   am
   127    75    73   ar
   128   170   169    1
   129   156   155    1
   130    11     9    1
   131   166   169    1
   132   166   165    1
   133    64    65    1
   134    64    61    1
   135    76    74   ar
   136    40    39    1
   137    40    42   ar
   138     9     8    2
   139    39    36    1
   140   152   155    1
   141   152   153    1
   142    44    42   ar
   143   155   157    1
   144    47    48    2
   145    47    46    1
   146   165   160   am
   147    73    72   ar
   148   153   154    2
   149    61    60    1
   150    61    62    1
   151    45    46    1
   152    45    37   am
   153    74    72   ar
   154     8     7    1
   155   160   161    2
   156   160   159    1
   157    36    37    1
   158    36    35    1
   159    37    38    2
   160    72    71    1
   161   158   159    1
   162     7     6    1
   163    62    63    2
   164   159   162    1
   165     4     3    2
   166    71    68    1
   167   162   164    1
   168   162   163    1
   169     6     5    1
   170     2     3    1
   171     2     5    1
   172     2     1    1
   173    68    67    1
   174    68    69    1
   175    69    70    2
