@<TRIPOS>MOLECULE
tmp/5gyzA02.pdb
 90 85 0 0 0
SMALL
GASTEIGER

@<TRIPOS>ATOM
      1  N         13.9670   39.9350   19.4060 N.3    78  CYS78      -0.1221
      2  CA        14.1260   40.9370   18.3590 C.3    78  CYS78       0.1808
      3  C         15.6140   41.0500   18.0510 C.2    78  CYS78       0.2602
      4  O         16.3750   41.6690   18.8060 O.2    78  CYS78      -0.2717
      5  CB        13.5450   42.2820   18.7760 C.3    78  CYS78       0.0970
      6  SG        13.8740   43.5520   17.5110 S.3    78  CYS78      -0.0800
      7  N         16.0210   40.4600   16.9340 N.am   79  SER79      -0.1938
      8  CA        17.4330   40.4030   16.6010 C.3    79  SER79       0.2055
      9  C         17.5640   39.8430   15.2020 C.2    79  SER79       0.2643
     10  O         16.7920   38.9690   14.7980 O.2    79  SER79      -0.2714
     11  CB        18.2200   39.5310   17.6000 C.3    79  SER79       0.2130
     12  OG        19.5980   39.4520   17.2700 O.3    79  SER79      -0.2179
     13  N         18.5230   40.3730   14.4620 N.am   80  GLU80      -0.1963
     14  CA        18.9090   39.7290   13.2260 C.3    80  GLU80       0.1733
     15  C         19.5300   38.3730   13.5450 C.2    80  GLU80       0.2616
     16  O         19.9530   38.1070   14.6760 O.2    80  GLU80      -0.2715
     17  CB        19.8760   40.6210   12.4470 C.3    80  GLU80       0.0429
     18  CG        20.2970   40.1150   11.0830 C.3    80  GLU80       0.1163
     19  CD        19.1220   39.9400   10.1300 C.2    80  GLU80       0.3649
     20  OE1       18.4660   38.8600   10.1610 O.co2  80  GLU80      -0.2457
     21  OE2       18.8550   40.9080    9.3730 O.co2  80  GLU80      -0.2457
     22  N         19.5540   37.5040   12.5360 N.am   81  ASN81      -0.1958
     23  CA        20.2150   36.2170   12.6620 C.3    81  ASN81       0.1819
     24  C         21.5660   36.3890   13.3420 C.2    81  ASN81       0.2622
     25  O         22.3450   37.2810   12.9870 O.2    81  ASN81      -0.2715
     26  CB        20.3790   35.5720   11.2860 C.3    81  ASN81       0.1195
     27  CG        19.0330   35.2270   10.6230 C.2    81  ASN81       0.2630
     28  OD1       17.9590   35.6540   11.0660 O.2    81  ASN81      -0.2716
     29  ND2       19.0970   34.4600    9.5470 N.am   81  ASN81      -0.0877
     30  N         21.8170   35.5630   14.3560 N.am   82  SER82      -0.1950
     31  CA        23.0710   35.6440   15.0890 C.3    82  SER82       0.1924
     32  C         23.3020   34.3270   15.8150 C.2    82  SER82       0.2314
     33  O         22.4120   33.4760   15.9020 O.2    82  SER82      -0.2863
     34  CB        23.0590   36.8010   16.0900 C.3    82  SER82       0.2116
     35  OG        22.1860   36.4910   17.1640 O.3    82  SER82      -0.2180
     36  N         13.7300   42.3150   13.5710 N.3   104  ASP104     -0.1225
     37  CA        14.9700   43.0350   13.9080 C.3   104  ASP104      0.1805
     38  C         15.2720   44.4180   13.3090 C.2   104  ASP104      0.2597
     39  O         15.9710   45.2440   13.9280 O.2   104  ASP104     -0.2718
     40  CB        16.1510   42.1400   13.5380 C.3   104  ASP104      0.1424
     41  CG        16.1760   41.7520   12.0440 C.2   104  ASP104      0.3668
     42  OD1       17.1920   42.0440   11.3910 O.co2 104  ASP104     -0.2456
     43  OD2       15.2060   41.1410   11.5370 O.co2 104  ASP104     -0.2456
     44  N         14.8380   44.6410   12.0670 N.am  105  ILE105     -0.1980
     45  CA        15.1520   45.8550   11.3250 C.3   105  ILE105      0.1595
     46  C         13.8940   46.6020   10.8950 C.2   105  ILE105      0.2287
     47  O         13.9890   47.7290   10.3950 O.2   105  ILE105     -0.2864
     48  CB        16.0700   45.5110   10.1180 C.3   105  ILE105      0.0276
     49  CG1       17.5240   45.3390   10.5900 C.3   105  ILE105      0.0022
     50  CG2       15.9940   46.4790    8.9360 C.3   105  ILE105      0.0022
     51  CD1       18.0140   46.4530   11.4850 C.3   105  ILE105      0.0001
     52  N         19.0470   42.4620   20.5200 N.3   126  SER126     -0.1217
     53  CA        20.4410   42.7660   20.2360 C.3   126  SER126      0.1889
     54  C         20.6980   44.2650   20.4230 C.2   126  SER126      0.2288
     55  O         19.7620   45.0790   20.4640 O.2   126  SER126     -0.2866
     56  CB        20.7740   42.3600   18.8110 C.3   126  SER126      0.2089
     57  OG        20.0420   43.2110   17.9710 O.3   126  SER126     -0.2183
     58  N         21.7290   46.6660   18.5350 N.3   128  LYS128     -0.1231
     59  CA        21.3520   47.6550   17.5400 C.3   128  LYS128      0.1693
     60  C         19.8440   47.7830   17.3970 C.2   128  LYS128      0.2592
     61  O         19.3780   48.6750   16.6800 O.2   128  LYS128     -0.2718
     62  CB        21.9830   47.3070   16.1990 C.3   128  LYS128      0.0285
     63  CG        21.5340   45.9690   15.6720 C.3   128  LYS128      0.0035
     64  CD        22.2950   45.5890   14.4530 C.3   128  LYS128      0.0206
     65  CE        22.0790   46.6110   13.3330 C.3   128  LYS128      0.1093
     66  NZ        22.6250   46.0980   12.0480 N.3   128  LYS128     -0.1314
     67  N         19.0800   46.9250   18.0710 N.am  129  GLY129     -0.1957
     68  CA        17.6530   47.1020   18.1930 C.3   129  GLY129      0.1869
     69  C         17.1800   47.6990   19.5040 C.2   129  GLY129      0.2309
     70  O         15.9750   47.9040   19.6620 O.2   129  GLY129     -0.2863
     71  N         23.5770   40.1930   22.5350 N.3   150  ASP150     -0.1239
     72  CA        24.9510   40.0410   22.0490 C.3   150  ASP150      0.1674
     73  C         25.9200   40.8170   22.9230 C.2   150  ASP150      0.2266
     74  O         26.7370   41.6130   22.4690 O.2   150  ASP150     -0.2867
     75  CB        25.0680   40.4370   20.5710 C.3   150  ASP150      0.1410
     76  CG        24.5100   41.8200   20.2700 C.2   150  ASP150      0.3668
     77  OD1       23.7000   42.3510   21.0660 O.co2 150  ASP150     -0.2456
     78  OD2       24.8770   42.3720   19.2110 O.co2 150  ASP150     -0.2456
     79  N         23.9410   36.9790    7.8380 N.3   259  TYR259     -0.1241
     80  CA        22.8210   37.8960    7.9300 C.3   259  TYR259      0.1605
     81  C         22.9390   39.0790    6.9710 C.2   259  TYR259      0.2264
     82  O         21.9730   39.8280    6.8220 O.2   259  TYR259     -0.2867
     83  CB        22.6670   38.3800    9.3820 C.3   259  TYR259      0.0534
     84  CG        23.9440   38.8900   10.0220 C.ar  259  TYR259     -0.0201
     85  CD1       24.3250   40.2200    9.8770 C.ar  259  TYR259     -0.0009
     86  CD2       24.7630   38.0420   10.7800 C.ar  259  TYR259     -0.0009
     87  CE1       25.5030   40.7020   10.4440 C.ar  259  TYR259      0.0417
     88  CE2       25.9420   38.5080   11.3760 C.ar  259  TYR259      0.0417
     89  CZ        26.3150   39.8410   11.1920 C.ar  259  TYR259      0.1957
     90  OH        27.4880   40.3260   11.7660 O.3   259  TYR259     -0.2866
@<TRIPOS>BOND
     1    82    81    2
     2    81    80    1
     3    79    80    1
     4    80    83    1
     5    50    48    1
     6    21    19   ar
     7    83    84    1
     8    29    27   am
     9    85    84   ar
    10    85    87   ar
    11    84    86   ar
    12    48    49    1
    13    48    45    1
    14    19    20   ar
    15    19    18    1
    16    47    46    2
    17    87    89   ar
    18    49    51    1
    19    27    28    2
    20    27    26    1
    21    86    88   ar
    22    46    45    1
    23    18    17    1
    24    89    88   ar
    25    89    90    1
    26    26    23    1
    27    45    44    1
    28    42    41   ar
    29    43    41   ar
    30    41    40    1
    31    66    65    1
    32    44    38   am
    33    17    14    1
    34    22    23    1
    35    22    15   am
    36    23    24    1
    37    25    24    2
    38    14    15    1
    39    14    13    1
    40    38    37    1
    41    38    39    2
    42    65    64    1
    43    24    30   am
    44    40    37    1
    45    15    16    2
    46    36    37    1
    47    30    31    1
    48    64    63    1
    49    13     9   am
    50    10     9    2
    51    31    32    1
    52    31    34    1
    53     9     8    1
    54    63    62    1
    55    32    33    2
    56    34    35    1
    57    62    59    1
    58     8     7    1
    59     8    11    1
    60    61    60    2
    61     7     3   am
    62    12    11    1
    63    60    59    1
    64    60    67   am
    65     6     5    1
    66    59    58    1
    67    57    56    1
    68     3     2    1
    69     3     4    2
    70    67    68    1
    71    68    69    1
    72     2     5    1
    73     2     1    1
    74    56    53    1
    75    78    76   ar
    76    69    70    2
    77    53    54    1
    78    53    52    1
    79    76    75    1
    80    76    77   ar
    81    54    55    2
    82    75    72    1
    83    72    71    1
    84    72    73    1
    85    74    73    2
