@<TRIPOS>MOLECULE
tmp/5gyzA01.pdb
 126 121 0 0 0
SMALL
GASTEIGER

@<TRIPOS>ATOM
      1  N          1.9600   37.6550    6.6550 N.3   196  SER196     -0.1217
      2  CA         2.4670   38.3680    5.4710 C.3   196  SER196      0.1889
      3  C          2.3020   39.8980    5.4860 C.2   196  SER196      0.2288
      4  O          1.1860   40.4240    5.4640 O.2   196  SER196     -0.2866
      5  CB         1.7750   37.8140    4.2310 C.3   196  SER196      0.2089
      6  OG         0.3990   38.1480    4.2630 O.3   196  SER196     -0.2183
      7  N         10.9140   34.7190   10.4660 N.3   238  HIS238     -0.1241
      8  CA         9.7890   34.2190    9.6790 C.3   238  HIS238      0.1621
      9  C          9.7860   32.6920    9.6980 C.2   238  HIS238      0.2264
     10  O         10.7630   32.0440   10.0880 O.2   238  HIS238     -0.2867
     11  CB         9.8140   34.7640    8.2370 C.3   238  HIS238      0.0745
     12  CG         9.3990   36.2080    8.1260 C.ar  238  HIS238      0.0817
     13  ND1       10.0850   37.1300    7.3560 N.ar  238  HIS238     -0.2268
     14  CD2        8.3700   36.8890    8.6960 C.ar  238  HIS238      0.1154
     15  CE1        9.4950   38.3120    7.4560 C.ar  238  HIS238      0.1986
     16  NE2        8.4550   38.1950    8.2650 N.ar  238  HIS238     -0.2212
     17  N         12.1960   28.5390   -0.7000 N.3   308  GLY308     -0.1210
     18  CA        10.8110   28.5480   -0.2610 C.3   308  GLY308      0.1956
     19  C         10.3720   29.9540    0.0760 C.2   308  GLY308      0.2612
     20  O         11.1680   30.8990    0.0510 O.2   308  GLY308     -0.2717
     21  N          9.0720   30.0790    0.3780 N.am  309  GLY309     -0.1942
     22  CA         8.5230   31.2800    0.9680 C.3   309  GLY309      0.2014
     23  C          8.0020   32.3330    0.0000 C.2   309  GLY309      0.2639
     24  O          7.3740   33.3010    0.4570 O.2   309  GLY309     -0.2714
     25  N          8.2210   32.1810   -1.3020 N.am  310  ALA310     -0.1963
     26  CA         7.7880   33.1600   -2.2860 C.3   310  ALA310      0.1713
     27  C          7.8810   32.5130   -3.6620 C.2   310  ALA310      0.2458
     28  O          8.5620   31.4680   -3.8200 O.2   310  ALA310     -0.2730
     29  CB         8.6640   34.4340   -2.2150 C.3   310  ALA310      0.0333
     30  N          7.2150   33.0800   -4.6800 N.am  311  PRO311     -0.2716
     31  CA         7.2520   32.4430   -6.0190 C.3   311  PRO311      0.1536
     32  C          8.6660   32.2740   -6.5690 C.2   311  PRO311      0.2598
     33  O          9.4900   33.1920   -6.5050 O.2   311  PRO311     -0.2715
     34  CB         6.4290   33.3830   -6.9170 C.3   311  PRO311      0.0310
     35  CG         5.6340   34.2400   -6.0130 C.3   311  PRO311      0.0237
     36  CD         6.4150   34.3210   -4.7070 C.3   311  PRO311      0.0939
     37  N          8.9290   31.0940   -7.1170 N.am  312  LEU312     -0.1978
     38  CA        10.1440   30.8180   -7.8690 C.3   312  LEU312      0.1596
     39  C          9.7370   30.2580   -9.2240 C.2   312  LEU312      0.2287
     40  O          9.0980   29.2040   -9.2920 O.2   312  LEU312     -0.2864
     41  CB        11.0440   29.8350   -7.1080 C.3   312  LEU312      0.0297
     42  CG        12.4460   29.6260   -7.6780 C.3   312  LEU312      0.0022
     43  CD1       13.1830   30.9440   -7.7650 C.3   312  LEU312      0.0001
     44  CD2       13.2110   28.6420   -6.8270 C.3   312  LEU312      0.0001
     45  N         12.4700   22.3630   -3.2670 N.3   331  GLN331     -0.1231
     46  CA        11.5570   23.4720   -3.0310 C.3   331  GLN331      0.1698
     47  C         10.4880   23.0920   -2.0160 C.2   331  GLN331      0.2593
     48  O         10.1760   21.9190   -1.8090 O.2   331  GLN331     -0.2718
     49  CB        10.9000   23.9370   -4.3440 C.3   331  GLN331      0.0381
     50  CG        10.4850   25.3940   -4.2920 C.3   331  GLN331      0.0905
     51  CD         9.9590   25.9050   -5.6230 C.2   331  GLN331      0.2608
     52  OE1        9.2880   26.9440   -5.6810 O.2   331  GLN331     -0.2717
     53  NE2       10.2660   25.1820   -6.7030 N.am  331  GLN331     -0.0878
     54  N          9.9160   24.1030   -1.3910 N.am  332  GLY332     -0.1942
     55  CA         8.8300   23.8770   -0.4580 C.3   332  GLY332      0.2014
     56  C          7.8920   25.0560   -0.4530 C.2   332  GLY332      0.2639
     57  O          8.3020   26.1970   -0.6900 O.2   332  GLY332     -0.2714
     58  N          6.6140   24.7740   -0.1660 N.am  333  TYR333     -0.1959
     59  CA         5.5570   25.7740   -0.0870 C.3   333  TYR333      0.1771
     60  C          4.8330   25.6610    1.2470 C.2   333  TYR333      0.2620
     61  O          4.5090   24.5530    1.6960 O.2   333  TYR333     -0.2715
     62  CB         4.5420   25.6190   -1.2440 C.3   333  TYR333      0.0574
     63  CG         3.2540   26.4130   -1.0790 C.ar  333  TYR333     -0.0198
     64  CD1        2.1710   25.8820   -0.3880 C.ar  333  TYR333     -0.0009
     65  CD2        3.1100   27.6760   -1.6320 C.ar  333  TYR333     -0.0009
     66  CE1        1.0020   26.5880   -0.2290 C.ar  333  TYR333      0.0417
     67  CE2        1.9260   28.3870   -1.4790 C.ar  333  TYR333      0.0417
     68  CZ         0.8800   27.8320   -0.7790 C.ar  333  TYR333      0.1957
     69  OH        -0.2920   28.5240   -0.6190 O.3   333  TYR333     -0.2866
     70  N          4.5620   26.8150    1.8590 N.am  334  GLY334     -0.1940
     71  CA         3.7780   26.8840    3.0790 C.3   334  GLY334      0.2014
     72  C          3.3750   28.3160    3.3540 C.2   334  GLY334      0.2639
     73  O          3.7480   29.2390    2.6280 O.2   334  GLY334     -0.2714
     74  N          2.5910   28.4930    4.4160 N.am  335  LEU335     -0.1963
     75  CA         2.2020   29.8160    4.8780 C.3   335  LEU335      0.1728
     76  C          2.5620   29.9260    6.3510 C.2   335  LEU335      0.2617
     77  O          2.7890   28.9210    7.0330 O.2   335  LEU335     -0.2715
     78  CB         0.6990   30.0920    4.6800 C.3   335  LEU335      0.0311
     79  CG         0.0890   29.7330    3.3150 C.3   335  LEU335      0.0022
     80  CD1       -1.3980   29.9470    3.3470 C.3   335  LEU335      0.0001
     81  CD2        0.7040   30.5420    2.1850 C.3   335  LEU335      0.0001
     82  N          2.6580   31.1610    6.8330 N.am  336  THR336     -0.1937
     83  CA         2.8820   31.3460    8.2580 C.3   336  THR336      0.2028
     84  C          1.8250   30.5980    9.0570 C.2   336  THR336      0.2642
     85  O          2.1410   29.9150   10.0430 O.2   336  THR336     -0.2714
     86  CB         2.8750   32.8370    8.6010 C.3   336  THR336      0.1808
     87  OG1        3.7890   33.5290    7.7420 O.3   336  THR336     -0.2208
     88  CG2        3.2910   33.0520   10.0460 C.3   336  THR336      0.0379
     89  N          0.5690   30.6830    8.6030 N.am  337  GLU337     -0.1976
     90  CA        -0.5900   30.0250    9.2000 C.3   337  GLU337      0.1602
     91  C         -0.5190   28.5070    9.1090 C.2   337  GLU337      0.2287
     92  O         -1.4110   27.8220    9.6260 O.2   337  GLU337     -0.2864
     93  CB        -1.8660   30.4990    8.4900 C.3   337  GLU337      0.0415
     94  CG        -2.2370   31.9690    8.6900 C.3   337  GLU337      0.1163
     95  CD        -1.5210   32.9270    7.7360 C.2   337  GLU337      0.3649
     96  OE1       -0.5580   32.5190    7.0580 O.co2 337  GLU337     -0.2457
     97  OE2       -1.9120   34.1130    7.6980 O.co2 337  GLU337     -0.2457
     98  N          6.3820   22.6860   -6.5750 N.3   355  VAL355     -0.1245
     99  CA         6.7760   22.9930   -5.2030 C.3   355  VAL355      0.1561
    100  C          6.9640   21.7370   -4.3730 C.2   355  VAL355      0.2260
    101  O          7.5750   21.8100   -3.2960 O.2   355  VAL355     -0.2867
    102  CB         5.7700   23.9310   -4.4990 C.3   355  VAL355      0.0252
    103  CG1        5.8500   25.3310   -5.0980 C.3   355  VAL355      0.0019
    104  CG2        4.3540   23.3930   -4.5950 C.3   355  VAL355      0.0019
    105  N         -5.8900   28.7870    1.0980 N.3   413  SER413     -0.1217
    106  CA        -4.6090   29.4830    0.9900 C.3   413  SER413      0.1889
    107  C         -4.6650   30.7670    0.1670 C.2   413  SER413      0.2288
    108  O         -3.7030   31.5430    0.2010 O.2   413  SER413     -0.2866
    109  CB        -3.5710   28.5620    0.3620 C.3   413  SER413      0.2089
    110  OG        -3.8540   28.4020   -1.0130 O.3   413  SER413     -0.2183
    111  N         -4.1670   30.8280   -2.8950 N.3   415  ASP415     -0.1239
    112  CA        -3.2880   30.5900   -4.0310 C.3   415  ASP415      0.1674
    113  C         -3.9640   29.6830   -5.0520 C.2   415  ASP415      0.2266
    114  O         -4.7730   28.8180   -4.7020 O.2   415  ASP415     -0.2867
    115  CB        -1.9590   29.9710   -3.5870 C.3   415  ASP415      0.1410
    116  CG        -0.9670   31.0170   -3.1220 C.2   415  ASP415      0.3668
    117  OD1       -0.2430   31.5730   -3.9800 O.co2 415  ASP415     -0.2456
    118  OD2       -0.9230   31.3030   -1.9060 O.co2 415  ASP415     -0.2456
    119  N          2.2080   25.9100   -8.2230 N.3   427  ILE427     -0.1245
    120  CA         1.4920   27.0990   -7.7770 C.3   427  ILE427      0.1561
    121  C          1.4120   28.0270   -8.9760 C.2   427  ILE427      0.2260
    122  O          2.4380   28.3510   -9.5870 O.2   427  ILE427     -0.2867
    123  CB         2.1790   27.7710   -6.5710 C.3   427  ILE427      0.0252
    124  CG1        2.2490   26.8170   -5.3630 C.3   427  ILE427      0.0019
    125  CG2        1.4860   29.0840   -6.1910 C.3   427  ILE427      0.0019
    126  CD1        0.9040   26.3010   -4.8700 C.3   427  ILE427      0.0001
@<TRIPOS>BOND
     1   122   121    2
     2    40    39    2
     3    39    38    1
     4   121   120    1
     5   119   120    1
     6    38    37    1
     7    38    41    1
     8   120   123    1
     9    43    42    1
    10    42    41    1
    11    42    44    1
    12    37    32   am
    13    34    31    1
    14    34    35    1
    15    53    51   am
    16    98    99    1
    17   123   125    1
    18   123   124    1
    19    32    33    2
    20    32    31    1
    21    31    30    1
    22    35    36    1
    23    52    51    2
    24    51    50    1
    25   124   126    1
    26    99   102    1
    27    99   100    1
    28   103   102    1
    29   113   114    2
    30   113   112    1
    31    36    30    1
    32    30    27   am
    33   104   102    1
    34   100   101    2
    35    49    50    1
    36    49    46    1
    37   112   115    1
    38   112   111    1
    39   117   116   ar
    40    28    27    2
    41    27    26    1
    42   115   116    1
    43    45    46    1
    44   116   118   ar
    45    46    47    1
    46    26    29    1
    47    26    25    1
    48    47    48    2
    49    47    54   am
    50    65    67   ar
    51    65    63   ar
    52    67    68   ar
    53    54    55    1
    54    25    23   am
    55    62    63    1
    56    62    59    1
    57    63    64   ar
    58   110   109    1
    59    68    69    1
    60    68    66   ar
    61    17    18    1
    62    57    56    2
    63    55    56    1
    64    56    58   am
    65    64    66   ar
    66    18    19    1
    67    58    59    1
    68    59    60    1
    69    23    24    2
    70    23    22    1
    71    20    19    2
    72    19    21   am
    73   107   108    2
    74   107   106    1
    75   109   106    1
    76    21    22    1
    77   106   105    1
    78    60    61    2
    79    60    70   am
    80    70    71    1
    81    81    79    1
    82    73    72    2
    83    71    72    1
    84    79    80    1
    85    79    78    1
    86    72    74   am
    87     5     6    1
    88     5     2    1
    89    74    75    1
    90    78    75    1
    91    75    76    1
    92     4     3    2
    93     2     3    1
    94     2     1    1
    95    76    82   am
    96    76    77    2
    97    82    83    1
    98    96    95   ar
    99    13    15   ar
   100    13    12   ar
   101    15    16   ar
   102    97    95   ar
   103    95    94    1
   104    87    86    1
   105    12    11    1
   106    12    14   ar
   107    11     8    1
   108    83    86    1
   109    83    84    1
   110    16    14   ar
   111    93    94    1
   112    93    90    1
   113    86    88    1
   114    89    84   am
   115    89    90    1
   116    84    85    2
   117    91    90    1
   118    91    92    2
   119     8     9    1
   120     8     7    1
   121     9    10    2
