@<TRIPOS>MOLECULE
tmp/5gz4A05.pdb
 99 97 0 0 0
SMALL
GASTEIGER

@<TRIPOS>ATOM
      1  N        -32.7360   33.9170   -8.3470 N.3   156  LEU156     -0.1231
      2  CA       -33.0460   34.5970   -9.5970 C.3   156  LEU156      0.1693
      3  C        -31.7940   35.2190  -10.2070 C.2   156  LEU156      0.2592
      4  O        -30.8410   35.5630   -9.5030 O.2   156  LEU156     -0.2718
      5  CB       -34.0820   35.7100   -9.3910 C.3   156  LEU156      0.0284
      6  CG       -35.4080   35.3600   -8.7180 C.3   156  LEU156      0.0019
      7  CD1      -36.2300   36.6240   -8.4630 C.3   156  LEU156      0.0001
      8  CD2      -36.1940   34.3790   -9.5490 C.3   156  LEU156      0.0001
      9  N        -31.8290   35.3800  -11.5310 N.am  157  TYR157     -0.1976
     10  CA       -30.8280   36.1440  -12.2590 C.3   157  TYR157      0.1639
     11  C        -30.9550   37.6360  -11.9730 C.2   157  TYR157      0.2290
     12  O        -32.0210   38.1430  -11.6030 O.2   157  TYR157     -0.2864
     13  CB       -30.9690   35.9410  -13.7680 C.3   157  TYR157      0.0560
     14  CG       -30.7040   34.5400  -14.2290 C.ar  157  TYR157     -0.0198
     15  CD1      -29.4850   33.9340  -13.9810 C.ar  157  TYR157     -0.0009
     16  CD2      -31.6630   33.8300  -14.9260 C.ar  157  TYR157     -0.0009
     17  CE1      -29.2330   32.6540  -14.4060 C.ar  157  TYR157      0.0417
     18  CE2      -31.4250   32.5500  -15.3560 C.ar  157  TYR157      0.0417
     19  CZ       -30.2040   31.9660  -15.0900 C.ar  157  TYR157      0.1957
     20  OH       -29.9360   30.6870  -15.5120 O.3   157  TYR157     -0.2866
     21  N        -31.1330   40.1150  -14.0820 N.3   159  GLU159     -0.1231
     22  CA       -32.1180   40.7980  -14.9170 C.3   159  GLU159      0.1699
     23  C        -33.5540   40.5550  -14.4390 C.2   159  GLU159      0.2592
     24  O        -34.4370   41.3790  -14.7060 O.2   159  GLU159     -0.2718
     25  CB       -31.9530   40.3670  -16.3800 C.3   159  GLU159      0.0402
     26  CG       -32.2920   38.8870  -16.6450 C.3   159  GLU159      0.1161
     27  CD       -32.1440   38.4810  -18.1060 C.2   159  GLU159      0.3649
     28  OE1      -31.7530   39.3220  -18.9300 O.co2 159  GLU159     -0.2457
     29  OE2      -32.4440   37.3210  -18.4360 O.co2 159  GLU159     -0.2457
     30  N        -33.8190   39.4380  -13.7470 N.am  160  THR160     -0.1953
     31  CA       -35.1780   39.1820  -13.2740 C.3   160  THR160      0.1897
     32  C        -35.4710   39.8940  -11.9510 C.2   160  THR160      0.2313
     33  O        -36.5440   40.4890  -11.7960 O.2   160  THR160     -0.2863
     34  CB       -35.4300   37.6740  -13.1310 C.3   160  THR160      0.1794
     35  OG1      -35.4240   37.0400  -14.4170 O.3   160  THR160     -0.2208
     36  CG2      -36.7760   37.4050  -12.5180 C.3   160  THR160      0.0378
     37  N        -27.4760   35.5470  -19.2730 N.3   388  HIS388     -0.1241
     38  CA       -28.8320   35.9840  -18.9730 C.3   388  HIS388      0.1621
     39  C        -28.8360   37.4430  -18.5380 C.2   388  HIS388      0.2264
     40  O        -29.4620   37.8110  -17.5400 O.2   388  HIS388     -0.2867
     41  CB       -29.4720   35.1010  -17.9020 C.3   388  HIS388      0.0745
     42  CG       -29.5910   33.6640  -18.3020 C.ar  388  HIS388      0.0817
     43  ND1      -30.6520   33.1830  -19.0340 N.ar  388  HIS388     -0.2268
     44  CD2      -28.7770   32.6040  -18.0850 C.ar  388  HIS388      0.1154
     45  CE1      -30.4920   31.8910  -19.2500 C.ar  388  HIS388      0.1986
     46  NE2      -29.3630   31.5150  -18.6850 N.ar  388  HIS388     -0.2212
     47  N        -41.1960   30.7990   -7.6330 N.3   470  PRO470     -0.2102
     48  CA       -40.6020   30.5620   -8.9610 C.3   470  PRO470      0.1504
     49  C        -39.2530   31.2520   -9.1140 C.2   470  PRO470      0.2576
     50  O        -39.1270   32.4600   -8.8890 O.2   470  PRO470     -0.2718
     51  CB       -41.6440   31.1500   -9.9240 C.3   470  PRO470      0.0282
     52  CG       -42.9250   31.1200   -9.1650 C.3   470  PRO470      0.0208
     53  CD       -42.5580   31.3490   -7.7230 C.3   470  PRO470      0.0893
     54  N        -38.2680   30.4550   -9.5360 N.am  471  ASN471     -0.1961
     55  CA       -36.8940   30.8770   -9.7130 C.3   471  ASN471      0.1819
     56  C        -36.1960   30.2340  -10.8550 C.2   471  ASN471      0.2621
     57  O        -36.7430   29.4470  -11.5770 O.2   471  ASN471     -0.2715
     58  CB       -36.0740   30.7310   -8.4330 C.3   471  ASN471      0.1195
     59  CG       -35.7970   29.3120   -8.0590 C.2   471  ASN471      0.2630
     60  OD1      -34.7620   28.7980   -8.3600 O.2   471  ASN471     -0.2716
     61  ND2      -36.7020   28.6990   -7.3690 N.am  471  ASN471     -0.0877
     62  N        -34.9390   30.6180  -11.0530 N.am  472  ASN472     -0.1972
     63  CA       -34.1480   30.1030  -12.1710 C.3   472  ASN472      0.1688
     64  C        -33.3940   28.8020  -11.9130 C.2   472  ASN472      0.2292
     65  O        -32.8800   28.1830  -12.8450 O.2   472  ASN472     -0.2864
     66  CB       -33.1730   31.1760  -12.6670 C.3   472  ASN472      0.1181
     67  CG       -33.8810   32.3790  -13.2570 C.2   472  ASN472      0.2629
     68  OD1      -33.4660   33.5200  -13.0550 O.2   472  ASN472     -0.2716
     69  ND2      -34.9590   32.1290  -13.9930 N.am  472  ASN472     -0.0877
     70  N        -35.5500   37.3280  -23.6670 N.3   685  ASP685     -0.1225
     71  CA       -35.8550   36.9330  -22.2940 C.3   685  ASP685      0.1805
     72  C        -35.2470   35.5910  -21.9110 C.2   685  ASP685      0.2598
     73  O        -35.4610   35.1290  -20.7870 O.2   685  ASP685     -0.2718
     74  CB       -37.3750   36.9160  -22.0620 C.3   685  ASP685      0.1424
     75  CG       -38.1140   35.8130  -22.8290 C.2   685  ASP685      0.3668
     76  OD1      -37.5850   35.2620  -23.8010 O.co2 685  ASP685     -0.2456
     77  OD2      -39.2660   35.5100  -22.4640 O.co2 685  ASP685     -0.2456
     78  N        -34.4850   34.9640  -22.8030 N.am  686  GLY686     -0.1942
     79  CA       -33.9250   33.6690  -22.5060 C.3   686  GLY686      0.2014
     80  C        -34.9230   32.5370  -22.5430 C.2   686  GLY686      0.2638
     81  O        -34.6730   31.4890  -21.9440 O.2   686  GLY686     -0.2714
     82  N        -36.0540   32.7150  -23.2220 N.am  687  HIS687     -0.1973
     83  CA       -37.0920   31.7010  -23.3160 C.3   687  HIS687      0.1656
     84  C        -37.4790   31.5100  -24.7720 C.2   687  HIS687      0.2291
     85  O        -37.1050   32.2890  -25.6450 O.2   687  HIS687     -0.2864
     86  CB       -38.3560   32.0910  -22.5440 C.3   687  HIS687      0.0771
     87  CG       -38.3860   31.6200  -21.1320 C.ar  687  HIS687      0.0820
     88  ND1      -38.7530   30.3360  -20.7830 N.ar  687  HIS687     -0.2267
     89  CD2      -38.1390   32.2730  -19.9720 C.ar  687  HIS687      0.1154
     90  CE1      -38.6950   30.2100  -19.4660 C.ar  687  HIS687      0.1986
     91  NE2      -38.3290   31.3720  -18.9510 N.ar  687  HIS687     -0.2212
     92  N        -34.6320   25.9990  -22.2760 N.3   774  LEU774     -0.1245
     93  CA       -35.4760   27.1550  -22.0040 C.3   774  LEU774      0.1561
     94  C        -35.6530   27.9900  -23.2560 C.2   774  LEU774      0.2260
     95  O        -36.7460   28.5060  -23.5220 O.2   774  LEU774     -0.2867
     96  CB       -34.8780   27.9920  -20.8710 C.3   774  LEU774      0.0270
     97  CG       -34.9900   27.3070  -19.5090 C.3   774  LEU774      0.0019
     98  CD1      -33.9230   27.8040  -18.5540 C.3   774  LEU774      0.0001
     99  CD2      -36.3710   27.5170  -18.9120 C.3   774  LEU774      0.0001
@<TRIPOS>BOND
     1    85    84    2
     2    84    83    1
     3    76    75   ar
     4    70    71    1
     5    95    94    2
     6    83    82    1
     7    83    86    1
     8    94    93    1
     9    82    80   am
    10    75    77   ar
    11    75    74    1
    12    78    79    1
    13    78    72   am
    14    86    87    1
    15    80    79    1
    16    80    81    2
    17    71    74    1
    18    71    72    1
    19    92    93    1
    20    93    96    1
    21    72    73    2
    22    87    88   ar
    23    87    89   ar
    24    96    97    1
    25    88    90   ar
    26    89    91   ar
    27    97    99    1
    28    97    98    1
    29    90    91   ar
    30    37    38    1
    31    45    43   ar
    32    45    46   ar
    33    43    42   ar
    34    38    39    1
    35    38    41    1
    36    28    27   ar
    37    46    44   ar
    38    39    40    2
    39    29    27   ar
    40    42    44   ar
    41    42    41    1
    42    27    26    1
    43    26    25    1
    44    25    22    1
    45    20    19    1
    46    18    19   ar
    47    18    16   ar
    48    19    17   ar
    49    16    14   ar
    50    22    23    1
    51    22    21    1
    52    24    23    2
    53    23    30   am
    54    35    34    1
    55    17    15   ar
    56    14    15   ar
    57    14    13    1
    58    69    67   am
    59    13    10    1
    60    30    31    1
    61    31    34    1
    62    31    32    1
    63    67    68    2
    64    67    66    1
    65    34    36    1
    66    65    64    2
    67    66    63    1
    68    10    11    1
    69    10     9    1
    70    63    64    1
    71    63    62    1
    72    11    12    2
    73    32    33    2
    74    57    56    2
    75     9     3   am
    76    62    56   am
    77    56    55    1
    78     3     2    1
    79     3     4    2
    80    51    52    1
    81    51    48    1
    82    55    54    1
    83    55    58    1
    84     2     5    1
    85     2     1    1
    86     8     6    1
    87    54    49   am
    88     5     6    1
    89    52    53    1
    90    49    48    1
    91    49    50    2
    92    48    47    1
    93     6     7    1
    94    58    59    1
    95    60    59    2
    96    59    61   am
    97    53    47    1
