@<TRIPOS>MOLECULE
tmp/5gz5A06.pdb
 188 183 0 0 0
SMALL
GASTEIGER

@<TRIPOS>ATOM
      1  N        -17.6010   -4.5840  -46.7200 N.3    79  ASP79      -0.1239
      2  CA       -17.5660   -5.3430  -45.4850 C.3    79  ASP79       0.1674
      3  C        -16.1940   -5.2350  -44.8110 C.2    79  ASP79       0.2266
      4  O        -15.1540   -5.4180  -45.4460 O.2    79  ASP79      -0.2867
      5  CB       -17.9240   -6.8020  -45.7750 C.3    79  ASP79       0.1410
      6  CG       -18.3810   -7.5090  -44.5410 C.2    79  ASP79       0.3668
      7  OD1      -17.6950   -7.3570  -43.5140 O.co2  79  ASP79      -0.2456
      8  OD2      -19.4310   -8.1750  -44.5920 O.co2  79  ASP79      -0.2456
      9  N        -20.6710   -7.7260  -35.8490 N.3   116  LYS116     -0.1231
     10  CA       -20.7740   -8.8280  -36.8060 C.3   116  LYS116      0.1693
     11  C        -21.5210   -8.3880  -38.0620 C.2   116  LYS116      0.2593
     12  O        -22.2700   -7.4130  -38.0470 O.2   116  LYS116     -0.2718
     13  CB       -21.5020  -10.0230  -36.1840 C.3   116  LYS116      0.0285
     14  CG       -20.8130  -10.5700  -34.9370 C.3   116  LYS116      0.0035
     15  CD       -19.5010  -11.1740  -35.2620 C.3   116  LYS116      0.0206
     16  CE       -18.9470  -11.9700  -34.0650 C.3   116  LYS116      0.1093
     17  NZ       -19.6440  -13.2520  -33.8150 N.3   116  LYS116     -0.1314
     18  N        -21.3490   -9.1610  -39.1470 N.am  117  THR117     -0.1939
     19  CA       -21.7880   -8.7130  -40.4730 C.3   117  THR117      0.2028
     20  C        -23.3160   -8.6820  -40.5920 C.2   117  THR117      0.2642
     21  O        -23.8980   -7.6650  -40.9990 O.2   117  THR117     -0.2714
     22  CB       -21.1740   -9.5920  -41.5740 C.3   117  THR117      0.1808
     23  OG1      -19.7660   -9.2970  -41.7140 O.3   117  THR117     -0.2208
     24  CG2      -21.8540   -9.3200  -42.8910 C.3   117  THR117      0.0379
     25  N        -23.9950   -9.7860  -40.2690 N.am  118  PHE118     -0.1973
     26  CA       -25.4480   -9.8000  -40.4650 C.3   118  PHE118      0.1639
     27  C        -26.1290   -8.8600  -39.4800 C.2   118  PHE118      0.2290
     28  O        -27.0830   -8.1590  -39.8380 O.2   118  PHE118     -0.2864
     29  CB       -26.0090  -11.2290  -40.3360 C.3   118  PHE118      0.0560
     30  CG       -26.1260  -11.9690  -41.6610 C.ar  118  PHE118     -0.0200
     31  CD1      -25.0400  -12.0470  -42.5270 C.ar  118  PHE118     -0.0042
     32  CD2      -27.3070  -12.5830  -42.0290 C.ar  118  PHE118     -0.0042
     33  CE1      -25.1190  -12.7090  -43.7250 C.ar  118  PHE118     -0.0003
     34  CE2      -27.4060  -13.2620  -43.2490 C.ar  118  PHE118     -0.0003
     35  CZ       -26.2970  -13.3240  -44.1020 C.ar  118  PHE118     -0.0000
     36  N        -24.2500  -13.7930  -35.8430 N.3   138  ASN138     -0.1240
     37  CA       -24.2150  -14.5750  -37.0700 C.3   138  ASN138      0.1653
     38  C        -24.5950  -16.0250  -36.7530 C.2   138  ASN138      0.2266
     39  O        -24.8830  -16.8160  -37.6510 O.2   138  ASN138     -0.2867
     40  CB       -22.8280  -14.5160  -37.7090 C.3   138  ASN138      0.1155
     41  CG       -22.5070  -13.1480  -38.2790 C.2   138  ASN138      0.2627
     42  OD1      -23.4050  -12.3760  -38.6160 O.2   138  ASN138     -0.2716
     43  ND2      -21.2200  -12.8400  -38.3890 N.am  138  ASN138     -0.0877
     44  N        -24.8480  -18.7200  -40.7320 N.3   151  LEU151     -0.1245
     45  CA       -24.5180  -18.1070  -42.0230 C.3   151  LEU151      0.1561
     46  C        -24.4380  -19.1280  -43.1510 C.2   151  LEU151      0.2260
     47  O        -24.5740  -18.7520  -44.3240 O.2   151  LEU151     -0.2867
     48  CB       -23.1900  -17.3460  -41.9550 C.3   151  LEU151      0.0270
     49  CG       -23.1580  -16.0370  -41.1490 C.3   151  LEU151      0.0019
     50  CD1      -21.9070  -15.2160  -41.4740 C.3   151  LEU151      0.0001
     51  CD2      -24.4310  -15.2130  -41.3620 C.3   151  LEU151      0.0001
     52  N        -31.4600  -19.5570  -42.1070 N.3   156  MET156     -0.1230
     53  CA       -31.2740  -18.1170  -42.1210 C.3   156  MET156      0.1702
     54  C        -32.2320  -17.4180  -43.0660 C.2   156  MET156      0.2592
     55  O        -32.4920  -16.2250  -42.8840 O.2   156  MET156     -0.2718
     56  CB       -29.8420  -17.7660  -42.4970 C.3   156  MET156      0.0401
     57  CG       -29.4590  -18.1350  -43.8840 C.3   156  MET156      0.0596
     58  SD       -28.0950  -17.1020  -44.4400 S.3   156  MET156     -0.1393
     59  CE       -29.0200  -15.6720  -45.0030 C.3   156  MET156      0.0692
     60  N        -32.7490  -18.1150  -44.0760 N.am  157  ARG157     -0.1980
     61  CA       -33.7130  -17.5160  -44.9860 C.3   157  ARG157      0.1597
     62  C        -35.1430  -17.6080  -44.4650 C.2   157  ARG157      0.2287
     63  O        -36.0810  -17.2110  -45.1730 O.2   157  ARG157     -0.2864
     64  CB       -33.5890  -18.1620  -46.3740 C.3   157  ARG157      0.0334
     65  CG       -32.5870  -17.4290  -47.2550 C.3   157  ARG157      0.0492
     66  CD       -32.4450  -18.0530  -48.6340 C.3   157  ARG157      0.2205
     67  NE       -31.8180  -19.3700  -48.5590 N.pl3 157  ARG157     -0.0865
     68  CZ       -30.5260  -19.5760  -48.3090 C.cat 157  ARG157      0.5346
     69  NH1      -29.7070  -18.5490  -48.1010 N.pl3 157  ARG157      0.1354
     70  NH2      -30.0550  -20.8170  -48.2620 N.pl3 157  ARG157      0.1354
     71  N        -27.1460   -7.9280  -53.3160 N.3   182  PHE182     -0.1227
     72  CA       -26.6770   -8.5530  -52.0860 C.3   182  PHE182      0.1736
     73  C        -26.9300   -7.6030  -50.9240 C.2   182  PHE182      0.2595
     74  O        -26.5890   -6.4150  -50.9800 O.2   182  PHE182     -0.2718
     75  CB       -25.1920   -8.9400  -52.1160 C.3   182  PHE182      0.0547
     76  CG       -24.7990   -9.8560  -53.2380 C.ar  182  PHE182     -0.0202
     77  CD1      -25.7480  -10.5380  -53.9850 C.ar  182  PHE182     -0.0042
     78  CD2      -23.4640  -10.0350  -53.5530 C.ar  182  PHE182     -0.0042
     79  CE1      -25.3600  -11.3670  -55.0260 C.ar  182  PHE182     -0.0003
     80  CE2      -23.0800  -10.8690  -54.6000 C.ar  182  PHE182     -0.0003
     81  CZ       -24.0450  -11.5340  -55.3240 C.ar  182  PHE182     -0.0000
     82  N        -27.5720   -8.1180  -49.8950 N.am  183  TRP183     -0.1963
     83  CA       -27.6620   -7.4650  -48.6070 C.3   183  TRP183      0.1756
     84  C        -28.2620   -8.4940  -47.6690 C.2   183  TRP183      0.2461
     85  O        -29.1970   -9.2010  -48.0610 O.2   183  TRP183     -0.2730
     86  CB       -28.5050   -6.1870  -48.6530 C.3   183  TRP183      0.0590
     87  CG       -28.2500   -5.3150  -47.4720 C.ar  183  TRP183      0.0006
     88  CD1      -28.8270   -5.4180  -46.2440 C.ar  183  TRP183      0.0946
     89  CD2      -27.2940   -4.2220  -47.3750 C.ar  183  TRP183      0.0152
     90  NE1      -28.3180   -4.4400  -45.3920 N.ar  183  TRP183     -0.2442
     91  CE2      -27.3920   -3.6940  -46.0720 C.ar  183  TRP183      0.0810
     92  CE3      -26.4210   -3.6110  -48.2770 C.ar  183  TRP183      0.0012
     93  CZ2      -26.6240   -2.6020  -45.6440 C.ar  183  TRP183      0.0191
     94  CZ3      -25.6400   -2.5050  -47.8320 C.ar  183  TRP183      0.0001
     95  CH2      -25.7540   -2.0290  -46.5410 C.ar  183  TRP183      0.0015
     96  N        -27.7010   -8.6590  -46.4700 N.am  184  PRO184     -0.2727
     97  CA       -28.2810   -9.5970  -45.5030 C.3   184  PRO184      0.1402
     98  C        -29.7440   -9.2780  -45.2800 C.2   184  PRO184      0.2269
     99  O        -30.1000   -8.1400  -44.9870 O.2   184  PRO184     -0.2865
    100  CB       -27.4460   -9.3610  -44.2400 C.3   184  PRO184      0.0296
    101  CG       -26.0940   -8.9230  -44.7810 C.3   184  PRO184      0.0237
    102  CD       -26.4690   -8.0290  -45.9600 C.3   184  PRO184      0.0939
    103  N        -32.7400  -11.6440  -49.3120 N.3   187  GLU187     -0.1245
    104  CA       -33.1830  -12.8970  -49.9160 C.3   187  GLU187      0.1567
    105  C        -34.2280  -13.5780  -49.0340 C.2   187  GLU187      0.2260
    106  O        -34.5960  -14.7300  -49.2620 O.2   187  GLU187     -0.2867
    107  CB       -31.9950  -13.8320  -50.1460 C.3   187  GLU187      0.0388
    108  CG       -31.0090  -13.3390  -51.1930 C.3   187  GLU187      0.1160
    109  CD       -29.8100  -14.2540  -51.3410 C.2   187  GLU187      0.3649
    110  OE1      -28.7560  -13.9570  -50.7400 O.co2 187  GLU187     -0.2457
    111  OE2      -29.9210  -15.2700  -52.0590 O.co2 187  GLU187     -0.2457
    112  N        -27.4320  -14.5180  -53.3090 N.3   201  TYR201     -0.1241
    113  CA       -26.0660  -14.2710  -52.8790 C.3   201  TYR201      0.1605
    114  C        -25.0960  -15.2250  -53.5670 C.2   201  TYR201      0.2264
    115  O        -25.3410  -16.4300  -53.6700 O.2   201  TYR201     -0.2867
    116  CB       -25.9330  -14.3740  -51.3560 C.3   201  TYR201      0.0534
    117  CG       -24.5530  -13.9700  -50.9090 C.ar  201  TYR201     -0.0201
    118  CD1      -24.0570  -12.7050  -51.2160 C.ar  201  TYR201     -0.0009
    119  CD2      -23.7290  -14.8540  -50.2150 C.ar  201  TYR201     -0.0009
    120  CE1      -22.7840  -12.3170  -50.8330 C.ar  201  TYR201      0.0417
    121  CE2      -22.4390  -14.4670  -49.8180 C.ar  201  TYR201      0.0417
    122  CZ       -21.9670  -13.2020  -50.1450 C.ar  201  TYR201      0.1957
    123  OH       -20.6910  -12.7900  -49.7700 O.3   201  TYR201     -0.2866
    124  N        -20.8850  -15.0690  -53.4360 N.3   203  LYS203     -0.1245
    125  CA       -19.6580  -14.3720  -53.0810 C.3   203  LYS203      0.1561
    126  C        -18.6670  -14.3010  -54.2390 C.2   203  LYS203      0.2260
    127  O        -17.8170  -13.4030  -54.2610 O.2   203  LYS203     -0.2867
    128  CB       -19.0320  -15.0810  -51.8840 C.3   203  LYS203      0.0271
    129  CG       -17.9180  -14.3160  -51.2090 C.3   203  LYS203      0.0035
    130  CD       -17.9290  -14.6180  -49.7000 C.3   203  LYS203      0.0206
    131  CE       -16.5250  -14.8490  -49.1370 C.3   203  LYS203      0.1093
    132  NZ       -16.5940  -15.5730  -47.8190 N.3   203  LYS203     -0.1314
    133  N        -22.8710   -4.3640  -52.4380 N.3   232  TYR232     -0.1241
    134  CA       -22.1620   -4.9930  -51.3340 C.3   232  TYR232      0.1605
    135  C        -20.9580   -5.7610  -51.8570 C.2   232  TYR232      0.2264
    136  O        -21.0840   -6.5330  -52.8100 O.2   232  TYR232     -0.2867
    137  CB       -23.0890   -5.9300  -50.5510 C.3   232  TYR232      0.0534
    138  CG       -22.3260   -6.8230  -49.5710 C.ar  232  TYR232     -0.0201
    139  CD1      -22.0320   -6.3790  -48.2750 C.ar  232  TYR232     -0.0009
    140  CD2      -21.8790   -8.0930  -49.9540 C.ar  232  TYR232     -0.0009
    141  CE1      -21.3270   -7.1870  -47.3720 C.ar  232  TYR232      0.0417
    142  CE2      -21.1690   -8.9060  -49.0620 C.ar  232  TYR232      0.0417
    143  CZ       -20.8980   -8.4560  -47.7780 C.ar  232  TYR232      0.1957
    144  OH       -20.2020   -9.2800  -46.8990 O.3   232  TYR232     -0.2866
    145  N        -17.3920   -8.0200  -50.2600 N.3   234  GLU234     -0.1245
    146  CA       -16.8710   -8.7260  -49.0940 C.3   234  GLU234      0.1567
    147  C        -15.5040   -8.2230  -48.6360 C.2   234  GLU234      0.2260
    148  O        -15.0400   -8.6300  -47.5580 O.2   234  GLU234     -0.2867
    149  CB       -16.7590  -10.2320  -49.3940 C.3   234  GLU234      0.0388
    150  CG       -18.0660  -10.9740  -49.7050 C.3   234  GLU234      0.1160
    151  CD       -18.5730  -10.7460  -51.1170 C.2   234  GLU234      0.3649
    152  OE1      -19.7660  -11.0340  -51.3800 O.co2 234  GLU234     -0.2457
    153  OE2      -17.7920  -10.2800  -51.9700 O.co2 234  GLU234     -0.2457
    154  N        -13.0670   -7.1940  -45.6580 N.3   237  ASP237     -0.1225
    155  CA       -13.3120   -8.1390  -44.5640 C.3   237  ASP237      0.1805
    156  C        -12.6230   -9.4740  -44.8150 C.2   237  ASP237      0.2598
    157  O        -11.9310   -9.9950  -43.9340 O.2   237  ASP237     -0.2718
    158  CB       -14.8180   -8.3560  -44.3600 C.3   237  ASP237      0.1424
    159  CG       -15.1370   -9.3780  -43.2100 C.2   237  ASP237      0.3668
    160  OD1      -15.2250   -9.0130  -42.0010 O.co2 237  ASP237     -0.2456
    161  OD2      -15.2180  -10.5780  -43.5360 O.co2 237  ASP237     -0.2456
    162  N        -12.7890  -10.0410  -46.0230 N.am  238  THR238     -0.1953
    163  CA       -12.2190  -11.3560  -46.3110 C.3   238  THR238      0.1897
    164  C        -10.7100  -11.3680  -46.1090 C.2   238  THR238      0.2313
    165  O        -10.1810  -12.2050  -45.3740 O.2   238  THR238     -0.2863
    166  CB       -12.5860  -11.8000  -47.7260 C.3   238  THR238      0.1794
    167  OG1      -14.0170  -11.7990  -47.8360 O.3   238  THR238     -0.2208
    168  CG2      -12.0370  -13.2230  -48.0100 C.3   238  THR238      0.0378
    169  N         -9.6450  -10.8540  -42.3950 N.3   241  HIS241     -0.1241
    170  CA        -9.6680  -12.0830  -41.6050 C.3   241  HIS241      0.1621
    171  C         -8.4020  -12.9000  -41.8090 C.2   241  HIS241      0.2264
    172  O         -7.8230  -13.4370  -40.8520 O.2   241  HIS241     -0.2867
    173  CB       -10.8850  -12.9290  -41.9900 C.3   241  HIS241      0.0745
    174  CG       -12.1560  -12.4660  -41.3590 C.ar  241  HIS241      0.0817
    175  ND1      -12.3890  -12.5720  -40.0110 N.ar  241  HIS241     -0.2268
    176  CD2      -13.2650  -11.9070  -41.8920 C.ar  241  HIS241      0.1154
    177  CE1      -13.5870  -12.0860  -39.7330 C.ar  241  HIS241      0.1986
    178  NE2      -14.1430  -11.6880  -40.8600 N.ar  241  HIS241     -0.2212
    179  N        -13.5610   -9.6810  -35.9020 N.3   394  HIS394     -0.1241
    180  CA       -14.3530   -8.6090  -35.3510 C.3   394  HIS394      0.1621
    181  C        -15.4670   -9.2400  -34.5280 C.2   394  HIS394      0.2264
    182  O        -15.6710  -10.4520  -34.5500 O.2   394  HIS394     -0.2867
    183  CB       -14.8820   -7.7090  -36.4750 C.3   394  HIS394      0.0745
    184  CG       -15.5530   -8.4780  -37.5520 C.ar  394  HIS394      0.0817
    185  ND1      -16.9010   -8.7660  -37.5260 N.ar  394  HIS394     -0.2268
    186  CD2      -15.0500   -9.1120  -38.6330 C.ar  394  HIS394      0.1154
    187  CE1      -17.2070   -9.5070  -38.5800 C.ar  394  HIS394      0.1986
    188  NE2      -16.1040   -9.7270  -39.2660 N.ar  394  HIS394     -0.2212
@<TRIPOS>BOND
     1    81    79   ar
     2    81    80   ar
     3    79    77   ar
     4    80    78   ar
     5   127   126    2
     6   126   125    1
     7    77    76   ar
     8   115   114    2
     9   114   113    1
    10    78    76   ar
    11   124   125    1
    12    71    72    1
    13   112   113    1
    14    76    75    1
    15   125   128    1
    16   113   116    1
    17   136   135    2
    18   133   134    1
    19    75    72    1
    20    72    73    1
    21   111   109   ar
    22   153   151   ar
    23   128   129    1
    24   135   134    1
    25   152   151   ar
    26   116   117    1
    27   109   108    1
    28   109   110   ar
    29   134   137    1
    30   118   117   ar
    31   118   120   ar
    32   129   130    1
    33   108   107    1
    34   151   150    1
    35    74    73    2
    36    73    82   am
    37   117   119   ar
    38   120   122   ar
    39   137   138    1
    40   145   146    1
    41   119   121   ar
    42   107   104    1
    43   122   121   ar
    44   122   123    1
    45   140   138   ar
    46   140   142   ar
    47   104   103    1
    48   104   105    1
    49    82    83    1
    50   150   149    1
    51   130   131    1
    52   138   139   ar
    53   149   146    1
    54   106   105    2
    55   131   132    1
    56   146   147    1
    57   142   143   ar
    58    86    83    1
    59    86    87    1
    60   147   148    2
    61    66    67    1
    62    66    65    1
    63    83    84    1
    64    67    68    2
    65    68    70    1
    66    68    69    1
    67    92    94   ar
    68    92    89   ar
    69   139   141   ar
    70    85    84    2
    71   168   166    1
    72   167   166    1
    73    94    95   ar
    74   143   141   ar
    75   143   144    1
    76   166   163    1
    77    84    96   am
    78    87    89   ar
    79    87    88   ar
    80    89    91   ar
    81    65    64    1
    82     1     2    1
    83    95    93   ar
    84    96   102    1
    85    96    97    1
    86    64    61    1
    87   163   164    1
    88   163   162    1
    89    88    90   ar
    90   164   165    2
    91    91    93   ar
    92    91    90   ar
    93   162   156   am
    94   102   101    1
    95     5     2    1
    96     5     6    1
    97   154   155    1
    98    97    98    1
    99    97   100    1
   100     2     3    1
   101     4     3    2
   102    98    99    2
   103    63    62    2
   104    59    58    1
   105    61    62    1
   106    61    60    1
   107   156   155    1
   108   156   157    2
   109   101   100    1
   110     8     6   ar
   111   155   158    1
   112     6     7   ar
   113    58    57    1
   114   158   159    1
   115    47    46    2
   116    35    33   ar
   117    35    34   ar
   118    60    54   am
   119    57    56    1
   120    33    31   ar
   121   161   159   ar
   122    34    32   ar
   123   159   160   ar
   124    46    45    1
   125    54    55    2
   126    54    53    1
   127    24    22    1
   128    31    30   ar
   129    56    53    1
   130   169   170    1
   131    53    52    1
   132    32    30   ar
   133    45    48    1
   134    45    44    1
   135   173   170    1
   136   173   174    1
   137    48    49    1
   138   176   174   ar
   139   176   178   ar
   140   171   170    1
   141   171   172    2
   142    23    22    1
   143    30    29    1
   144    22    19    1
   145    50    49    1
   146    51    49    1
   147   174   175   ar
   148    21    20    2
   149   178   177   ar
   150    20    19    1
   151    20    25   am
   152    19    18    1
   153    26    29    1
   154    26    25    1
   155    26    27    1
   156   175   177   ar
   157    28    27    2
   158   188   186   ar
   159   188   187   ar
   160    18    11   am
   161   186   184   ar
   162    42    41    2
   163   187   185   ar
   164    43    41   am
   165    41    40    1
   166    11    12    2
   167    11    10    1
   168    40    37    1
   169    39    38    2
   170   184   185   ar
   171   184   183    1
   172    37    38    1
   173    37    36    1
   174    10    13    1
   175    10     9    1
   176   183   180    1
   177    13    14    1
   178   179   180    1
   179   180   181    1
   180    15    14    1
   181    15    16    1
   182   182   181    2
   183    16    17    1
