@<TRIPOS>MOLECULE
tmp/5gz9A00.pdb
 182 171 0 0 0
SMALL
GASTEIGER

@<TRIPOS>ATOM
      1  N         36.3090  -11.8620    6.1170 N.3    33  VAL33      -0.1231
      2  CA        37.3640  -12.0410    5.1190 C.3    33  VAL33       0.1692
      3  C         36.8650  -12.8580    3.9270 C.2    33  VAL33       0.2593
      4  O         37.5360  -12.9390    2.8930 O.2    33  VAL33      -0.2718
      5  CB        38.6040  -12.7010    5.7480 C.3    33  VAL33       0.0266
      6  CG1       39.2570  -11.7570    6.7390 C.3    33  VAL33       0.0020
      7  CG2       38.2010  -13.9650    6.4610 C.3    33  VAL33       0.0020
      8  N         35.6880  -13.4670    4.0530 N.am   34  GLY34      -0.1942
      9  CA        35.1870  -14.2880    2.9740 C.3    34  GLY34       0.2014
     10  C         33.7450  -14.6900    3.1850 C.2    34  GLY34       0.2639
     11  O         33.1780  -14.5340    4.2790 O.2    34  GLY34      -0.2714
     12  N         33.1820  -15.2490    2.1150 N.am   35  GLU35      -0.1963
     13  CA        31.8010  -15.6700    1.9380 C.3    35  GLU35       0.1733
     14  C         31.6660  -15.9440    0.4320 C.2    35  GLU35       0.2617
     15  O         32.1650  -15.1670   -0.3810 O.2    35  GLU35      -0.2715
     16  CB        30.8150  -14.6050    2.3930 C.3    35  GLU35       0.0429
     17  CG        29.4870  -15.1720    2.8150 C.3    35  GLU35       0.1163
     18  CD        28.4560  -14.1000    3.0970 C.2    35  GLU35       0.3649
     19  OE1       28.7020  -12.9180    2.7740 O.co2  35  GLU35      -0.2457
     20  OE2       27.3950  -14.4470    3.6590 O.co2  35  GLU35      -0.2457
     21  N         31.0370  -17.0470    0.0470 N.am   36  GLY36      -0.1940
     22  CA        30.4900  -18.0050    0.9760 C.3    36  GLY36       0.2014
     23  C         29.0210  -18.3320    0.7540 C.2    36  GLY36       0.2639
     24  O         28.1480  -17.6550    1.2890 O.2    36  GLY36      -0.2714
     25  N         28.7470  -19.3690   -0.0420 N.am   37  ALA37      -0.1963
     26  CA        27.4050  -19.9430   -0.1070 C.3    37  ALA37       0.1728
     27  C         27.0220  -20.7150    1.1530 C.2    37  ALA37       0.2616
     28  O         25.8300  -20.8820    1.4280 O.2    37  ALA37      -0.2715
     29  CB        27.2850  -20.8820   -1.3010 C.3    37  ALA37       0.0334
     30  N         27.9940  -21.2080    1.9140 N.am   38  VAL38      -0.1963
     31  CA        27.6870  -22.0590    3.0600 C.3    38  VAL38       0.1727
     32  C         28.2140  -21.4310    4.3470 C.2    38  VAL38       0.2616
     33  O         27.5960  -21.5450    5.4090 O.2    38  VAL38      -0.2715
     34  CB        28.2680  -23.4700    2.8530 C.3    38  VAL38       0.0290
     35  CG1       27.8790  -24.3900    4.0090 C.3    38  VAL38       0.0023
     36  CG2       27.8360  -24.0320    1.4820 C.3    38  VAL38       0.0023
     37  N         29.3570  -20.7660    4.2610 N.am   39  LYS39      -0.1977
     38  CA        30.0490  -20.2410    5.4270 C.3    39  LYS39       0.1596
     39  C         30.2640  -18.7460    5.2750 C.2    39  LYS39       0.2287
     40  O         30.5160  -18.2600    4.1710 O.2    39  LYS39      -0.2864
     41  CB        31.3990  -20.9380    5.6140 C.3    39  LYS39       0.0298
     42  CG        31.2910  -22.3790    6.0630 C.3    39  LYS39       0.0038
     43  CD        32.5460  -23.1530    5.7060 C.3    39  LYS39       0.0206
     44  CE        32.4810  -23.5730    4.2670 C.3    39  LYS39       0.1093
     45  NZ        33.5610  -24.4950    3.8200 N.3    39  LYS39      -0.1314
     46  N         33.0550  -16.2000    6.8160 N.3    41  VAL41      -0.1245
     47  CA        34.3860  -16.4660    7.3460 C.3    41  VAL41       0.1561
     48  C         34.9520  -15.1730    7.9130 C.2    41  VAL41       0.2260
     49  O         34.8490  -14.1100    7.2950 O.2    41  VAL41      -0.2867
     50  CB        35.3090  -17.0880    6.2710 C.3    41  VAL41       0.0252
     51  CG1       36.7210  -17.3530    6.8200 C.3    41  VAL41       0.0019
     52  CG2       34.6970  -18.4060    5.7360 C.3    41  VAL41       0.0019
     53  N         40.5950  -18.6090   11.6260 N.3    52  ALA52      -0.1245
     54  CA        39.4300  -18.3120   10.8080 C.3    52  ALA52       0.1562
     55  C         38.2020  -18.8970   11.4690 C.2    52  ALA52       0.2260
     56  O         38.1940  -20.0690   11.8480 O.2    52  ALA52      -0.2867
     57  CB        39.5870  -18.8910    9.4010 C.3    52  ALA52       0.0290
     58  N         34.4270  -19.8130   10.7710 N.3    54  SER54      -0.1217
     59  CA        33.4790  -19.9940    9.6800 C.3    54  SER54       0.1889
     60  C         32.1050  -20.2540   10.2700 C.2    54  SER54       0.2288
     61  O         31.9220  -21.2290   11.0100 O.2    54  SER54      -0.2866
     62  CB        33.9000  -21.1420    8.7660 C.3    54  SER54       0.2089
     63  OG        35.1150  -20.8080    8.1360 O.3    54  SER54      -0.2183
     64  N         43.5420  -27.7990    5.4650 N.3    81  VAL81      -0.1245
     65  CA        43.6900  -26.7440    6.4660 C.3    81  VAL81       0.1561
     66  C         43.5660  -27.3320    7.8800 C.2    81  VAL81       0.2260
     67  O         42.7240  -28.2140    8.1520 O.2    81  VAL81      -0.2867
     68  CB        42.6330  -25.6470    6.2450 C.3    81  VAL81       0.0252
     69  CG1       41.2480  -26.2090    6.5430 C.3    81  VAL81       0.0019
     70  CG2       42.8940  -24.4060    7.1100 C.3    81  VAL81       0.0019
     71  N         39.5650  -22.7130   12.3340 N.3    95  THR95      -0.1203
     72  CA        40.6650  -23.2930   11.5830 C.3    95  THR95       0.1994
     73  C         41.8190  -22.3090   11.5980 C.2    95  THR95       0.2618
     74  O         41.6690  -21.1430   11.9870 O.2    95  THR95      -0.2717
     75  CB        40.2820  -23.6090   10.1260 C.3    95  THR95       0.1784
     76  OG1       39.7540  -22.4250    9.5100 O.3    95  THR95      -0.2211
     77  CG2       39.2690  -24.7590   10.0340 C.3    95  THR95       0.0376
     78  N         42.9800  -22.7830   11.1570 N.am   96  GLU96      -0.1965
     79  CA        44.1450  -21.9190   11.0980 C.3    96  GLU96       0.1733
     80  C         43.9540  -20.8570   10.0200 C.2    96  GLU96       0.2616
     81  O         43.5780  -21.1710    8.8850 O.2    96  GLU96      -0.2715
     82  CB        45.3990  -22.7380   10.8180 C.3    96  GLU96       0.0429
     83  CG        46.6150  -21.8660   10.6770 C.3    96  GLU96       0.1163
     84  CD        47.8590  -22.6680   10.4960 C.2    96  GLU96       0.3649
     85  OE1       47.7300  -23.8620   10.1700 O.co2  96  GLU96      -0.2457
     86  OE2       48.9620  -22.1250   10.7130 O.co2  96  GLU96      -0.2457
     87  N         44.2360  -19.6020   10.3600 N.am   97  TYR97      -0.1960
     88  CA        44.1120  -18.5410    9.3810 C.3    97  TYR97       0.1771
     89  C         45.3520  -18.4740    8.5010 C.2    97  TYR97       0.2619
     90  O         46.4790  -18.5960    8.9830 O.2    97  TYR97      -0.2715
     91  CB        43.9050  -17.2040   10.0750 C.3    97  TYR97       0.0574
     92  CG        43.7670  -15.9910    9.1680 C.ar   97  TYR97      -0.0198
     93  CD1       44.8330  -15.1080    9.0090 C.ar   97  TYR97      -0.0009
     94  CD2       42.5560  -15.6980    8.5320 C.ar   97  TYR97      -0.0009
     95  CE1       44.7130  -13.9880    8.2490 C.ar   97  TYR97       0.0417
     96  CE2       42.4260  -14.5680    7.7590 C.ar   97  TYR97       0.0417
     97  CZ        43.5160  -13.7180    7.6230 C.ar   97  TYR97       0.1957
     98  OH        43.4340  -12.5780    6.8590 O.3    97  TYR97      -0.2866
     99  N         45.1350  -18.2460    7.2110 N.am   98  HIS98      -0.1973
    100  CA        46.2190  -18.0420    6.2460 C.3    98  HIS98       0.1656
    101  C         46.1050  -16.6680    5.6050 C.2    98  HIS98       0.2291
    102  O         45.2560  -16.4620    4.7160 O.2    98  HIS98      -0.2864
    103  CB        46.2010  -19.1500    5.2040 C.3    98  HIS98       0.0771
    104  CG        46.4460  -20.4890    5.8120 C.ar   98  HIS98       0.0820
    105  ND1       47.7070  -20.9120    6.1670 N.ar   98  HIS98      -0.2267
    106  CD2       45.5910  -21.4570    6.2240 C.ar   98  HIS98       0.1154
    107  CE1       47.6210  -22.0990    6.7450 C.ar   98  HIS98       0.1986
    108  NE2       46.3500  -22.4540    6.7870 N.ar   98  HIS98      -0.2212
    109  N         45.5220  -16.0410    1.9810 N.3   101  GLY101     -0.1210
    110  CA        44.1680  -16.2500    1.5350 C.3   101  GLY101      0.1956
    111  C         44.0630  -17.2170    0.3700 C.2   101  GLY101      0.2612
    112  O         44.9140  -18.0880    0.1520 O.2   101  GLY101     -0.2717
    113  N         42.9820  -17.0470   -0.3790 N.am  102  SER102     -0.1952
    114  CA        42.6460  -17.9120   -1.4960 C.3   102  SER102      0.1924
    115  C         43.8070  -18.0250   -2.4940 C.2   102  SER102      0.2314
    116  O         44.5900  -17.0940   -2.6790 O.2   102  SER102     -0.2863
    117  CB        41.3840  -17.3580   -2.1690 C.3   102  SER102      0.2116
    118  OG        41.1810  -17.8890   -3.4580 O.3   102  SER102     -0.2180
    119  N         33.0110  -29.0140   -6.0310 N.3   148  ASP148     -0.1239
    120  CA        32.6930  -27.5960   -6.2080 C.3   148  ASP148      0.1674
    121  C         33.8060  -26.8750   -6.9840 C.2   148  ASP148      0.2266
    122  O         34.5250  -26.0220   -6.4600 O.2   148  ASP148     -0.2867
    123  CB        32.4350  -26.9550   -4.8510 C.3   148  ASP148      0.1410
    124  CG        31.7260  -25.6200   -4.9630 C.2   148  ASP148      0.3668
    125  OD1       31.3630  -25.2390   -6.0970 O.co2 148  ASP148     -0.2456
    126  OD2       31.5150  -24.9610   -3.9210 O.co2 148  ASP148     -0.2456
    127  N         36.3280  -20.2580   -9.0740 N.3   154  LYS154     -0.1245
    128  CA        35.6710  -20.9940   -8.0080 C.3   154  LYS154      0.1561
    129  C         36.5550  -22.1320   -7.5020 C.2   154  LYS154      0.2260
    130  O         36.6280  -22.3750   -6.2880 O.2   154  LYS154     -0.2867
    131  CB        34.3190  -21.5070   -8.5030 C.3   154  LYS154      0.0271
    132  CG        33.4140  -22.0990   -7.4360 C.3   154  LYS154      0.0035
    133  CD        32.7180  -21.0190   -6.6070 C.3   154  LYS154      0.0206
    134  CE        32.1700  -21.5750   -5.2920 C.3   154  LYS154      0.1093
    135  NZ        30.7570  -22.0240   -5.3770 N.3   154  LYS154     -0.1314
    136  N         39.2010  -20.6560   -5.3230 N.3   157  SER157     -0.1202
    137  CA        38.5680  -20.1810   -4.0950 C.3   157  SER157      0.2020
    138  C         38.6580  -21.1890   -2.9410 C.2   157  SER157      0.2618
    139  O         38.6000  -20.7860   -1.7680 O.2   157  SER157     -0.2717
    140  CB        37.1080  -19.8190   -4.4370 C.3   157  SER157      0.2103
    141  OG        36.1460  -20.3860   -3.5720 O.3   157  SER157     -0.2182
    142  N         38.8170  -22.4820   -3.2490 N.am  158  GLN158     -0.1979
    143  CA        38.6480  -23.5710   -2.2900 C.3   158  GLN158      0.1601
    144  C         39.9450  -23.9680   -1.6230 C.2   158  GLN158      0.2287
    145  O         39.9420  -24.8050   -0.7290 O.2   158  GLN158     -0.2864
    146  CB        38.0350  -24.7870   -2.9930 C.3   158  GLN158      0.0394
    147  CG        36.8370  -24.4470   -3.8870 C.3   158  GLN158      0.0908
    148  CD        35.6800  -23.7400   -3.1630 C.2   158  GLN158      0.2608
    149  OE1       34.6270  -24.3120   -2.9490 O.2   158  GLN158     -0.2717
    150  NE2       35.8760  -22.4810   -2.8090 N.am  158  GLN158     -0.0878
    151  N         43.8530  -22.5070   -0.0890 N.3   160  LEU160     -0.1245
    152  CA        44.5040  -21.3820    0.5470 C.3   160  LEU160      0.1561
    153  C         45.9970  -21.4420    0.2550 C.2   160  LEU160      0.2260
    154  O         46.5650  -22.5140    0.0140 O.2   160  LEU160     -0.2867
    155  CB        44.2380  -21.3830    2.0830 C.3   160  LEU160      0.0270
    156  CG        42.7430  -21.3270    2.4380 C.3   160  LEU160      0.0019
    157  CD1       42.4530  -21.4560    3.9580 C.3   160  LEU160      0.0001
    158  CD2       42.0970  -20.0620    1.9240 C.3   160  LEU160      0.0001
    159  N         40.6780  -26.1550    1.6010 N.3   170  ASN170     -0.1225
    160  CA        39.9390  -25.5360    2.6850 C.3   170  ASN170      0.1785
    161  C         38.4640  -25.9160    2.6640 C.2   170  ASN170      0.2597
    162  O         37.9700  -26.4550    3.6630 O.2   170  ASN170     -0.2718
    163  CB        40.1280  -24.0240    2.6220 C.3   170  ASN170      0.1169
    164  CG        39.4570  -23.3270    3.7700 C.2   170  ASN170      0.2627
    165  OD1       39.8500  -23.5150    4.9460 O.2   170  ASN170     -0.2716
    166  ND2       38.4450  -22.5190    3.4610 N.am  170  ASN170     -0.0877
    167  N         37.7620  -25.7080    1.5410 N.am  171  ASP171     -0.1974
    168  CA        36.3150  -25.8970    1.4620 C.3   171  ASP171      0.1709
    169  C         36.0260  -27.3110    0.9840 C.2   171  ASP171      0.2293
    170  O         36.2110  -27.6340   -0.1970 O.2   171  ASP171     -0.2864
    171  CB        35.6490  -24.8670    0.5430 C.3   171  ASP171      0.1436
    172  CG        34.1570  -25.1390    0.3690 C.2   171  ASP171      0.3671
    173  OD1       33.5720  -24.9180   -0.7050 O.co2 171  ASP171     -0.2456
    174  OD2       33.5520  -25.6820    1.2970 O.co2 171  ASP171     -0.2456
    175  N         32.9300  -28.8050    1.6090 N.3   173  ASP173     -0.1239
    176  CA        31.4890  -29.0000    1.7260 C.3   173  ASP173      0.1674
    177  C         31.0250  -30.0810    0.7610 C.2   173  ASP173      0.2266
    178  O         30.3480  -31.0360    1.1580 O.2   173  ASP173     -0.2867
    179  CB        30.7250  -27.7000    1.4450 C.3   173  ASP173      0.1410
    180  CG        31.1770  -26.5040    2.3040 C.2   173  ASP173      0.3668
    181  OD1       31.4940  -26.6660    3.5140 O.co2 173  ASP173     -0.2456
    182  OD2       31.2160  -25.3800    1.7210 O.co2 173  ASP173     -0.2456
@<TRIPOS>BOND
     1   127   128    1
     2   131   128    1
     3   131   132    1
     4   128   129    1
     5   129   130    2
     6   132   133    1
     7   121   122    2
     8   121   120    1
     9   133   134    1
    10   120   119    1
    11   120   123    1
    12   125   124   ar
    13   135   134    1
    14   136   137    1
    15   124   123    1
    16   124   126   ar
    17   140   137    1
    18   140   141    1
    19   137   138    1
    20   147   148    1
    21   147   146    1
    22   118   117    1
    23   142   138   am
    24   142   143    1
    25   148   149    2
    26   148   150   am
    27   146   143    1
    28   138   139    2
    29   116   115    2
    30   115   114    1
    31   143   144    1
    32   117   114    1
    33   144   145    2
    34   114   113    1
    35    29    26    1
    36   173   172   ar
    37    15    14    2
    38   113   111   am
    39   170   169    2
    40    26    25    1
    41    26    27    1
    42   151   152    1
    43    25    23   am
    44   154   153    2
    45    21    14   am
    46    21    22    1
    47   112   111    2
    48   153   152    1
    49   172   171    1
    50   172   174   ar
    51   111   110    1
    52    14    13    1
    53   171   168    1
    54   152   155    1
    55    23    22    1
    56    23    24    2
    57   177   178    2
    58   177   176    1
    59   169   168    1
    60    27    28    2
    61    27    30   am
    62   179   176    1
    63   179   180    1
    64   168   167    1
    65    36    34    1
    66   110   109    1
    67   167   161   am
    68   159   160    1
    69   175   176    1
    70   182   180   ar
    71    30    31    1
    72   158   156    1
    73    13    12    1
    74    13    16    1
    75   155   156    1
    76    12    10   am
    77   180   181   ar
    78    16    17    1
    79   156   157    1
    80   163   160    1
    81   163   164    1
    82   161   160    1
    83   161   162    2
    84    19    18   ar
    85    17    18    1
    86    34    31    1
    87    34    35    1
    88     4     3    2
    89     9    10    1
    90     9     8    1
    91    31    32    1
    92    18    20   ar
    93    10    11    2
    94   166   164   am
    95   164   165    2
    96    45    44    1
    97     3     8   am
    98     3     2    1
    99    40    39    2
   100    37    32   am
   101    37    38    1
   102    44    43    1
   103    32    33    2
   104   102   101    2
   105     2     5    1
   106     2     1    1
   107   103   104    1
   108   103   100    1
   109    39    38    1
   110    38    41    1
   111    64    65    1
   112   101   100    1
   113    41    42    1
   114    43    42    1
   115    52    50    1
   116     5     7    1
   117     5     6    1
   118   104   105   ar
   119   104   106   ar
   120   105   107   ar
   121   106   108   ar
   122    68    65    1
   123    68    69    1
   124    68    70    1
   125   100    99    1
   126    50    51    1
   127    50    47    1
   128    65    66    1
   129   107   108   ar
   130    46    47    1
   131    98    97    1
   132    99    89   am
   133    49    48    2
   134    47    48    1
   135    97    96   ar
   136    97    95   ar
   137    96    94   ar
   138    66    67    2
   139    63    62    1
   140    95    93   ar
   141    89    90    2
   142    89    88    1
   143    94    92   ar
   144    62    59    1
   145    81    80    2
   146    93    92   ar
   147    92    91    1
   148    88    91    1
   149    88    87    1
   150    57    54    1
   151    76    75    1
   152    59    60    1
   153    59    58    1
   154    80    87   am
   155    80    79    1
   156    77    75    1
   157    75    72    1
   158    85    84   ar
   159    60    61    2
   160    84    83    1
   161    84    86   ar
   162    83    82    1
   163    54    55    1
   164    54    53    1
   165    82    79    1
   166    79    78    1
   167    78    73   am
   168    55    56    2
   169    72    73    1
   170    72    71    1
   171    73    74    2
