@<TRIPOS>MOLECULE
tmp/5gz9A01.pdb
 101 92 0 0 0
SMALL
GASTEIGER

@<TRIPOS>ATOM
      1  N         28.7470  -19.3690   -0.0420 N.3    37  ALA37      -0.1231
      2  CA        27.4050  -19.9430   -0.1070 C.3    37  ALA37       0.1694
      3  C         27.0220  -20.7150    1.1530 C.2    37  ALA37       0.2591
      4  O         25.8300  -20.8820    1.4280 O.2    37  ALA37      -0.2718
      5  CB        27.2850  -20.8820   -1.3010 C.3    37  ALA37       0.0304
      6  N         27.9940  -21.2080    1.9140 N.am   38  VAL38      -0.1980
      7  CA        27.6870  -22.0590    3.0600 C.3    38  VAL38       0.1595
      8  C         28.2140  -21.4310    4.3470 C.2    38  VAL38       0.2287
      9  O         27.5960  -21.5450    5.4090 O.2    38  VAL38      -0.2864
     10  CB        28.2680  -23.4700    2.8530 C.3    38  VAL38       0.0276
     11  CG1       27.8790  -24.3900    4.0090 C.3    38  VAL38       0.0022
     12  CG2       27.8360  -24.0320    1.4820 C.3    38  VAL38       0.0022
     13  N         21.3890  -24.5590    4.5020 N.3    61  MET61      -0.1245
     14  CA        22.6600  -25.1050    4.0490 C.3    61  MET61       0.1570
     15  C         23.3330  -25.9550    5.1130 C.2    61  MET61       0.2261
     16  O         24.4880  -26.3520    4.9240 O.2    61  MET61      -0.2867
     17  CB        23.6090  -23.9740    3.6310 C.3    61  MET61       0.0387
     18  CG        23.1120  -23.1540    2.4720 C.3    61  MET61       0.0595
     19  SD        22.8080  -24.2120    1.0330 S.3    61  MET61      -0.1393
     20  CE        24.4490  -24.5660    0.4350 C.3    61  MET61       0.0692
     21  N         25.1760  -29.2800    4.0980 N.3    64  ASP64      -0.1239
     22  CA        26.4620  -29.0770    3.4310 C.3    64  ASP64       0.1674
     23  C         27.5440  -28.6290    4.4170 C.2    64  ASP64       0.2266
     24  O         28.7320  -28.9360    4.2340 O.2    64  ASP64      -0.2867
     25  CB        26.3170  -28.0420    2.3060 C.3    64  ASP64       0.1410
     26  CG        25.1000  -28.2980    1.4070 C.2    64  ASP64       0.3668
     27  OD1       25.2690  -28.9730    0.3680 O.co2  64  ASP64      -0.2456
     28  OD2       23.9810  -27.8130    1.7380 O.co2  64  ASP64      -0.2456
     29  N         34.0610  -31.7090   -5.8740 N.3   147  CYS147     -0.1221
     30  CA        32.9280  -31.3840   -6.7450 C.3   147  CYS147      0.1808
     31  C         32.7780  -29.8810   -7.0160 C.2   147  CYS147      0.2601
     32  O         32.4110  -29.4890   -8.1320 O.2   147  CYS147     -0.2717
     33  CB        31.6170  -31.9280   -6.1580 C.3   147  CYS147      0.0970
     34  SG        30.9770  -33.4070   -6.9480 S.3   147  CYS147     -0.0800
     35  N         33.0110  -29.0140   -6.0310 N.am  148  ASP148     -0.1973
     36  CA        32.6930  -27.5960   -6.2080 C.3   148  ASP148      0.1709
     37  C         33.8060  -26.8750   -6.9840 C.2   148  ASP148      0.2293
     38  O         34.5250  -26.0220   -6.4600 O.2   148  ASP148     -0.2864
     39  CB        32.4350  -26.9550   -4.8510 C.3   148  ASP148      0.1436
     40  CG        31.7260  -25.6200   -4.9630 C.2   148  ASP148      0.3671
     41  OD1       31.3630  -25.2390   -6.0970 O.co2 148  ASP148     -0.2456
     42  OD2       31.5150  -24.9610   -3.9210 O.co2 148  ASP148     -0.2456
     43  N         33.5210  -25.7600  -10.8000 N.3   150  ASN150     -0.1240
     44  CA        32.9290  -25.6300  -12.1130 C.3   150  ASN150      0.1653
     45  C         33.5830  -24.5490  -12.9580 C.2   150  ASN150      0.2266
     46  O         33.3330  -24.5010  -14.1700 O.2   150  ASN150     -0.2867
     47  CB        31.4380  -25.3610  -11.9830 C.3   150  ASN150      0.1155
     48  CG        30.6870  -26.5580  -11.4280 C.2   150  ASN150      0.2627
     49  OD1       29.5190  -26.4550  -11.0930 O.2   150  ASN150     -0.2716
     50  ND2       31.3640  -27.6940  -11.3130 N.am  150  ASN150     -0.0877
     51  N         36.3280  -20.2580   -9.0740 N.3   154  LYS154     -0.1245
     52  CA        35.6710  -20.9940   -8.0080 C.3   154  LYS154      0.1561
     53  C         36.5550  -22.1320   -7.5020 C.2   154  LYS154      0.2260
     54  O         36.6280  -22.3750   -6.2880 O.2   154  LYS154     -0.2867
     55  CB        34.3190  -21.5070   -8.5030 C.3   154  LYS154      0.0271
     56  CG        33.4140  -22.0990   -7.4360 C.3   154  LYS154      0.0035
     57  CD        32.7180  -21.0190   -6.6070 C.3   154  LYS154      0.0206
     58  CE        32.1700  -21.5750   -5.2920 C.3   154  LYS154      0.1093
     59  NZ        30.7570  -22.0240   -5.3770 N.3   154  LYS154     -0.1314
     60  N         32.9300  -28.8050    1.6090 N.3   173  ASP173     -0.1225
     61  CA        31.4890  -29.0000    1.7260 C.3   173  ASP173      0.1805
     62  C         31.0250  -30.0810    0.7610 C.2   173  ASP173      0.2597
     63  O         30.3480  -31.0360    1.1580 O.2   173  ASP173     -0.2718
     64  CB        30.7250  -27.7000    1.4450 C.3   173  ASP173      0.1424
     65  CG        31.1770  -26.5040    2.3040 C.2   173  ASP173      0.3668
     66  OD1       31.4940  -26.6660    3.5140 O.co2 173  ASP173     -0.2456
     67  OD2       31.2160  -25.3800    1.7210 O.co2 173  ASP173     -0.2456
     68  N         31.4320  -29.9600   -0.5180 N.am  174  ALA174     -0.1979
     69  CA        31.0080  -30.8310   -1.6120 C.3   174  ALA174      0.1597
     70  C         32.1170  -31.8440   -1.8840 C.2   174  ALA174      0.2287
     71  O         32.9930  -31.6100   -2.7200 O.2   174  ALA174     -0.2864
     72  CB        30.6970  -29.9990   -2.8560 C.3   174  ALA174      0.0319
     73  N         28.0280  -33.9910   -9.2990 N.3   186  CYS186     -0.1221
     74  CA        28.3840  -32.7360   -8.6380 C.3   186  CYS186      0.1808
     75  C         27.1990  -31.7760   -8.6650 C.2   186  CYS186      0.2601
     76  O         27.1990  -30.7590   -9.3710 O.2   186  CYS186     -0.2717
     77  CB        29.5680  -32.0850   -9.3280 C.3   186  CYS186      0.0970
     78  SG        31.0540  -33.0270   -9.0260 S.3   186  CYS186     -0.0800
     79  N         26.1930  -32.0690   -7.8500 N.am  187  GLY187     -0.1957
     80  CA        25.0010  -31.2370   -7.7540 C.3   187  GLY187      0.1869
     81  C         23.8210  -31.8710   -8.4720 C.2   187  GLY187      0.2309
     82  O         23.8810  -32.9970   -8.9690 O.2   187  GLY187     -0.2863
     83  N         21.8840  -29.6370  -10.5710 N.3   189  ARG189     -0.1245
     84  CA        21.6560  -28.7210  -11.6680 C.3   189  ARG189      0.1563
     85  C         22.5810  -29.0620  -12.8360 C.2   189  ARG189      0.2260
     86  O         23.6970  -29.5690  -12.6580 O.2   189  ARG189     -0.2867
     87  CB        21.8600  -27.2710  -11.2110 C.3   189  ARG189      0.0307
     88  CG        20.7310  -26.7080  -10.3270 C.3   189  ARG189      0.0489
     89  CD        21.2870  -26.0400   -9.0750 C.3   189  ARG189      0.2205
     90  NE        21.8230  -27.0390   -8.1420 N.pl3 189  ARG189     -0.0865
     91  CZ        22.9050  -26.8790   -7.3760 C.cat 189  ARG189      0.5346
     92  NH1       23.6070  -25.7490   -7.4200 N.pl3 189  ARG189      0.1354
     93  NH2       23.2990  -27.8680   -6.5770 N.pl3 189  ARG189      0.1354
     94  N         25.2140  -28.7740  -15.5580 N.3   191  LEU191     -0.1245
     95  CA        26.4910  -28.1110  -15.7470 C.3   191  LEU191      0.1561
     96  C         26.7650  -27.9150  -17.2380 C.2   191  LEU191      0.2260
     97  O         26.3780  -28.7410  -18.0740 O.2   191  LEU191     -0.2867
     98  CB        27.6080  -28.9160  -15.0850 C.3   191  LEU191      0.0270
     99  CG        27.3810  -29.1680  -13.5790 C.3   191  LEU191      0.0019
    100  CD1       28.6230  -29.7590  -12.9310 C.3   191  LEU191      0.0001
    101  CD2       26.9600  -27.9020  -12.8670 C.3   191  LEU191      0.0001
@<TRIPOS>BOND
     1    97    96    2
     2    96    95    1
     3    95    94    1
     4    95    98    1
     5    98    99    1
     6    46    45    2
     7    99   100    1
     8    99   101    1
     9    45    44    1
    10    85    86    2
    11    85    84    1
    12    44    47    1
    13    44    43    1
    14    47    48    1
    15    84    87    1
    16    84    83    1
    17    48    50   am
    18    48    49    2
    19    87    88    1
    20    88    89    1
    21    76    75    2
    22    77    78    1
    23    77    74    1
    24    73    74    1
    25    89    90    1
    26    51    52    1
    27    78    34    1
    28    82    81    2
    29    75    74    1
    30    75    79   am
    31    55    52    1
    32    55    56    1
    33    81    80    1
    34    90    91    2
    35    32    31    2
    36    52    53    1
    37    79    80    1
    38    53    54    2
    39    56    57    1
    40    92    91    1
    41    91    93    1
    42    31    30    1
    43    31    35   am
    44    37    38    2
    45    37    36    1
    46    34    33    1
    47    30    33    1
    48    30    29    1
    49    57    58    1
    50    36    35    1
    51    36    39    1
    52    41    40   ar
    53    59    58    1
    54    40    39    1
    55    40    42   ar
    56    72    69    1
    57    71    70    2
    58    70    69    1
    59    69    68    1
    60     5     2    1
    61    68    62   am
    62     2     1    1
    63     2     3    1
    64    27    26   ar
    65    20    19    1
    66    62    63    2
    67    62    61    1
    68    19    18    1
    69     3     4    2
    70     3     6   am
    71    26    28   ar
    72    26    25    1
    73    64    61    1
    74    64    65    1
    75    12    10    1
    76    60    61    1
    77    67    65   ar
    78     6     7    1
    79    65    66   ar
    80    25    22    1
    81    18    17    1
    82    10     7    1
    83    10    11    1
    84     7     8    1
    85    22    21    1
    86    22    23    1
    87    17    14    1
    88    14    13    1
    89    14    15    1
    90    24    23    2
    91     8     9    2
    92    16    15    2
