@<TRIPOS>MOLECULE
tmp/5gzaA04.pdb
 103 103 0 0 0
SMALL
GASTEIGER

@<TRIPOS>ATOM
      1  N         59.2900   22.0800   -6.9350 N.3    61  TYR61      -0.1241
      2  CA        59.3730   23.4910   -7.2940 C.3    61  TYR61       0.1605
      3  C         60.1930   24.2800   -6.2800 C.2    61  TYR61       0.2264
      4  O         59.7950   25.3760   -5.8720 O.2    61  TYR61      -0.2867
      5  CB        57.9720   24.0930   -7.4120 C.3    61  TYR61       0.0534
      6  CG        57.0580   23.3340   -8.3440 C.ar   61  TYR61      -0.0201
      7  CD1       57.4830   22.9510   -9.6080 C.ar   61  TYR61      -0.0009
      8  CD2       55.7730   22.9890   -7.9540 C.ar   61  TYR61      -0.0009
      9  CE1       56.6490   22.2540  -10.4610 C.ar   61  TYR61       0.0417
     10  CE2       54.9310   22.2910   -8.7970 C.ar   61  TYR61       0.0417
     11  CZ        55.3740   21.9260  -10.0500 C.ar   61  TYR61       0.1957
     12  OH        54.5410   21.2300  -10.8950 O.3    61  TYR61      -0.2866
     13  N         61.5810   27.7050   -7.9390 N.3    64  ASP64      -0.1239
     14  CA        60.5940   28.7720   -8.0720 C.3    64  ASP64       0.1674
     15  C         60.3550   29.4670   -6.7370 C.2    64  ASP64       0.2266
     16  O         60.2460   30.6970   -6.6770 O.2    64  ASP64      -0.2867
     17  CB        59.2830   28.2100   -8.6220 C.3    64  ASP64       0.1410
     18  CG        59.4770   27.4080   -9.8970 C.2    64  ASP64       0.3668
     19  OD1       59.9440   26.2520   -9.8080 O.co2  64  ASP64      -0.2456
     20  OD2       59.1540   27.9270  -10.9860 O.co2  64  ASP64      -0.2456
     21  N         63.4580   31.7400   -5.6790 N.3    67  HIS67      -0.1241
     22  CA        63.5670   32.9740   -6.4480 C.3    67  HIS67       0.1621
     23  C         62.4130   33.9190   -6.1440 C.2    67  HIS67       0.2264
     24  O         62.6020   35.1400   -6.1070 O.2    67  HIS67      -0.2867
     25  CB        63.6310   32.6760   -7.9450 C.3    67  HIS67       0.0745
     26  CG        64.0790   33.8450   -8.7690 C.ar   67  HIS67       0.0817
     27  ND1       65.1490   34.6370   -8.4120 N.ar   67  HIS67      -0.2268
     28  CD2       63.6030   34.3570   -9.9290 C.ar   67  HIS67       0.1154
     29  CE1       65.3130   35.5860   -9.3150 C.ar   67  HIS67       0.1986
     30  NE2       64.3890   35.4380  -10.2470 N.ar   67  HIS67      -0.2212
     31  N         54.8960   36.7510  -14.8610 N.3   149  CYS149     -0.1235
     32  CA        54.6350   35.6650  -15.7990 C.3   149  CYS149      0.1677
     33  C         53.4140   34.8280  -15.4310 C.2   149  CYS149      0.2270
     34  O         52.6750   34.3950  -16.3220 O.2   149  CYS149     -0.2867
     35  CB        55.8640   34.7600  -15.9060 C.3   149  CYS149      0.0956
     36  SG        56.9730   35.1890  -17.2610 S.3   149  CYS149     -0.0801
     37  N         56.9770   34.2320   -7.8190 N.3   175  ASP175     -0.1225
     38  CA        57.8460   33.1010   -8.1310 C.3   175  ASP175      0.1805
     39  C         58.4140   33.2040   -9.5400 C.2   175  ASP175      0.2598
     40  O         59.5640   32.8160   -9.7810 O.2   175  ASP175     -0.2718
     41  CB        57.0840   31.7870   -7.9660 C.3   175  ASP175      0.1424
     42  CG        56.5760   31.5810   -6.5580 C.2   175  ASP175      0.3668
     43  OD1       57.1940   32.1190   -5.6160 O.co2 175  ASP175     -0.2456
     44  OD2       55.5620   30.8750   -6.3960 O.co2 175  ASP175     -0.2456
     45  N         57.6300   33.7170  -10.4810 N.am  176  ALA176     -0.1966
     46  CA        58.0240   33.7960  -11.8860 C.3   176  ALA176      0.1728
     47  C         58.1990   35.2670  -12.2580 C.2   176  ALA176      0.2616
     48  O         57.2710   35.9160  -12.7420 O.2   176  ALA176     -0.2715
     49  CB        56.9950   33.1090  -12.7790 C.3   176  ALA176      0.0334
     50  N         59.4040   35.7870  -12.0300 N.am  177  LEU177     -0.1964
     51  CA        59.7700   37.1520  -12.4090 C.3   177  LEU177      0.1713
     52  C         61.0730   37.1090  -13.1960 C.2   177  LEU177      0.2458
     53  O         62.1570   37.3290  -12.6390 O.2   177  LEU177     -0.2730
     54  CB        59.9030   38.0600  -11.1840 C.3   177  LEU177      0.0310
     55  CG        58.6280   38.5750  -10.5110 C.3   177  LEU177      0.0022
     56  CD1       58.9630   39.6480   -9.4820 C.3   177  LEU177      0.0001
     57  CD2       57.6440   39.1110  -11.5370 C.3   177  LEU177      0.0001
     58  N         61.0080   36.8210  -14.4920 N.am  178  PRO178     -0.2727
     59  CA        62.2000   36.9390  -15.3340 C.3   178  PRO178      0.1402
     60  C         62.5360   38.3980  -15.6000 C.2   178  PRO178      0.2269
     61  O         61.7080   39.2970  -15.4450 O.2   178  PRO178     -0.2865
     62  CB        61.7950   36.2210  -16.6250 C.3   178  PRO178      0.0296
     63  CG        60.3180   36.3980  -16.6870 C.3   178  PRO178      0.0237
     64  CD        59.8340   36.3650  -15.2580 C.3   178  PRO178      0.0939
     65  N         60.4550   34.3180  -21.6560 N.3   188  LYS188     -0.1231
     66  CA        59.3170   33.4400  -21.8620 C.3   188  LYS188      0.1693
     67  C         58.7320   33.0640  -20.5080 C.2   188  LYS188      0.2592
     68  O         59.4500   32.9580  -19.5100 O.2   188  LYS188     -0.2718
     69  CB        59.7040   32.1790  -22.6470 C.3   188  LYS188      0.0285
     70  CG        60.0390   32.4410  -24.1070 C.3   188  LYS188      0.0035
     71  CD        60.5800   31.1970  -24.7900 C.3   188  LYS188      0.0206
     72  CE        62.0780   31.0580  -24.5900 C.3   188  LYS188      0.1093
     73  NZ        62.6390   29.9430  -25.4020 N.3   188  LYS188     -0.1314
     74  N         57.4140   32.8690  -20.4840 N.am  189  CYS189     -0.1956
     75  CA        56.6860   32.5870  -19.2480 C.3   189  CYS189      0.1843
     76  C         56.3650   31.0960  -19.1900 C.2   189  CYS189      0.2626
     77  O         55.2380   30.6600  -19.4270 O.2   189  CYS189     -0.2714
     78  CB        55.4260   33.4430  -19.1650 C.3   189  CYS189      0.0997
     79  SG        55.7420   35.1940  -18.8750 S.3   189  CYS189     -0.0797
     80  N         57.3790   30.3100  -18.8610 N.am  190  GLY190     -0.1940
     81  CA        57.2450   28.8730  -18.7430 C.3   190  GLY190      0.2014
     82  C         57.8750   28.1420  -19.9160 C.2   190  GLY190      0.2639
     83  O         58.2640   28.7260  -20.9280 O.2   190  GLY190     -0.2714
     84  N         57.9670   26.8230  -19.7550 N.am  191  HIS191     -0.1959
     85  CA        58.5600   25.9490  -20.7570 C.3   191  HIS191      0.1787
     86  C         57.5160   25.2240  -21.5950 C.2   191  HIS191      0.2620
     87  O         57.8590   24.2770  -22.3090 O.2   191  HIS191     -0.2715
     88  CB        59.4830   24.9310  -20.0860 C.3   191  HIS191      0.0785
     89  CG        60.4260   25.5330  -19.0920 C.ar  191  HIS191      0.0821
     90  ND1       61.4370   26.3970  -19.4530 N.ar  191  HIS191     -0.2267
     91  CD2       60.5120   25.3940  -17.7480 C.ar  191  HIS191      0.1154
     92  CE1       62.1040   26.7660  -18.3740 C.ar  191  HIS191      0.1986
     93  NE2       61.5630   26.1710  -17.3260 N.ar  191  HIS191     -0.2212
     94  N         56.2550   25.6420  -21.5260 N.am  192  HIS192     -0.1973
     95  CA        55.1740   24.9740  -22.2320 C.3   192  HIS192      0.1656
     96  C         54.3550   25.9980  -23.0060 C.2   192  HIS192      0.2291
     97  O         54.4050   27.2000  -22.7340 O.2   192  HIS192     -0.2864
     98  CB        54.2810   24.1890  -21.2620 C.3   192  HIS192      0.0771
     99  CG        55.0440   23.2750  -20.3550 C.ar  192  HIS192      0.0820
    100  ND1       55.2800   21.9520  -20.6590 N.ar  192  HIS192     -0.2267
    101  CD2       55.6360   23.4980  -19.1580 C.ar  192  HIS192      0.1154
    102  CE1       55.9800   21.3970  -19.6850 C.ar  192  HIS192      0.1986
    103  NE2       56.2080   22.3130  -18.7620 N.ar  192  HIS192     -0.2212
@<TRIPOS>BOND
     1    73    72    1
     2    71    72    1
     3    71    70    1
     4    70    69    1
     5    96    97    2
     6    96    95    1
     7    69    66    1
     8    87    86    2
     9    95    94    1
    10    95    98    1
    11    66    65    1
    12    66    67    1
    13    86    94   am
    14    86    85    1
    15    98    99    1
    16    83    82    2
    17    85    88    1
    18    85    84    1
    19   100    99   ar
    20   100   102   ar
    21    67    74   am
    22    67    68    2
    23    74    75    1
    24    99   101   ar
    25    88    89    1
    26    82    84   am
    27    82    81    1
    28   102   103   ar
    29    90    89   ar
    30    90    92   ar
    31    77    76    2
    32    75    76    1
    33    75    78    1
    34    76    80   am
    35    78    79    1
    36   101   103   ar
    37    89    91   ar
    38    79    36    1
    39    80    81    1
    40    92    93   ar
    41    91    93   ar
    42    36    35    1
    43    63    62    1
    44    63    64    1
    45    62    59    1
    46    34    33    2
    47    35    32    1
    48    32    33    1
    49    32    31    1
    50    60    61    2
    51    60    59    1
    52    59    58    1
    53    64    58    1
    54    58    52   am
    55    52    53    2
    56    52    51    1
    57    49    46    1
    58    48    47    2
    59    51    50    1
    60    51    54    1
    61    47    50   am
    62    47    46    1
    63    46    45    1
    64    57    55    1
    65    54    55    1
    66    20    18   ar
    67    12    11    1
    68    55    56    1
    69    45    39   am
    70     9    11   ar
    71     9     7   ar
    72    30    28   ar
    73    30    29   ar
    74    11    10   ar
    75    28    26   ar
    76    18    19   ar
    77    18    17    1
    78    40    39    2
    79     7     6   ar
    80    39    38    1
    81    29    27   ar
    82    10     8   ar
    83    26    27   ar
    84    26    25    1
    85    17    14    1
    86     6     8   ar
    87     6     5    1
    88    38    41    1
    89    38    37    1
    90    14    13    1
    91    14    15    1
    92    41    42    1
    93    25    22    1
    94     5     2    1
    95     2     1    1
    96     2     3    1
    97    15    16    2
    98    42    44   ar
    99    42    43   ar
   100    22    23    1
   101    22    21    1
   102     3     4    2
   103    23    24    2
