@<TRIPOS>MOLECULE
tmp/5gzaA00.pdb
 183 172 0 0 0
SMALL
GASTEIGER

@<TRIPOS>ATOM
      1  N         45.4210   28.7510    4.7670 N.3    33  ILE33      -0.1231
      2  CA        44.6080   29.7830    4.1370 C.3    33  ILE33       0.1692
      3  C         44.8520   29.8920    2.6420 C.2    33  ILE33       0.2593
      4  O         44.2840   30.7800    1.9990 O.2    33  ILE33      -0.2718
      5  CB        44.8230   31.1550    4.8080 C.3    33  ILE33       0.0266
      6  CG1       46.2940   31.5670    4.7110 C.3    33  ILE33       0.0019
      7  CG2       44.3580   31.1200    6.2530 C.3    33  ILE33       0.0020
      8  CD1       46.5870   32.9290    5.2930 C.3    33  ILE33       0.0001
      9  N         45.6780   29.0230    2.0670 N.am   34  GLY34      -0.1942
     10  CA        45.9590   29.0990    0.6490 C.3    34  GLY34       0.2014
     11  C         46.8280   27.9750    0.1260 C.2    34  GLY34       0.2639
     12  O         47.9120   27.7130    0.6570 O.2    34  GLY34      -0.2714
     13  N         46.3570   27.3020   -0.9170 N.am   35  GLN35      -0.1963
     14  CA        47.1280   26.2860   -1.6090 C.3    35  GLN35       0.1733
     15  C         47.7580   26.8830   -2.8640 C.2    35  GLN35       0.2617
     16  O         47.6070   28.0690   -3.1690 O.2    35  GLN35      -0.2715
     17  CB        46.2490   25.0810   -1.9520 C.3    35  GLN35       0.0408
     18  CG        46.3430   23.9320   -0.9610 C.3    35  GLN35       0.0908
     19  CD        47.6680   23.1970   -1.0400 C.2    35  GLN35       0.2608
     20  OE1       48.1520   22.6620   -0.0440 O.2    35  GLN35      -0.2717
     21  NE2       48.2590   23.1660   -2.2300 N.am   35  GLN35      -0.0878
     22  N         48.4720   26.0410   -3.6020 N.am   36  GLY36      -0.1940
     23  CA        49.1260   26.4680   -4.8210 C.3    36  GLY36       0.2014
     24  C         50.1630   25.4690   -5.2850 C.2    36  GLY36       0.2639
     25  O         50.5870   24.6030   -4.5140 O.2    36  GLY36      -0.2714
     26  N         50.5760   25.5760   -6.5490 N.am   37  ALA37      -0.1963
     27  CA        51.5840   24.6610   -7.0700 C.3    37  ALA37       0.1728
     28  C         52.9100   24.8260   -6.3380 C.2    37  ALA37       0.2616
     29  O         53.6100   23.8410   -6.0770 O.2    37  ALA37      -0.2715
     30  CB        51.7670   24.8820   -8.5720 C.3    37  ALA37       0.0334
     31  N         53.2570   26.0590   -5.9710 N.am   38  VAL38      -0.1963
     32  CA        54.5780   26.3590   -5.4290 C.3    38  VAL38       0.1727
     33  C         54.5490   26.4260   -3.9060 C.2    38  VAL38       0.2616
     34  O         55.5340   26.0780   -3.2450 O.2    38  VAL38      -0.2715
     35  CB        55.1230   27.6750   -6.0190 C.3    38  VAL38       0.0290
     36  CG1       56.5730   27.8980   -5.6010 C.3    38  VAL38       0.0023
     37  CG2       54.9920   27.6760   -7.5330 C.3    38  VAL38       0.0023
     38  N         53.4280   26.8640   -3.3330 N.am   39  LYS39      -0.1977
     39  CA        53.4070   27.2280   -1.9230 C.3    39  LYS39       0.1596
     40  C         52.1640   26.7050   -1.2180 C.2    39  LYS39       0.2287
     41  O         51.1200   26.4740   -1.8350 O.2    39  LYS39      -0.2864
     42  CB        53.4820   28.7510   -1.7450 C.3    39  LYS39       0.0298
     43  CG        54.8850   29.3070   -1.8510 C.3    39  LYS39       0.0038
     44  CD        54.8930   30.8150   -2.0150 C.3    39  LYS39       0.0206
     45  CE        54.5140   31.2050   -3.4300 C.3    39  LYS39       0.1093
     46  NZ        54.9700   32.5770   -3.7790 N.3    39  LYS39      -0.1314
     47  N         50.2380   28.2420    2.2570 N.3    41  VAL41      -0.1245
     48  CA        50.2330   29.3980    3.1460 C.3    41  VAL41       0.1561
     49  C         49.3670   29.0800    4.3560 C.2    41  VAL41       0.2260
     50  O         48.2090   28.6700    4.2090 O.2    41  VAL41      -0.2867
     51  CB        49.7360   30.6640    2.4270 C.3    41  VAL41       0.0252
     52  CG1       49.7300   31.8490    3.3810 C.3    41  VAL41       0.0019
     53  CG2       50.6050   30.9580    1.2140 C.3    41  VAL41       0.0019
     54  N         51.3340   35.4470    8.2550 N.3    52  ALA52      -0.1245
     55  CA        51.2560   34.5340    7.1230 C.3    52  ALA52       0.1562
     56  C         52.5620   33.7630    7.0050 C.2    52  ALA52       0.2260
     57  O         53.6450   34.3520    7.0810 O.2    52  ALA52      -0.2867
     58  CB        50.9660   35.2910    5.8260 C.3    52  ALA52       0.0290
     59  N         54.5100   30.9250    4.6250 N.3    54  SER54      -0.1217
     60  CA        54.5340   30.2850    3.3140 C.3    54  SER54       0.1889
     61  C         55.6050   29.2020    3.2980 C.2    54  SER54       0.2288
     62  O         56.7840   29.4860    3.5320 O.2    54  SER54      -0.2866
     63  CB        54.7960   31.3130    2.2130 C.3    54  SER54       0.2089
     64  OG        53.9350   32.4310    2.3420 O.3    54  SER54      -0.2183
     65  N         53.5870   42.9180   -0.7300 N.3    81  VAL81      -0.1245
     66  CA        53.2890   42.4650    0.6260 C.3    81  VAL81       0.1561
     67  C         54.5000   42.6910    1.5250 C.2    81  VAL81       0.2260
     68  O         55.6480   42.5900    1.0790 O.2    81  VAL81      -0.2867
     69  CB        52.8600   40.9830    0.6240 C.3    81  VAL81       0.0252
     70  CG1       53.9960   40.0900    0.1370 C.3    81  VAL81       0.0019
     71  CG2       52.3770   40.5480    2.0040 C.3    81  VAL81       0.0019
     72  N         55.3110   36.5970    6.0170 N.3    95  THR95      -0.1203
     73  CA        54.8560   37.9040    5.5540 C.3    95  THR95       0.1994
     74  C         53.6550   38.3470    6.3850 C.2    95  THR95       0.2618
     75  O         53.1520   37.6090    7.2360 O.2    95  THR95      -0.2717
     76  CB        54.4950   37.8810    4.0620 C.3    95  THR95       0.1784
     77  OG1       53.6590   36.7510    3.7840 O.3    95  THR95      -0.2211
     78  CG2       55.7480   37.8090    3.2030 C.3    95  THR95       0.0376
     79  N         53.1920   39.5680    6.1260 N.am   96  GLU96      -0.1965
     80  CA        52.0450   40.1080    6.8440 C.3    96  GLU96       0.1733
     81  C         50.7610   39.4020    6.4220 C.2    96  GLU96       0.2616
     82  O         50.5340   39.1430    5.2370 O.2    96  GLU96      -0.2715
     83  CB        51.9230   41.6130    6.5960 C.3    96  GLU96       0.0429
     84  CG        50.5480   42.1960    6.9040 C.3    96  GLU96       0.1163
     85  CD        50.5480   43.7110    6.9480 C.2    96  GLU96       0.3649
     86  OE1       50.0610   44.2770    7.9500 O.co2  96  GLU96      -0.2457
     87  OE2       51.0390   44.3370    5.9850 O.co2  96  GLU96      -0.2457
     88  N         49.9200   39.0900    7.4060 N.am   97  TYR97      -0.1960
     89  CA        48.6420   38.4440    7.1430 C.3    97  TYR97       0.1771
     90  C         47.5990   39.4810    6.7470 C.2    97  TYR97       0.2619
     91  O         47.4440   40.5080    7.4150 O.2    97  TYR97      -0.2715
     92  CB        48.1740   37.6680    8.3730 C.3    97  TYR97       0.0574
     93  CG        46.7830   37.0880    8.2480 C.ar   97  TYR97      -0.0198
     94  CD1       46.5000   36.1090    7.3050 C.ar   97  TYR97      -0.0009
     95  CD2       45.7550   37.5100    9.0820 C.ar   97  TYR97      -0.0009
     96  CE1       45.2310   35.5740    7.1890 C.ar   97  TYR97       0.0417
     97  CE2       44.4830   36.9790    8.9740 C.ar   97  TYR97       0.0417
     98  CZ        44.2280   36.0110    8.0270 C.ar   97  TYR97       0.1957
     99  OH        42.9640   35.4780    7.9140 O.3    97  TYR97      -0.2866
    100  N         46.8860   39.2090    5.6580 N.am   98  HIS98      -0.1973
    101  CA        45.8090   40.0750    5.1810 C.3    98  HIS98       0.1656
    102  C         44.5150   39.2730    5.1790 C.2    98  HIS98       0.2291
    103  O         44.3030   38.4320    4.2870 O.2    98  HIS98      -0.2864
    104  CB        46.1240   40.6190    3.7890 C.3    98  HIS98       0.0771
    105  CG        47.3860   41.4260    3.7290 C.ar   98  HIS98       0.0820
    106  ND1       47.4330   42.7620    4.0670 N.ar   98  HIS98      -0.2267
    107  CD2       48.6470   41.0850    3.3730 C.ar   98  HIS98       0.1154
    108  CE1       48.6670   43.2090    3.9200 C.ar   98  HIS98       0.1986
    109  NE2       49.4240   42.2110    3.5000 N.ar   98  HIS98      -0.2212
    110  N         42.1750   37.9940    2.2370 N.3   101  GLY101     -0.1210
    111  CA        42.6280   37.0260    1.2590 C.3   101  GLY101      0.1956
    112  C         43.0820   37.6790   -0.0350 C.2   101  GLY101      0.2612
    113  O         43.6160   38.7920   -0.0560 O.2   101  GLY101     -0.2717
    114  N         42.8600   36.9670   -1.1340 N.am  102  SER102     -0.1952
    115  CA        43.2410   37.4610   -2.4450 C.3   102  SER102      0.1924
    116  C         42.1890   38.4260   -2.9860 C.2   102  SER102      0.2314
    117  O         41.0210   38.4050   -2.5880 O.2   102  SER102     -0.2863
    118  CB        43.4350   36.2980   -3.4190 C.3   102  SER102      0.2116
    119  OG        43.5600   36.7590   -4.7520 O.3   102  SER102     -0.2180
    120  N         53.1870   34.5770  -14.1410 N.3   150  ASP150     -0.1239
    121  CA        52.0800   33.7250  -13.7050 C.3   150  ASP150      0.1674
    122  C         50.7780   34.5150  -13.8260 C.2   150  ASP150      0.2266
    123  O         50.2220   35.0260  -12.8510 O.2   150  ASP150     -0.2867
    124  CB        52.3100   33.2280  -12.2830 C.3   150  ASP150      0.1410
    125  CG        51.5420   31.9540  -11.9760 C.2   150  ASP150      0.3668
    126  OD1       50.6430   31.5900  -12.7630 O.co2 150  ASP150     -0.2456
    127  OD2       51.8390   31.3180  -10.9430 O.co2 150  ASP150     -0.2456
    128  N         43.8250   33.2220  -12.2720 N.3   156  LYS156     -0.1245
    129  CA        45.1750   33.0000  -11.7630 C.3   156  LYS156      0.1561
    130  C         45.9280   34.3140  -11.6030 C.2   156  LYS156      0.2260
    131  O         46.7500   34.4520  -10.6910 O.2   156  LYS156     -0.2867
    132  CB        45.9370   32.0450  -12.6850 C.3   156  LYS156      0.0271
    133  CG        47.4160   31.8760  -12.3500 C.3   156  LYS156      0.0035
    134  CD        47.6390   31.3980  -10.9180 C.3   156  LYS156      0.0206
    135  CE        47.0840   30.0020  -10.6920 C.3   156  LYS156      0.1093
    136  NZ        47.4510   29.4720   -9.3490 N.3   156  LYS156     -0.1314
    137  N         44.8880   35.7730   -8.2840 N.3   159  SER159     -0.1202
    138  CA        45.3610   34.9910   -7.1470 C.3   159  SER159      0.2020
    139  C         46.7380   35.4220   -6.6590 C.2   159  SER159      0.2618
    140  O         47.1200   35.0570   -5.5430 O.2   159  SER159     -0.2717
    141  CB        45.3880   33.5030   -7.5080 C.3   159  SER159      0.2103
    142  OG        46.2930   33.2510   -8.5700 O.3   159  SER159     -0.2182
    143  N         47.4830   36.1820   -7.4570 N.am  160  GLN160     -0.1979
    144  CA        48.8150   36.6400   -7.0840 C.3   160  GLN160      0.1601
    145  C         48.8000   37.9710   -6.3450 C.2   160  GLN160      0.2287
    146  O         49.8710   38.5110   -6.0500 O.2   160  GLN160     -0.2864
    147  CB        49.6960   36.7580   -8.3310 C.3   160  GLN160      0.0394
    148  CG        49.4380   35.6850   -9.3810 C.3   160  GLN160      0.0908
    149  CD        49.9720   34.3230   -8.9840 C.2   160  GLN160      0.2608
    150  OE1       51.0320   33.9050   -9.4470 O.2   160  GLN160     -0.2717
    151  NE2       49.2350   33.6170   -8.1320 N.am  160  GLN160     -0.0878
    152  N         46.9280   40.4480   -3.1190 N.3   162  LEU162     -0.1245
    153  CA        46.2040   40.4370   -1.8590 C.3   162  LEU162      0.1561
    154  C         45.4140   41.7270   -1.6890 C.2   162  LEU162      0.2260
    155  O         45.6350   42.7180   -2.3900 O.2   162  LEU162     -0.2867
    156  CB        47.1620   40.2530   -0.6770 C.3   162  LEU162      0.0270
    157  CG        47.8750   38.9040   -0.6020 C.3   162  LEU162      0.0019
    158  CD1       48.7990   38.8650    0.6000 C.3   162  LEU162      0.0001
    159  CD2       46.8620   37.7710   -0.5430 C.3   162  LEU162      0.0001
    160  N         52.1310   39.5320   -4.3630 N.3   172  ASN172     -0.1225
    161  CA        52.5400   38.5030   -3.4150 C.3   172  ASN172      0.1785
    162  C         53.2870   37.3570   -4.0870 C.2   172  ASN172      0.2597
    163  O         54.3970   37.0060   -3.6730 O.2   172  ASN172     -0.2718
    164  CB        51.3160   37.9670   -2.6700 C.3   172  ASN172      0.1169
    165  CG        51.6440   36.7880   -1.7780 C.2   172  ASN172      0.2627
    166  OD1       52.2270   36.9480   -0.7060 O.2   172  ASN172     -0.2716
    167  ND2       51.2650   35.5930   -2.2150 N.am  172  ASN172     -0.0877
    168  N         52.6890   36.7650   -5.1190 N.am  173  ASP173     -0.1974
    169  CA        53.2340   35.5610   -5.7460 C.3   173  ASP173      0.1709
    170  C         54.2100   35.9730   -6.8410 C.2   173  ASP173      0.2293
    171  O         53.8520   36.0980   -8.0120 O.2   173  ASP173     -0.2864
    172  CB        52.1110   34.6870   -6.2870 C.3   173  ASP173      0.1436
    173  CG        52.5820   33.2960   -6.6420 C.2   173  ASP173      0.3671
    174  OD1       53.7490   32.9770   -6.3370 O.co2 173  ASP173     -0.2456
    175  OD2       51.7900   32.5190   -7.2140 O.co2 173  ASP173     -0.2456
    176  N         56.9770   34.2320   -7.8190 N.3   175  ASP175     -0.1239
    177  CA        57.8460   33.1010   -8.1310 C.3   175  ASP175      0.1674
    178  C         58.4140   33.2040   -9.5400 C.2   175  ASP175      0.2266
    179  O         59.5640   32.8160   -9.7810 O.2   175  ASP175     -0.2867
    180  CB        57.0840   31.7870   -7.9660 C.3   175  ASP175      0.1410
    181  CG        56.5760   31.5810   -6.5580 C.2   175  ASP175      0.3668
    182  OD1       57.1940   32.1190   -5.6160 O.co2 175  ASP175     -0.2456
    183  OD2       55.5620   30.8750   -6.3960 O.co2 175  ASP175     -0.2456
@<TRIPOS>BOND
     1   120   121    1
     2   122   121    1
     3   122   123    2
     4   121   124    1
     5   126   125   ar
     6   132   133    1
     7   132   129    1
     8   133   134    1
     9   124   125    1
    10   128   129    1
    11   125   127   ar
    12   129   130    1
    13   130   131    2
    14   134   135    1
    15   135   136    1
    16   179   178    2
    17   178   177    1
    18   150   149    2
    19   148   149    1
    20   148   147    1
    21   149   151   am
    22    30    27    1
    23   142   141    1
    24   147   144    1
    25   137   138    1
    26   177   180    1
    27   177   176    1
    28   171   170    2
    29   180   181    1
    30    37    35    1
    31   141   138    1
    32   143   144    1
    33   143   139   am
    34   175   173   ar
    35   138   139    1
    36   144   145    1
    37    27    26    1
    38    27    28    1
    39   170   169    1
    40   139   140    2
    41   173   174   ar
    42   173   172    1
    43   181   183   ar
    44   181   182   ar
    45    26    24   am
    46   145   146    2
    47    28    29    2
    48    28    31   am
    49   172   169    1
    50    35    36    1
    51    35    32    1
    52    31    32    1
    53   169   168    1
    54    32    33    1
    55    24    23    1
    56    24    25    2
    57   168   162   am
    58    23    22    1
    59   119   118    1
    60   160   161    1
    61   162   163    2
    62   162   161    1
    63    33    38   am
    64    33    34    2
    65    46    45    1
    66    22    15   am
    67    45    44    1
    68   118   115    1
    69   161   164    1
    70    38    39    1
    71    16    15    2
    72   152   153    1
    73   116   117    2
    74   116   115    1
    75    15    14    1
    76   164   165    1
    77   115   114    1
    78   155   154    2
    79    21    19   am
    80   167   165   am
    81    44    43    1
    82    17    14    1
    83    17    18    1
    84    39    42    1
    85    39    40    1
    86   153   154    1
    87   153   156    1
    88    43    42    1
    89    41    40    2
    90   165   166    2
    91    14    13    1
    92   114   112   am
    93    19    18    1
    94    19    20    2
    95    13    11   am
    96    65    66    1
    97   156   157    1
    98   157   159    1
    99   157   158    1
   100   113   112    2
   101   112   111    1
   102    11    10    1
   103    11    12    2
   104    70    69    1
   105    69    66    1
   106    69    71    1
   107    66    67    1
   108    10     9    1
   109    68    67    2
   110    53    51    1
   111   111   110    1
   112     4     3    2
   113     9     3   am
   114    63    64    1
   115    63    60    1
   116    47    48    1
   117    51    48    1
   118    51    52    1
   119     3     2    1
   120    48    49    1
   121    78    76    1
   122    61    60    1
   123    61    62    2
   124    60    59    1
   125   107   109   ar
   126   107   105   ar
   127   109   108   ar
   128   105   104    1
   129   105   106   ar
   130    77    76    1
   131   104   101    1
   132   108   106   ar
   133    76    73    1
   134     2     1    1
   135     2     5    1
   136    50    49    2
   137   103   102    2
   138     6     5    1
   139     6     8    1
   140     5     7    1
   141   102   101    1
   142   101   100    1
   143    82    81    2
   144    73    72    1
   145    73    74    1
   146   100    90   am
   147    58    55    1
   148    87    85   ar
   149    79    74   am
   150    79    80    1
   151    74    75    2
   152    81    80    1
   153    81    88   am
   154    83    80    1
   155    83    84    1
   156    90    89    1
   157    90    91    2
   158    84    85    1
   159    85    86   ar
   160    56    57    2
   161    56    55    1
   162    55    54    1
   163    89    88    1
   164    89    92    1
   165    96    94   ar
   166    96    98   ar
   167    94    93   ar
   168    99    98    1
   169    98    97   ar
   170    93    92    1
   171    93    95   ar
   172    97    95   ar
