@<TRIPOS>MOLECULE
tmp/5gzkA01.pdb
 94 94 0 0 0
SMALL
GASTEIGER

@<TRIPOS>ATOM
      1  N         29.5930    4.2060   22.1890 N.3   256  ASP256     -0.1239
      2  CA        30.1740    5.1560   21.3470 C.3   256  ASP256      0.1674
      3  C         31.3800    4.5270   20.6380 C.2   256  ASP256      0.2266
      4  O         32.3390    4.1560   21.2390 O.2   256  ASP256     -0.2867
      5  CB        30.6600    6.4660   22.1210 C.3   256  ASP256      0.1410
      6  CG        31.1510    7.5760   21.1830 C.2   256  ASP256      0.3668
      7  OD1       31.3500    7.3020   20.0040 O.co2 256  ASP256     -0.2456
      8  OD2       31.2750    8.8120   21.5330 O.co2 256  ASP256     -0.2456
      9  N         33.5520    6.1640   18.7100 N.3   258  HIS258     -0.1241
     10  CA        34.6720    7.1130   18.4840 C.3   258  HIS258      0.1621
     11  C         35.8200    6.6680   19.4060 C.2   258  HIS258      0.2264
     12  O         35.6250    6.5980   20.6190 O.2   258  HIS258     -0.2867
     13  CB        34.2960    8.5160   18.9740 C.3   258  HIS258      0.0745
     14  CG        33.4650    9.3160   18.0560 C.ar  258  HIS258      0.0817
     15  ND1       33.9970   10.1080   17.0810 N.ar  258  HIS258     -0.2268
     16  CD2       32.1180    9.5170   18.0350 C.ar  258  HIS258      0.1154
     17  CE1       32.9960   10.6990   16.4390 C.ar  258  HIS258      0.1986
     18  NE2       31.8620   10.3800   17.0290 N.ar  258  HIS258     -0.2212
     19  N         22.8690   11.7490   18.0800 N.3   388  ASN388     -0.1225
     20  CA        24.2380   11.5430   18.4810 C.3   388  ASN388      0.1785
     21  C         25.1630   12.4290   17.7220 C.2   388  ASN388      0.2597
     22  O         26.1110   12.9160   18.3030 O.2   388  ASN388     -0.2718
     23  CB        24.6810   10.0770   18.4440 C.3   388  ASN388      0.1169
     24  CG        24.2510    9.2860   19.5760 C.2   388  ASN388      0.2627
     25  OD1       24.0410    9.7630   20.7240 O.2   388  ASN388     -0.2716
     26  ND2       24.0630    8.0060   19.3180 N.am  388  ASN388     -0.0877
     27  N         24.9810   12.6150   16.4270 N.am  389  TYR389     -0.1962
     28  CA        25.7550   13.4730   15.6440 C.3   389  TYR389      0.1771
     29  C         25.6510   14.8870   16.1910 C.2   389  TYR389      0.2619
     30  O         26.6500   15.5730   16.3290 O.2   389  TYR389     -0.2715
     31  CB        25.3130   13.4640   14.2130 C.3   389  TYR389      0.0574
     32  CG        25.7680   14.6610   13.3720 C.ar  389  TYR389     -0.0198
     33  CD1       27.1040   14.8120   12.9980 C.ar  389  TYR389     -0.0009
     34  CD2       24.9050   15.6710   13.0410 C.ar  389  TYR389     -0.0009
     35  CE1       27.5350   15.9100   12.2250 C.ar  389  TYR389      0.0417
     36  CE2       25.3100   16.7870   12.2590 C.ar  389  TYR389      0.0417
     37  CZ        26.6370   16.9260   11.8690 C.ar  389  TYR389      0.1957
     38  OH        26.9890   18.0240   11.0820 O.3   389  TYR389     -0.2866
     39  N         24.4270   15.3000   16.4990 N.am  390  ARG390     -0.1963
     40  CA        24.1810   16.6980   17.0080 C.3   390  ARG390      0.1729
     41  C         24.8790   17.0250   18.3410 C.2   390  ARG390      0.2617
     42  O         25.5900   18.0070   18.4110 O.2   390  ARG390     -0.2715
     43  CB        22.6570   16.9440   17.1480 C.3   390  ARG390      0.0348
     44  CG        22.3040   18.4170   17.4560 C.3   390  ARG390      0.0492
     45  CD        20.9850   18.5440   18.1940 C.3   390  ARG390      0.2205
     46  NE        19.9480   18.2690   17.2490 N.pl3 390  ARG390     -0.0865
     47  CZ        19.4760   19.1310   16.3550 C.cat 390  ARG390      0.5346
     48  NH1       19.9730   20.3580   16.2620 N.pl3 390  ARG390      0.1354
     49  NH2       18.4920   18.7700   15.5170 N.pl3 390  ARG390      0.1354
     50  N         24.6850   16.1890   19.3230 N.am  391  SER391     -0.1936
     51  CA        24.9690   16.4360   20.7420 C.3   391  SER391      0.2055
     52  C         25.5840   15.3100   21.5530 C.2   391  SER391      0.2643
     53  O         25.8630   15.4870   22.7030 O.2   391  SER391     -0.2714
     54  CB        23.6460   16.8710   21.4230 C.3   391  SER391      0.2130
     55  OG        22.9330   15.7310   21.9420 O.3   391  SER391     -0.2179
     56  N         25.7360   14.0880   21.0200 N.am  392  GLY392     -0.1954
     57  CA        26.1660   12.9620   21.8070 C.3   392  GLY392      0.1869
     58  C         25.3500   12.3490   22.8510 C.2   392  GLY392      0.2309
     59  O         25.8640   11.5810   23.6500 O.2   392  GLY392     -0.2863
     60  N         25.1940    8.4400   23.5640 N.3   395  TRP395     -0.1227
     61  CA        26.5820    8.0000   23.8790 C.3   395  TRP395      0.1737
     62  C         26.9930    8.4670   25.2920 C.2   395  TRP395      0.2595
     63  O         27.4440    7.6820   26.1100 O.2   395  TRP395     -0.2718
     64  CB        27.5340    8.5560   22.8800 C.3   395  TRP395      0.0564
     65  CG        27.4200    7.9720   21.4590 C.ar  395  TRP395      0.0003
     66  CD1       27.0750    6.6920   21.1600 C.ar  395  TRP395      0.0946
     67  CD2       27.7220    8.6270   20.2380 C.ar  395  TRP395      0.0152
     68  NE1       27.0950    6.5360   19.7650 N.ar  395  TRP395     -0.2442
     69  CE2       27.5420    7.6690   19.1850 C.ar  395  TRP395      0.0810
     70  CE3       28.1560    9.9180   19.8650 C.ar  395  TRP395      0.0012
     71  CZ2       27.7080    7.9970   17.8810 C.ar  395  TRP395      0.0191
     72  CZ3       28.3430   10.2210   18.5830 C.ar  395  TRP395      0.0001
     73  CH2       28.1530    9.2680   17.5560 C.ar  395  TRP395      0.0015
     74  N         26.7540    9.7510   25.5380 N.am  396  LYS396     -0.1980
     75  CA        27.0280   10.2900   26.8920 C.3   396  LYS396      0.1596
     76  C         26.3630    9.5080   27.9570 C.2   396  LYS396      0.2287
     77  O         26.9860    9.1120   28.9110 O.2   396  LYS396     -0.2864
     78  CB        26.7090   11.8060   26.9810 C.3   396  LYS396      0.0298
     79  CG        27.6560   12.5940   26.1350 C.3   396  LYS396      0.0038
     80  CD        27.5490   14.0970   26.3570 C.3   396  LYS396      0.0206
     81  CE        26.1860   14.6770   25.9390 C.3   396  LYS396      0.1093
     82  NZ        25.6780   15.9690   26.5450 N.3   396  LYS396     -0.1314
     83  N         36.3950    6.8130   27.3950 N.3   417  TYR417     -0.1241
     84  CA        35.5080    6.9080   28.4880 C.3   417  TYR417      0.1605
     85  C         36.0650    6.0720   29.6590 C.2   417  TYR417      0.2264
     86  O         35.4640    6.0770   30.7300 O.2   417  TYR417     -0.2867
     87  CB        34.0380    6.4650   28.0140 C.3   417  TYR417      0.0534
     88  CG        33.2930    7.3500   26.9320 C.ar  417  TYR417     -0.0201
     89  CD1       33.5870    7.2650   25.5410 C.ar  417  TYR417     -0.0009
     90  CD2       32.2310    8.2430   27.3110 C.ar  417  TYR417     -0.0009
     91  CE1       32.9030    8.0440   24.5790 C.ar  417  TYR417      0.0417
     92  CE2       31.5450    9.0130   26.3690 C.ar  417  TYR417      0.0417
     93  CZ        31.8510    8.9140   24.9950 C.ar  417  TYR417      0.1957
     94  OH        31.1210    9.7050   24.0950 O.3   417  TYR417     -0.2866
@<TRIPOS>BOND
     1    38    37    1
     2    37    35   ar
     3    37    36   ar
     4    35    33   ar
     5    36    34   ar
     6    33    32   ar
     7    34    32   ar
     8    32    31    1
     9    31    28    1
    10    49    47    1
    11    28    29    1
    12    28    27    1
    13    29    30    2
    14    29    39   am
    15    48    47    1
    16    47    46    2
    17    27    21   am
    18    17    18   ar
    19    17    15   ar
    20    39    40    1
    21    40    43    1
    22    40    41    1
    23    18    16   ar
    24    15    14   ar
    25    43    44    1
    26    46    45    1
    27    44    45    1
    28    73    71   ar
    29    73    72   ar
    30    21    22    2
    31    21    20    1
    32    71    69   ar
    33    16    14   ar
    34    14    13    1
    35    19    20    1
    36    41    42    2
    37    41    50   am
    38    23    20    1
    39    23    24    1
    40    10     9    1
    41    10    13    1
    42    10    11    1
    43    72    70   ar
    44    69    68   ar
    45    69    67   ar
    46    26    24   am
    47    50    51    1
    48    11    12    2
    49    24    25    2
    50    68    66   ar
    51    70    67   ar
    52     7     6   ar
    53    67    65   ar
    54     3     4    2
    55     3     2    1
    56    51    54    1
    57    51    52    1
    58    56    52   am
    59    56    57    1
    60    66    65   ar
    61     6     8   ar
    62     6     5    1
    63     2     5    1
    64     2     1    1
    65    54    55    1
    66    65    64    1
    67    52    53    2
    68    57    58    1
    69    58    59    2
    70    64    61    1
    71    60    61    1
    72    61    62    1
    73    94    93    1
    74    91    93   ar
    75    91    89   ar
    76    93    92   ar
    77    62    74   am
    78    62    63    2
    79    74    75    1
    80    89    88   ar
    81    81    80    1
    82    81    82    1
    83    79    80    1
    84    79    78    1
    85    92    90   ar
    86    75    78    1
    87    75    76    1
    88    88    90   ar
    89    88    87    1
    90    83    84    1
    91    76    77    2
    92    87    84    1
    93    84    85    1
    94    85    86    2
