@<TRIPOS>MOLECULE
tmp/5gzkB01.pdb
 94 94 0 0 0
SMALL
GASTEIGER

@<TRIPOS>ATOM
      1  N         33.4360   24.7680   22.1390 N.3   256  ASP256     -0.1239
      2  CA        32.8530   23.8560   21.2820 C.3   256  ASP256      0.1674
      3  C         31.6440   24.4660   20.5690 C.2   256  ASP256      0.2266
      4  O         30.6860   24.8460   21.2350 O.2   256  ASP256     -0.2867
      5  CB        32.3060   22.5670   22.0370 C.3   256  ASP256      0.1410
      6  CG        31.8720   21.4370   21.0800 C.2   256  ASP256      0.3668
      7  OD1       31.7320   21.5260   19.8290 O.co2 256  ASP256     -0.2456
      8  OD2       31.7390   20.2350   21.5820 O.co2 256  ASP256     -0.2456
      9  N         29.4760   22.8030   18.7410 N.3   258  HIS258     -0.1241
     10  CA        28.3740   21.8680   18.5330 C.3   258  HIS258      0.1621
     11  C         27.2270   22.3250   19.4530 C.2   258  HIS258      0.2264
     12  O         27.3800   22.3710   20.6470 O.2   258  HIS258     -0.2867
     13  CB        28.8130   20.4490   19.0000 C.3   258  HIS258      0.0745
     14  CG        29.5230   19.6260   17.9730 C.ar  258  HIS258      0.0817
     15  ND1       30.9190   19.4480   17.9770 N.ar  258  HIS258     -0.2268
     16  CD2       29.0450   18.7980   17.0300 C.ar  258  HIS258      0.1154
     17  CE1       31.2570   18.6340   16.9970 C.ar  258  HIS258      0.1986
     18  NE2       30.1490   18.2380   16.3970 N.ar  258  HIS258     -0.2212
     19  N         40.2220   17.2380   18.1710 N.3   388  ASN388     -0.1225
     20  CA        38.8150   17.4070   18.5280 C.3   388  ASN388      0.1785
     21  C         37.8560   16.5530   17.7180 C.2   388  ASN388      0.2597
     22  O         36.8980   16.0380   18.2940 O.2   388  ASN388     -0.2718
     23  CB        38.4080   18.8710   18.4410 C.3   388  ASN388      0.1169
     24  CG        38.8390   19.7040   19.5740 C.2   388  ASN388      0.2627
     25  OD1       38.9870   19.2640   20.7750 O.2   388  ASN388     -0.2716
     26  ND2       38.9560   21.0240   19.3090 N.am  388  ASN388     -0.0877
     27  N         38.0860   16.3740   16.4340 N.am  389  TYR389     -0.1962
     28  CA        37.2990   15.5110   15.6300 C.3   389  TYR389      0.1771
     29  C         37.3760   14.0670   16.2030 C.2   389  TYR389      0.2619
     30  O         36.3580   13.4140   16.4100 O.2   389  TYR389     -0.2715
     31  CB        37.7490   15.4970   14.1790 C.3   389  TYR389      0.0574
     32  CG        37.2920   14.2970   13.3360 C.ar  389  TYR389     -0.0198
     33  CD1       35.9590   14.1730   12.9240 C.ar  389  TYR389     -0.0009
     34  CD2       38.1720   13.2870   12.9870 C.ar  389  TYR389     -0.0009
     35  CE1       35.5340   13.0700   12.1800 C.ar  389  TYR389      0.0417
     36  CE2       37.7800   12.1820   12.1990 C.ar  389  TYR389      0.0417
     37  CZ        36.4660   12.0450   11.7800 C.ar  389  TYR389      0.1957
     38  OH        36.1010   10.9370   11.0070 O.3   389  TYR389     -0.2866
     39  N         38.6040   13.6320   16.4920 N.am  390  ARG390     -0.1963
     40  CA        38.8710   12.2740   17.0090 C.3   390  ARG390      0.1729
     41  C         38.1720   11.9720   18.3290 C.2   390  ARG390      0.2617
     42  O         37.4620   10.9710   18.4050 O.2   390  ARG390     -0.2715
     43  CB        40.4090   12.0330   17.1530 C.3   390  ARG390      0.0348
     44  CG        40.7540   10.5570   17.5060 C.3   390  ARG390      0.0492
     45  CD        42.0720   10.4140   18.3090 C.3   390  ARG390      0.2205
     46  NE        43.1240   10.7030   17.3690 N.pl3 390  ARG390     -0.0865
     47  CZ        43.5350    9.8780   16.4140 C.cat 390  ARG390      0.5346
     48  NH1       43.0510    8.6550   16.3340 N.pl3 390  ARG390      0.1354
     49  NH2       44.5010   10.2330   15.5710 N.pl3 390  ARG390      0.1354
     50  N         38.3560   12.8140   19.3050 N.am  391  SER391     -0.1936
     51  CA        38.0940   12.5180   20.7150 C.3   391  SER391      0.2055
     52  C         37.4730   13.6590   21.5400 C.2   391  SER391      0.2643
     53  O         37.1640   13.4910   22.7170 O.2   391  SER391     -0.2714
     54  CB        39.4280   12.1380   21.3600 C.3   391  SER391      0.2130
     55  OG        40.1290   13.2660   21.9300 O.3   391  SER391     -0.2179
     56  N         37.3170   14.8460   20.9800 N.am  392  GLY392     -0.1954
     57  CA        36.8930   16.0100   21.7300 C.3   392  GLY392      0.1869
     58  C         37.7090   16.5810   22.7900 C.2   392  GLY392      0.2309
     59  O         37.2320   17.3700   23.6000 O.2   392  GLY392     -0.2863
     60  N         37.8690   20.5270   23.5510 N.3   395  TRP395     -0.1227
     61  CA        36.5050   20.9910   23.8390 C.3   395  TRP395      0.1737
     62  C         36.1040   20.5370   25.2500 C.2   395  TRP395      0.2595
     63  O         35.6570   21.3210   26.0490 O.2   395  TRP395     -0.2718
     64  CB        35.5290   20.4500   22.8040 C.3   395  TRP395      0.0564
     65  CG        35.6210   20.9990   21.4320 C.ar  395  TRP395      0.0003
     66  CD1       35.9910   22.2500   21.1130 C.ar  395  TRP395      0.0946
     67  CD2       35.3290   20.3300   20.2090 C.ar  395  TRP395      0.0152
     68  NE1       35.9230   22.4170   19.7590 N.ar  395  TRP395     -0.2442
     69  CE2       35.5030   21.2810   19.1620 C.ar  395  TRP395      0.0810
     70  CE3       34.8740   19.0640   19.8580 C.ar  395  TRP395      0.0012
     71  CZ2       35.3440   20.9580   17.8440 C.ar  395  TRP395      0.0191
     72  CZ3       34.6930   18.7490   18.5590 C.ar  395  TRP395      0.0001
     73  CH2       34.8980   19.7010   17.5230 C.ar  395  TRP395      0.0015
     74  N         36.3200   19.2660   25.4900 N.am  396  LYS396     -0.1980
     75  CA        36.0980   18.7390   26.9020 C.3   396  LYS396      0.1596
     76  C         36.7420   19.4940   27.9800 C.2   396  LYS396      0.2287
     77  O         36.1000   19.9180   28.9280 O.2   396  LYS396     -0.2864
     78  CB        36.4370   17.2570   26.9750 C.3   396  LYS396      0.0298
     79  CG        35.4910   16.4700   26.1050 C.3   396  LYS396      0.0038
     80  CD        35.6350   14.9740   26.2540 C.3   396  LYS396      0.0206
     81  CE        37.0880   14.5020   26.3290 C.3   396  LYS396      0.1093
     82  NZ        37.3730   13.0650   25.9620 N.3   396  LYS396     -0.1314
     83  N         26.6340   22.1220   27.3050 N.3   417  TYR417     -0.1241
     84  CA        27.4890   22.0060   28.4360 C.3   417  TYR417      0.1605
     85  C         26.9480   22.8520   29.5950 C.2   417  TYR417      0.2264
     86  O         27.5570   22.8290   30.6870 O.2   417  TYR417     -0.2867
     87  CB        28.9750   22.4080   28.0430 C.3   417  TYR417      0.0534
     88  CG        29.7430   21.5350   26.9920 C.ar  417  TYR417     -0.0201
     89  CD1       29.5210   21.6710   25.6020 C.ar  417  TYR417     -0.0009
     90  CD2       30.7910   20.6550   27.3770 C.ar  417  TYR417     -0.0009
     91  CE1       30.2270   20.9310   24.6520 C.ar  417  TYR417      0.0417
     92  CE2       31.4970   19.8890   26.4370 C.ar  417  TYR417      0.0417
     93  CZ        31.2540   20.0450   25.0630 C.ar  417  TYR417      0.1957
     94  OH        31.9310   19.2810   24.0720 O.3   417  TYR417     -0.2866
@<TRIPOS>BOND
     1    38    37    1
     2    37    35   ar
     3    37    36   ar
     4    35    33   ar
     5    36    34   ar
     6    33    32   ar
     7    34    32   ar
     8    32    31    1
     9    31    28    1
    10    49    47    1
    11    28    29    1
    12    28    27    1
    13    29    30    2
    14    29    39   am
    15    48    47    1
    16    18    17   ar
    17    18    16   ar
    18    47    46    2
    19    27    21   am
    20    39    40    1
    21    17    15   ar
    22    40    43    1
    23    40    41    1
    24    16    14   ar
    25    43    44    1
    26    46    45    1
    27    44    45    1
    28    73    71   ar
    29    73    72   ar
    30    21    22    2
    31    21    20    1
    32    71    69   ar
    33    14    15   ar
    34    14    13    1
    35    19    20    1
    36    41    42    2
    37    41    50   am
    38    23    20    1
    39    23    24    1
    40    10     9    1
    41    10    13    1
    42    10    11    1
    43    72    70   ar
    44    69    68   ar
    45    69    67   ar
    46    50    51    1
    47    26    24   am
    48    11    12    2
    49    24    25    2
    50    68    66   ar
    51     7     6   ar
    52    70    67   ar
    53    67    65   ar
    54     3     4    2
    55     3     2    1
    56    51    54    1
    57    51    52    1
    58    56    52   am
    59    56    57    1
    60     6     8   ar
    61     6     5    1
    62    66    65   ar
    63     2     5    1
    64     2     1    1
    65    54    55    1
    66    65    64    1
    67    52    53    2
    68    57    58    1
    69    58    59    2
    70    64    61    1
    71    60    61    1
    72    61    62    1
    73    94    93    1
    74    91    93   ar
    75    91    89   ar
    76    93    92   ar
    77    62    74   am
    78    62    63    2
    79    74    75    1
    80    89    88   ar
    81    82    81    1
    82    79    80    1
    83    79    78    1
    84    80    81    1
    85    92    90   ar
    86    75    78    1
    87    75    76    1
    88    88    90   ar
    89    88    87    1
    90    83    84    1
    91    76    77    2
    92    87    84    1
    93    84    85    1
    94    85    86    2
