@<TRIPOS>MOLECULE
tmp/5gzkB02.pdb
 109 106 0 0 0
SMALL
GASTEIGER

@<TRIPOS>ATOM
      1  N         51.7790   40.4180   20.9990 N.3    97  HIS97      -0.1241
      2  CA        51.7610   39.4460   19.9130 C.3    97  HIS97       0.1621
      3  C         53.0080   38.6020   19.7930 C.2    97  HIS97       0.2264
      4  O         52.9780   37.3710   19.5850 O.2    97  HIS97      -0.2867
      5  CB        51.4830   40.2140   18.6520 C.3    97  HIS97       0.0745
      6  CG        51.1430   39.3590   17.4480 C.ar   97  HIS97       0.0817
      7  ND1       50.3880   39.8480   16.4210 N.ar   97  HIS97      -0.2268
      8  CD2       51.4720   38.0930   17.0760 C.ar   97  HIS97       0.1154
      9  CE1       50.2500   38.9360   15.4680 C.ar   97  HIS97       0.1986
     10  NE2       50.8990   37.8600   15.8330 N.ar   97  HIS97      -0.2212
     11  N         54.9310   44.3280   16.8900 N.3   109  PHE109     -0.1241
     12  CA        54.2980   43.8410   15.6960 C.3   109  PHE109      0.1605
     13  C         53.8940   45.0340   14.8100 C.2   109  PHE109      0.2264
     14  O         52.6920   45.3920   14.6850 O.2   109  PHE109     -0.2867
     15  CB        53.1190   42.9770   16.0500 C.3   109  PHE109      0.0534
     16  CG        52.5290   42.2740   14.8400 C.ar  109  PHE109     -0.0203
     17  CD1       53.1510   41.1790   14.3150 C.ar  109  PHE109     -0.0042
     18  CD2       51.2940   42.6100   14.3920 C.ar  109  PHE109     -0.0042
     19  CE1       52.6050   40.5290   13.2260 C.ar  109  PHE109     -0.0003
     20  CE2       50.7260   41.9050   13.3290 C.ar  109  PHE109     -0.0003
     21  CZ        51.3880   40.9060   12.7750 C.ar  109  PHE109     -0.0000
     22  N         52.3380   48.8280   17.7580 N.3   113  ASP113     -0.1239
     23  CA        51.8130   47.5260   18.3760 C.3   113  ASP113      0.1674
     24  C         52.9750   46.9250   19.2030 C.2   113  ASP113      0.2266
     25  O         53.5390   45.8220   18.9290 O.2   113  ASP113     -0.2867
     26  CB        51.2820   46.6110   17.2800 C.3   113  ASP113      0.1410
     27  CG        50.5410   45.4090   17.7820 C.2   113  ASP113      0.3668
     28  OD1       50.4650   45.2350   19.0450 O.co2 113  ASP113     -0.2456
     29  OD2       50.0220   44.7130   16.8740 O.co2 113  ASP113     -0.2456
     30  N         48.2870   42.6490   23.3010 N.3   117  ASP117     -0.1239
     31  CA        47.4280   42.1790   22.2130 C.3   117  ASP117      0.1674
     32  C         46.3980   41.2830   22.8650 C.2   117  ASP117      0.2266
     33  O         46.7170   40.1490   23.2250 O.2   117  ASP117     -0.2867
     34  CB        48.2350   41.4010   21.1940 C.3   117  ASP117      0.1410
     35  CG        47.3830   40.9940   19.9710 C.2   117  ASP117      0.3668
     36  OD1       46.2040   40.6390   20.1950 O.co2 117  ASP117     -0.2456
     37  OD2       47.8650   41.0450   18.7420 O.co2 117  ASP117     -0.2456
     38  N         45.3980   37.8980   20.7800 N.3   120  GLU120     -0.1245
     39  CA        46.4740   36.9080   20.9410 C.3   120  GLU120      0.1567
     40  C         46.4920   36.2780   22.3450 C.2   120  GLU120      0.2260
     41  O         46.5550   35.0460   22.4470 O.2   120  GLU120     -0.2867
     42  CB        47.8240   37.5030   20.6150 C.3   120  GLU120      0.0388
     43  CG        47.9110   37.9270   19.1440 C.3   120  GLU120      0.1160
     44  CD        48.0830   36.7940   18.1700 C.2   120  GLU120      0.3649
     45  OE1       48.7960   35.8040   18.3960 O.co2 120  GLU120     -0.2457
     46  OE2       47.6800   37.0310   17.0250 O.co2 120  GLU120     -0.2457
     47  N         41.6030   45.8610   20.6610 N.3   170  TRP170     -0.1227
     48  CA        42.5280   44.8250   20.3970 C.3   170  TRP170      0.1737
     49  C         43.8740   44.9960   21.1210 C.2   170  TRP170      0.2595
     50  O         44.5390   43.9750   21.4890 O.2   170  TRP170     -0.2718
     51  CB        42.7160   44.7860   18.8290 C.3   170  TRP170      0.0564
     52  CG        43.3250   43.5170   18.2970 C.ar  170  TRP170      0.0003
     53  CD1       44.4420   42.8870   18.7100 C.ar  170  TRP170      0.0946
     54  CD2       42.8600   42.7780   17.1500 C.ar  170  TRP170      0.0152
     55  NE1       44.7140   41.7750   17.9020 N.ar  170  TRP170     -0.2442
     56  CE2       43.7580   41.7200   16.9360 C.ar  170  TRP170      0.0810
     57  CE3       41.7730   42.9220   16.3070 C.ar  170  TRP170      0.0012
     58  CZ2       43.5330   40.7410   15.9680 C.ar  170  TRP170      0.0191
     59  CZ3       41.5260   41.9070   15.3040 C.ar  170  TRP170      0.0001
     60  CH2       42.4320   40.9160   15.1030 C.ar  170  TRP170      0.0015
     61  N         44.3260   46.2490   21.1910 N.am  171  HIS171     -0.1975
     62  CA        45.6780   46.6310   21.6300 C.3   171  HIS171      0.1656
     63  C         45.6590   47.6290   22.7380 C.2   171  HIS171      0.2291
     64  O         44.7180   48.4260   22.8840 O.2   171  HIS171     -0.2864
     65  CB        46.4860   47.3000   20.4790 C.3   171  HIS171      0.0771
     66  CG        46.4020   46.5360   19.1540 C.ar  171  HIS171      0.0820
     67  ND1       45.3830   46.7860   18.2420 N.ar  171  HIS171     -0.2267
     68  CD2       47.1250   45.5060   18.6530 C.ar  171  HIS171      0.1154
     69  CE1       45.5400   45.9910   17.2000 C.ar  171  HIS171      0.1986
     70  NE2       46.5980   45.2380   17.3870 N.ar  171  HIS171     -0.2212
     71  N         46.5190   52.5240   18.4080 N.3   180  MET180     -0.1245
     72  CA        46.2390   51.5020   17.4100 C.3   180  MET180      0.1570
     73  C         44.7350   51.4990   17.0170 C.2   180  MET180      0.2261
     74  O         44.3790   51.1780   15.8530 O.2   180  MET180     -0.2867
     75  CB        46.6790   50.1300   17.8700 C.3   180  MET180      0.0387
     76  CG        48.1770   49.8800   17.9140 C.3   180  MET180      0.0595
     77  SD        48.8300   49.6380   16.2460 S.3   180  MET180     -0.1393
     78  CE        48.0270   48.1380   15.7310 C.3   180  MET180      0.0692
     79  N         41.6540   49.8700   17.3880 N.3   182  PHE182     -0.1241
     80  CA        40.9620   48.8010   16.7320 C.3   182  PHE182      0.1605
     81  C         39.9670   48.2690   17.7390 C.2   182  PHE182      0.2264
     82  O         40.1950   47.2380   18.4210 O.2   182  PHE182     -0.2867
     83  CB        41.9830   47.7770   16.3340 C.3   182  PHE182      0.0534
     84  CG        41.5400   46.7770   15.3120 C.ar  182  PHE182     -0.0203
     85  CD1       40.2110   46.3220   15.1930 C.ar  182  PHE182     -0.0042
     86  CD2       42.4820   46.2710   14.4450 C.ar  182  PHE182     -0.0042
     87  CE1       39.8260   45.3620   14.2160 C.ar  182  PHE182     -0.0003
     88  CE2       42.1090   45.2960   13.4940 C.ar  182  PHE182     -0.0003
     89  CZ        40.7960   44.8690   13.3450 C.ar  182  PHE182     -0.0000
     90  N         37.3830   36.5630   13.5080 N.3   189  GLU189     -0.1245
     91  CA        37.9070   35.4120   14.2200 C.3   189  GLU189      0.1567
     92  C         37.8740   35.5760   15.7490 C.2   189  GLU189      0.2260
     93  O         38.2820   34.6210   16.4330 O.2   189  GLU189     -0.2867
     94  CB        39.3270   35.0470   13.8220 C.3   189  GLU189      0.0388
     95  CG        40.4080   36.0090   14.2290 C.3   189  GLU189      0.1160
     96  CD        40.6030   37.2300   13.2520 C.2   189  GLU189      0.3649
     97  OE1       39.6390   37.7440   12.6400 O.co2 189  GLU189     -0.2457
     98  OE2       41.7790   37.6740   13.1740 O.co2 189  GLU189     -0.2457
     99  N         39.8820   30.5110    8.5280 N.3   246  PHE246     -0.1241
    100  CA        40.3280   30.3920    9.9140 C.3   246  PHE246      0.1605
    101  C         39.4150   31.0350   10.9160 C.2   246  PHE246      0.2264
    102  O         39.4820   30.7230   12.1220 O.2   246  PHE246     -0.2867
    103  CB        41.7640   30.9190   10.1190 C.3   246  PHE246      0.0534
    104  CG        41.8710   32.3820   10.2390 C.ar  246  PHE246     -0.0203
    105  CD1       41.9690   33.1990    9.0730 C.ar  246  PHE246     -0.0042
    106  CD2       41.9310   33.0100   11.5070 C.ar  246  PHE246     -0.0042
    107  CE1       42.1660   34.6120    9.2010 C.ar  246  PHE246     -0.0003
    108  CE2       42.1350   34.3400   11.6480 C.ar  246  PHE246     -0.0003
    109  CZ        42.2800   35.1790   10.4820 C.ar  246  PHE246     -0.0000
@<TRIPOS>BOND
     1    99   100    1
     2   105   107   ar
     3   105   104   ar
     4   107   109   ar
     5   100   103    1
     6   100   101    1
     7   103   104    1
     8   104   106   ar
     9   109   108   ar
    10   101   102    2
    11   106   108   ar
    12    97    96   ar
    13    21    19   ar
    14    21    20   ar
    15    98    96   ar
    16    19    17   ar
    17    96    95    1
    18    20    18   ar
    19    89    88   ar
    20    89    87   ar
    21    88    86   ar
    22    90    91    1
    23    94    91    1
    24    94    95    1
    25    87    85   ar
    26    91    92    1
    27    17    16   ar
    28    18    16   ar
    29    86    84   ar
    30    14    13    2
    31    13    12    1
    32    16    15    1
    33    60    59   ar
    34    60    58   ar
    35    85    84   ar
    36    59    57   ar
    37    84    83    1
    38     9    10   ar
    39     9     7   ar
    40    12    15    1
    41    12    11    1
    42    78    77    1
    43    92    93    2
    44    10     8   ar
    45    74    73    2
    46    58    56   ar
    47    77    76    1
    48    57    54   ar
    49    83    80    1
    50     7     6   ar
    51    80    79    1
    52    80    81    1
    53    29    27   ar
    54    56    54   ar
    55    56    55   ar
    56    73    72    1
    57    46    44   ar
    58     8     6   ar
    59    54    52   ar
    60    69    70   ar
    61    69    67   ar
    62    26    27    1
    63    26    23    1
    64    70    68   ar
    65    72    75    1
    66    72    71    1
    67     6     5    1
    68    81    82    2
    69    22    23    1
    70    27    28   ar
    71    75    76    1
    72    55    53   ar
    73    44    45   ar
    74    44    43    1
    75    67    66   ar
    76    52    53   ar
    77    52    51    1
    78    23    24    1
    79     5     2    1
    80    68    66   ar
    81    37    35   ar
    82    51    48    1
    83    25    24    2
    84    43    42    1
    85    66    65    1
    86     4     3    2
    87     3     2    1
    88     2     1    1
    89    35    36   ar
    90    35    34    1
    91    48    47    1
    92    48    49    1
    93    65    62    1
    94    42    39    1
    95    38    39    1
    96    39    40    1
    97    49    61   am
    98    49    50    2
    99    61    62    1
   100    34    31    1
   101    62    63    1
   102    31    32    1
   103    31    30    1
   104    40    41    2
   105    63    64    2
   106    32    33    2
