@<TRIPOS>MOLECULE
tmp/5gzlB01.pdb
 94 89 0 0 0
SMALL
GASTEIGER

@<TRIPOS>ATOM
      1  N         44.5340   20.2950   81.4790 N.3    53  ARG53      -0.1231
      2  CA        45.0580   21.6520   81.2920 C.3    53  ARG53       0.1694
      3  C         46.1140   21.5980   80.1900 C.2    53  ARG53       0.2593
      4  O         46.6900   20.5070   79.8890 O.2    53  ARG53      -0.2718
      5  CB        45.6600   22.1470   82.6080 C.3    53  ARG53       0.0321
      6  CG        46.8790   21.3860   83.1200 C.3    53  ARG53       0.0489
      7  CD        47.0800   21.5790   84.6210 C.3    53  ARG53       0.2205
      8  NE        47.7360   22.7930   84.9700 N.pl3  53  ARG53      -0.0865
      9  CZ        47.6480   23.4710   86.1400 C.cat  53  ARG53       0.5346
     10  NH1       46.8530   23.0880   87.1060 N.pl3  53  ARG53       0.1354
     11  NH2       48.3870   24.5920   86.3230 N.pl3  53  ARG53       0.1354
     12  N         46.3730   22.7330   79.5740 N.am   54  GLY54      -0.1942
     13  CA        47.4740   22.8380   78.6140 C.3    54  GLY54       0.2017
     14  C         48.3910   24.0170   78.8580 C.2    54  GLY54       0.2678
     15  O         48.0710   24.9290   79.6650 O.2    54  GLY54      -0.2710
     16  N         49.5520   24.0160   78.1920 N.am   55  GLY55      -0.1729
     17  CA        50.4690   25.1280   78.3890 C.2    55  GLY55       0.1340
     18  C         51.6050   25.2000   77.4050 C.2    55  GLY55       0.2521
     19  O         51.8900   24.2390   76.6270 O.2    55  GLY55      -0.2816
     20  N         55.6030   25.7380   77.6380 N.3    57  GLU57      -0.1245
     21  CA        56.7870   25.6600   78.4340 C.3    57  GLU57       0.1567
     22  C         57.7650   26.7750   77.9690 C.2    57  GLU57       0.2260
     23  O         57.8120   27.1100   76.7770 O.2    57  GLU57      -0.2867
     24  CB        57.4220   24.2610   78.2470 C.3    57  GLU57       0.0388
     25  CG        56.6010   23.1630   78.8830 C.3    57  GLU57       0.1160
     26  CD        55.5440   22.5760   77.9680 C.2    57  GLU57       0.3649
     27  OE1       55.3370   23.0980   76.8460 O.co2  57  GLU57      -0.2457
     28  OE2       54.9220   21.5820   78.3730 O.co2  57  GLU57      -0.2457
     29  N         56.3240   27.2590   82.9040 N.3    65  ILE65      -0.1245
     30  CA        55.2570   26.9410   81.9760 C.3    65  ILE65       0.1561
     31  C         54.1530   27.9280   82.2250 C.2    65  ILE65       0.2260
     32  O         53.8830   28.2660   83.3920 O.2    65  ILE65      -0.2867
     33  CB        54.7550   25.4660   82.1500 C.3    65  ILE65       0.0252
     34  CG1       53.6530   25.1200   81.1370 C.3    65  ILE65       0.0019
     35  CG2       54.2450   25.2530   83.5870 C.3    65  ILE65       0.0019
     36  CD1       53.3610   23.6310   81.0520 C.3    65  ILE65       0.0001
     37  N         50.0990   28.3360   81.5040 N.3    67  GLU67      -0.1231
     38  CA        49.0030   27.4390   81.2110 C.3    67  GLU67       0.1699
     39  C         47.6190   28.0140   81.1490 C.2    67  GLU67       0.2592
     40  O         47.3120   29.0450   81.7350 O.2    67  GLU67      -0.2718
     41  CB        48.9620   26.3270   82.2480 C.3    67  GLU67       0.0402
     42  CG        50.2700   25.5200   82.3000 C.3    67  GLU67       0.1161
     43  CD        50.2420   24.4720   83.3980 C.2    67  GLU67       0.3649
     44  OE1       50.6100   24.7310   84.5570 O.co2  67  GLU67      -0.2457
     45  OE2       49.8420   23.3710   83.0800 O.co2  67  GLU67      -0.2457
     46  N         46.7690   27.2850   80.4290 N.am   68  TRP68      -0.1976
     47  CA        45.3410   27.6410   80.3200 C.3    68  TRP68       0.1640
     48  C         44.5400   26.4560   80.8830 C.2    68  TRP68       0.2290
     49  O         44.9020   25.2940   80.6740 O.2    68  TRP68      -0.2864
     50  CB        44.9290   27.9490   78.8470 C.3    68  TRP68       0.0576
     51  CG        45.3830   26.9320   77.8890 C.ar   68  TRP68       0.0006
     52  CD1       44.7000   25.8500   77.4670 C.ar   68  TRP68       0.0946
     53  CD2       46.6030   26.9450   77.1430 C.ar   68  TRP68       0.0152
     54  NE1       45.4550   25.1190   76.6040 N.ar   68  TRP68      -0.2442
     55  CE2       46.6260   25.7930   76.3670 C.ar   68  TRP68       0.0810
     56  CE3       47.7100   27.7610   77.1430 C.ar   68  TRP68       0.0012
     57  CZ2       47.7150   25.4420   75.5750 C.ar   68  TRP68       0.0191
     58  CZ3       48.7920   27.4070   76.3540 C.ar   68  TRP68       0.0001
     59  CH2       48.7780   26.2730   75.5750 C.ar   68  TRP68       0.0015
     60  N         54.0760   21.2400   87.6550 N.3   240  ASP240     -0.1239
     61  CA        54.2350   22.2060   86.6040 C.3   240  ASP240      0.1674
     62  C         54.5990   21.5100   85.2980 C.2   240  ASP240      0.2266
     63  O         53.7160   21.2010   84.4820 O.2   240  ASP240     -0.2867
     64  CB        55.2500   23.3160   87.0650 C.3   240  ASP240      0.1410
     65  CG        56.4680   22.7630   87.8660 C.2   240  ASP240      0.3668
     66  OD1       57.4170   22.2040   87.2180 O.co2 240  ASP240     -0.2456
     67  OD2       56.5240   22.9810   89.1190 O.co2 240  ASP240     -0.2456
     68  N         55.8770   18.5050   82.7860 N.3   242  VAL242     -0.1245
     69  CA        55.9380   17.0890   82.6040 C.3   242  VAL242      0.1561
     70  C         57.3620   16.6760   82.9000 C.2   242  VAL242      0.2260
     71  O         58.2980   17.3420   82.5080 O.2   242  VAL242     -0.2867
     72  CB        55.4540   16.6310   81.2150 C.3   242  VAL242      0.0252
     73  CG1       55.5920   15.0890   81.1370 C.3   242  VAL242      0.0019
     74  CG2       54.0070   17.0690   80.9970 C.3   242  VAL242      0.0019
     75  N         49.9550   12.1580   83.9830 N.3   267  ARG267     -0.1231
     76  CA        50.8210   12.9050   83.0840 C.3   267  ARG267      0.1694
     77  C         51.8160   13.8050   83.8090 C.2   267  ARG267      0.2591
     78  O         52.9000   13.9670   83.3510 O.2   267  ARG267     -0.2718
     79  CB        49.9570   13.8140   82.1970 C.3   267  ARG267      0.0321
     80  CG        50.6950   14.5400   81.0690 C.3   267  ARG267      0.0489
     81  CD        49.7490   15.3260   80.1800 C.3   267  ARG267      0.2205
     82  NE        49.0590   16.3360   80.9570 N.pl3 267  ARG267     -0.0865
     83  CZ        48.2770   17.2890   80.4420 C.cat 267  ARG267      0.5346
     84  NH1       48.0390   17.3170   79.1240 N.pl3 267  ARG267      0.1354
     85  NH2       47.6810   18.1880   81.2520 N.pl3 267  ARG267      0.1354
     86  N         51.4040   14.4590   84.8900 N.am  268  GLU268     -0.1979
     87  CA        52.2500   15.4740   85.4940 C.3   268  GLU268      0.1602
     88  C         52.3370   15.5000   87.0240 C.2   268  GLU268      0.2287
     89  O         52.9800   16.4170   87.5660 O.2   268  GLU268     -0.2864
     90  CB        51.8280   16.8710   85.0170 C.3   268  GLU268      0.0415
     91  CG        50.4270   17.2860   85.4350 C.3   268  GLU268      0.1163
     92  CD        49.7560   18.1840   84.3960 C.2   268  GLU268      0.3649
     93  OE1       49.5010   17.7620   83.2500 O.co2 268  GLU268     -0.2457
     94  OE2       49.4940   19.3270   84.7510 O.co2 268  GLU268     -0.2457
@<TRIPOS>BOND
     1    57    59   ar
     2    57    55   ar
     3    59    58   ar
     4    58    56   ar
     5    55    54   ar
     6    55    53   ar
     7    54    52   ar
     8    19    18    2
     9    23    22    2
    10    27    26   ar
    11    53    56   ar
    12    53    51   ar
    13    18    17    1
    14    52    51   ar
    15    20    21    1
    16    51    50    1
    17    26    28   ar
    18    26    25    1
    19    22    21    1
    20    16    17    2
    21    16    14    1
    22    24    21    1
    23    24    25    1
    24    13    14    1
    25    13    12    1
    26    50    47    1
    27    14    15    2
    28    84    83    1
    29    12     3   am
    30     4     3    2
    31    81    82    1
    32    81    80    1
    33     3     2    1
    34    47    46    1
    35    47    48    1
    36    46    39   am
    37    83    82    2
    38    83    85    1
    39    49    48    2
    40    74    72    1
    41    36    34    1
    42    80    79    1
    43    34    33    1
    44    73    72    1
    45    39    38    1
    46    39    40    2
    47    38    37    1
    48    38    41    1
    49    72    69    1
    50     2     1    1
    51     2     5    1
    52    30    33    1
    53    30    31    1
    54    30    29    1
    55    33    35    1
    56    79    76    1
    57    31    32    2
    58    41    42    1
    59    42    43    1
    60    71    70    2
    61    69    68    1
    62    69    70    1
    63     5     6    1
    64    45    43   ar
    65    76    77    1
    66    76    75    1
    67     6     7    1
    68    93    92   ar
    69    78    77    2
    70    43    44   ar
    71    77    86   am
    72    92    94   ar
    73    92    91    1
    74    63    62    2
    75     7     8    1
    76    86    87    1
    77     8     9    2
    78    90    91    1
    79    90    87    1
    80    62    61    1
    81    87    88    1
    82     9    11    1
    83     9    10    1
    84    61    64    1
    85    61    60    1
    86    88    89    2
    87    64    65    1
    88    66    65   ar
    89    65    67   ar
