@<TRIPOS>MOLECULE
tmp/5gzpB00.pdb
 97 91 0 0 0
SMALL
GASTEIGER

@<TRIPOS>ATOM
      1  N          3.6530  -10.3390  -33.1200 N.3     9  ASN9       -0.1240
      2  CA         4.1730   -9.7590  -31.9380 C.3     9  ASN9        0.1653
      3  C          3.0970   -8.8730  -31.3760 C.2     9  ASN9        0.2266
      4  O          2.8310   -7.8000  -31.9500 O.2     9  ASN9       -0.2867
      5  CB         5.3980   -8.9290  -32.2750 C.3     9  ASN9        0.1155
      6  CG         6.1220   -8.4480  -31.0230 C.2     9  ASN9        0.2627
      7  OD1        5.9890   -9.0550  -29.9230 O.2     9  ASN9       -0.2716
      8  ND2        6.9260   -7.3460  -31.1830 N.am    9  ASN9       -0.0877
      9  N          1.9570   -6.4740  -28.8120 N.3    11  LYS11      -0.1245
     10  CA         2.8070   -5.6270  -27.9460 C.3    11  LYS11       0.1561
     11  C          1.9250   -4.8310  -26.9550 C.2    11  LYS11       0.2260
     12  O          1.1480   -3.9610  -27.3610 O.2    11  LYS11      -0.2867
     13  CB         3.6390   -4.6370  -28.7680 C.3    11  LYS11       0.0271
     14  CG         4.7250   -5.2140  -29.6660 C.3    11  LYS11       0.0035
     15  CD         5.5280   -4.0850  -30.3460 C.3    11  LYS11       0.0206
     16  CE         4.7100   -3.3960  -31.4250 C.3    11  LYS11       0.1093
     17  NZ         5.5260   -2.7760  -32.4820 N.3    11  LYS11      -0.1314
     18  N         14.8820   -6.3860  -29.4830 N.3    94  HIS94      -0.1241
     19  CA        13.8200   -5.6580  -30.0800 C.3    94  HIS94       0.1621
     20  C         13.8530   -4.1800  -29.6600 C.2    94  HIS94       0.2264
     21  O         14.3270   -3.8570  -28.5980 O.2    94  HIS94      -0.2867
     22  CB        12.4980   -6.3390  -29.6700 C.3    94  HIS94       0.0745
     23  CG        11.3690   -6.0290  -30.5860 C.ar   94  HIS94       0.0817
     24  ND1       10.3890   -5.1190  -30.2850 N.ar   94  HIS94      -0.2268
     25  CD2       11.0900   -6.4950  -31.8250 C.ar   94  HIS94       0.1154
     26  CE1        9.5380   -5.0570  -31.2870 C.ar   94  HIS94       0.1986
     27  NE2        9.9500   -5.8780  -32.2320 N.ar   94  HIS94      -0.2212
     28  N         14.6420   -4.8280  -38.7030 N.3   164  GLU164     -0.1245
     29  CA        13.5400   -3.8700  -38.4880 C.3   164  GLU164      0.1567
     30  C         14.1090   -2.4170  -38.3500 C.2   164  GLU164      0.2260
     31  O         14.5200   -1.9850  -37.2230 O.2   164  GLU164     -0.2867
     32  CB        12.7500   -4.2010  -37.2360 C.3   164  GLU164      0.0388
     33  CG        12.3070   -5.5930  -37.1280 C.3   164  GLU164      0.1160
     34  CD        11.2650   -5.7400  -36.0520 C.2   164  GLU164      0.3649
     35  OE1       11.6560   -5.8140  -34.8440 O.co2 164  GLU164     -0.2457
     36  OE2       10.0660   -5.7970  -36.4470 O.co2 164  GLU164     -0.2457
     37  N          8.9240    0.8240  -37.5530 N.3   169  ILE169     -0.1231
     38  CA         8.2540    0.0330  -36.5420 C.3   169  ILE169      0.1692
     39  C          7.1340    0.8020  -35.9240 C.2   169  ILE169      0.2592
     40  O          7.3720    1.7400  -35.2150 O.2   169  ILE169     -0.2718
     41  CB         9.1850   -0.3890  -35.4010 C.3   169  ILE169      0.0266
     42  CG1       10.2840   -1.3190  -35.9030 C.3   169  ILE169      0.0019
     43  CG2        8.4180   -1.2170  -34.3430 C.3   169  ILE169      0.0020
     44  CD1       11.3300   -1.6140  -34.8430 C.3   169  ILE169      0.0001
     45  N          5.9030    0.3590  -36.1120 N.am  170  GLY170     -0.1957
     46  CA         4.7830    1.0050  -35.5120 C.3   170  GLY170      0.1869
     47  C          4.3860    2.3280  -36.1420 C.2   170  GLY170      0.2309
     48  O          3.4720    2.9390  -35.6450 O.2   170  GLY170     -0.2863
     49  N          8.5490   -4.1160  -39.7050 N.3   209  GLY209     -0.1210
     50  CA         8.4140   -2.6740  -39.7240 C.3   209  GLY209      0.1956
     51  C          7.2300   -2.3290  -40.5910 C.2   209  GLY209      0.2613
     52  O          7.3740   -2.0880  -41.7860 O.2   209  GLY209     -0.2717
     53  N          6.0620   -2.2920  -39.9650 N.am  210  SER210     -0.1938
     54  CA         4.8180   -2.0100  -40.6540 C.3   210  SER210      0.2055
     55  C          4.5560   -2.8950  -41.8810 C.2   210  SER210      0.2642
     56  O          4.0980   -2.4330  -42.9360 O.2   210  SER210     -0.2714
     57  CB         4.7070   -0.4950  -41.0010 C.3   210  SER210      0.2130
     58  OG         4.8380    0.2890  -39.8080 O.3   210  SER210     -0.2179
     59  N          4.8070   -4.2000  -41.6990 N.am  211  VAL211     -0.1977
     60  CA         4.3490   -5.1750  -42.6580 C.3   211  VAL211      0.1596
     61  C          2.8100   -5.2730  -42.5410 C.2   211  VAL211      0.2287
     62  O          2.2840   -5.3120  -41.4190 O.2   211  VAL211     -0.2864
     63  CB         4.9990   -6.5590  -42.3720 C.3   211  VAL211      0.0276
     64  CG1        4.2540   -7.6190  -43.1240 C.3   211  VAL211      0.0022
     65  CG2        6.5290   -6.6030  -42.6550 C.3   211  VAL211      0.0022
     66  N          8.3950  -10.2570  -38.9700 N.3   229  LEU229     -0.1231
     67  CA         7.9240  -10.0190  -37.6160 C.3   229  LEU229      0.1693
     68  C          6.8680   -8.8860  -37.6850 C.2   229  LEU229      0.2592
     69  O          7.1730   -7.8010  -38.1330 O.2   229  LEU229     -0.2718
     70  CB         9.0570   -9.6070  -36.7410 C.3   229  LEU229      0.0284
     71  CG         8.6620   -9.4700  -35.2660 C.3   229  LEU229      0.0019
     72  CD1        8.0860  -10.7560  -34.6690 C.3   229  LEU229      0.0001
     73  CD2        9.9230   -9.0570  -34.4980 C.3   229  LEU229      0.0001
     74  N          5.6590   -9.1850  -37.2700 N.am  230  VAL230     -0.1966
     75  CA         4.5000   -8.3670  -37.5220 C.3   230  VAL230      0.1727
     76  C          3.8280   -7.9220  -36.2480 C.2   230  VAL230      0.2617
     77  O          3.3760   -8.7490  -35.4250 O.2   230  VAL230     -0.2715
     78  CB         3.4790   -9.0830  -38.3850 C.3   230  VAL230      0.0290
     79  CG1        2.3610   -8.1210  -38.7560 C.3   230  VAL230      0.0023
     80  CG2        4.1660   -9.5700  -39.6460 C.3   230  VAL230      0.0023
     81  N          3.7720   -6.5980  -36.0980 N.am  231  GLY231     -0.1940
     82  CA         3.2130   -5.9950  -34.8960 C.3   231  GLY231      0.2014
     83  C          1.7440   -5.6680  -35.0330 C.2   231  GLY231      0.2639
     84  O          0.8270   -6.5340  -34.8200 O.2   231  GLY231     -0.2714
     85  N          1.4750   -4.4180  -35.3890 N.am  232  ASN232     -0.1958
     86  CA         0.0700   -3.9390  -35.5040 C.3   232  ASN232      0.1819
     87  C         -0.8260   -4.8030  -36.3560 C.2   232  ASN232      0.2621
     88  O         -1.9740   -5.1200  -35.9990 O.2   232  ASN232     -0.2715
     89  CB         0.0420   -2.4930  -35.9860 C.3   232  ASN232      0.1195
     90  CG        -1.2630   -1.7970  -35.6600 C.2   232  ASN232      0.2630
     91  OD1       -2.2810   -2.0560  -36.2850 O.2   232  ASN232     -0.2716
     92  ND2       -1.2480   -0.9640  -34.6330 N.am  232  ASN232     -0.0877
     93  N         -0.3230   -5.2040  -37.5030 N.am  233  ALA233     -0.1977
     94  CA        -1.1270   -6.0090  -38.3740 C.3   233  ALA233      0.1597
     95  C         -1.4310   -7.3620  -37.7910 C.2   233  ALA233      0.2287
     96  O         -2.3370   -8.0490  -38.2910 O.2   233  ALA233     -0.2864
     97  CB        -0.4870   -6.1220  -39.7150 C.3   233  ALA233      0.0319
@<TRIPOS>BOND
     1    64    63    1
     2    56    55    2
     3    60    61    1
     4    60    63    1
     5    60    59    1
     6    65    63    1
     7    61    62    2
     8    55    59   am
     9    55    54    1
    10    52    51    2
    11    57    54    1
    12    57    58    1
    13    54    53    1
    14    51    53   am
    15    51    50    1
    16    50    49    1
    17    97    94    1
    18    80    78    1
    19    66    67    1
    20    79    78    1
    21    28    29    1
    22    29    30    1
    23    29    32    1
    24    78    75    1
    25    94    95    1
    26    94    93    1
    27    30    31    2
    28    96    95    2
    29    69    68    2
    30    68    67    1
    31    68    74   am
    32    67    70    1
    33    37    38    1
    34    75    74    1
    35    75    76    1
    36    93    87   am
    37    32    33    1
    38    33    34    1
    39    70    71    1
    40    38    39    1
    41    38    41    1
    42    36    34   ar
    43    87    88    2
    44    87    86    1
    45    91    90    2
    46    76    81   am
    47    76    77    2
    48    47    48    2
    49    47    46    1
    50    45    39   am
    51    45    46    1
    52    81    82    1
    53    34    35   ar
    54    89    90    1
    55    89    86    1
    56    39    40    2
    57    42    41    1
    58    42    44    1
    59    90    92   am
    60    86    85    1
    61    41    43    1
    62    85    83   am
    63    71    72    1
    64    71    73    1
    65    83    82    1
    66    83    84    2
    67     1     2    1
    68    17    16    1
    69     5     2    1
    70     5     6    1
    71    27    25   ar
    72    27    26   ar
    73     4     3    2
    74     2     3    1
    75    25    23   ar
    76    16    15    1
    77    26    24   ar
    78     8     6   am
    79     6     7    2
    80    23    24   ar
    81    23    22    1
    82    15    14    1
    83    19    22    1
    84    19    20    1
    85    19    18    1
    86    14    13    1
    87    20    21    2
    88     9    10    1
    89    13    10    1
    90    10    11    1
    91    12    11    2
