@<TRIPOS>MOLECULE
tmp/5gzsA00.pdb
 138 129 0 0 0
SMALL
GASTEIGER

@<TRIPOS>ATOM
      1  N         36.2020   32.8850   -1.6550 N.3     9  GLU9       -0.1245
      2  CA        36.9040   33.7050   -2.6360 C.3     9  GLU9        0.1567
      3  C         35.9220   34.5570   -3.4410 C.2     9  GLU9        0.2260
      4  O         35.0690   34.0300   -4.1550 O.2     9  GLU9       -0.2867
      5  CB        37.7330   32.8270   -3.5740 C.3     9  GLU9        0.0388
      6  CG        38.8720   33.5600   -4.2640 C.3     9  GLU9        0.1160
      7  CD        39.0050   33.1850   -5.7270 C.2     9  GLU9        0.3649
      8  OE1       39.5190   34.0120   -6.5100 O.co2   9  GLU9       -0.2457
      9  OE2       38.5940   32.0640   -6.0950 O.co2   9  GLU9       -0.2457
     10  N         31.2090   34.3930   -3.1160 N.3    12  ASP12      -0.1239
     11  CA        31.0870   32.9630   -3.0540 C.3    12  ASP12       0.1674
     12  C         29.7010   32.6050   -2.6250 C.2    12  ASP12       0.2266
     13  O         29.4800   32.2250   -1.5190 O.2    12  ASP12      -0.2867
     14  CB        32.1120   32.4240   -2.0940 C.3    12  ASP12       0.1410
     15  CG        32.4880   31.0410   -2.3890 C.2    12  ASP12       0.3668
     16  OD1       31.6400   30.2970   -2.8450 O.co2  12  ASP12      -0.2456
     17  OD2       33.6260   30.6830   -2.1330 O.co2  12  ASP12      -0.2456
     18  N         41.9380   31.5610   -4.9730 N.3    38  PHE38      -0.1241
     19  CA        41.4980   30.1850   -4.7930 C.3    38  PHE38       0.1605
     20  C         42.6220   29.2750   -4.3130 C.2    38  PHE38       0.2264
     21  O         42.3960   28.2930   -3.6080 O.2    38  PHE38      -0.2867
     22  CB        40.9220   29.6480   -6.0980 C.3    38  PHE38       0.0534
     23  CG        40.8520   28.1530   -6.1630 C.ar   38  PHE38      -0.0203
     24  CD1       39.7930   27.4740   -5.5930 C.ar   38  PHE38      -0.0042
     25  CD2       41.8360   27.4330   -6.8070 C.ar   38  PHE38      -0.0042
     26  CE1       39.7190   26.1170   -5.6700 C.ar   38  PHE38      -0.0003
     27  CE2       41.7700   26.0650   -6.8840 C.ar   38  PHE38      -0.0003
     28  CZ        40.7050   25.4080   -6.3200 C.ar   38  PHE38      -0.0000
     29  N         43.0680   29.5980   -0.7450 N.3    41  ILE41      -0.1245
     30  CA        42.0840   28.7860   -0.0400 C.3    41  ILE41       0.1561
     31  C         42.6270   27.3680    0.1440 C.2    41  ILE41       0.2260
     32  O         42.6310   26.8490    1.2590 O.2    41  ILE41      -0.2867
     33  CB        40.7000   28.7520   -0.7760 C.3    41  ILE41       0.0252
     34  CG1       39.9360   30.0550   -0.5500 C.3    41  ILE41       0.0019
     35  CG2       39.8700   27.5850   -0.3030 C.3    41  ILE41       0.0019
     36  CD1       38.5800   30.0880   -1.2030 C.3    41  ILE41       0.0001
     37  N         34.4050   24.9430    0.0760 N.3    54  ALA54      -0.1231
     38  CA        33.5400   24.3190   -0.9220 C.3    54  ALA54       0.1694
     39  C         34.0910   24.5150   -2.3220 C.2    54  ALA54       0.2592
     40  O         35.1740   25.0760   -2.5090 O.2    54  ALA54      -0.2718
     41  CB        32.1080   24.8820   -0.8350 C.3    54  ALA54       0.0304
     42  N         33.3380   24.0280   -3.2980 N.am   55  ASN55      -0.1960
     43  CA        33.6050   24.2940   -4.7090 C.3    55  ASN55       0.1819
     44  C         34.9720   23.8040   -5.1940 C.2    55  ASN55       0.2621
     45  O         35.4820   24.2660   -6.2160 O.2    55  ASN55      -0.2715
     46  CB        33.4180   25.7840   -4.9740 C.3    55  ASN55       0.1195
     47  CG        32.0820   26.2880   -4.4590 C.2    55  ASN55       0.2630
     48  OD1       31.0270   25.7170   -4.7670 O.2    55  ASN55      -0.2716
     49  ND2       32.1160   27.3460   -3.6570 N.am   55  ASN55      -0.0877
     50  N         35.5360   22.8430   -4.4650 N.am   56  ILE56      -0.1963
     51  CA        36.8170   22.2310   -4.8030 C.3    56  ILE56       0.1727
     52  C         36.6420   20.9830   -5.6490 C.2    56  ILE56       0.2616
     53  O         36.0520   19.9960   -5.1890 O.2    56  ILE56      -0.2715
     54  CB        37.6110   21.8230   -3.5440 C.3    56  ILE56       0.0290
     55  CG1       37.7390   23.0040   -2.5890 C.3    56  ILE56       0.0022
     56  CG2       38.9880   21.2940   -3.9430 C.3    56  ILE56       0.0023
     57  CD1       38.3740   24.1960   -3.2240 C.3    56  ILE56       0.0001
     58  N         37.1670   21.0020   -6.8700 N.am   57  THR57      -0.1951
     59  CA        37.1220   19.7980   -7.6890 C.3    57  THR57       0.1897
     60  C         38.0910   18.7280   -7.1330 C.2    57  THR57       0.2313
     61  O         39.2850   18.9720   -6.9390 O.2    57  THR57      -0.2863
     62  CB        37.4450   20.1040   -9.1530 C.3    57  THR57       0.1794
     63  OG1       36.6390   21.2060   -9.5940 O.3    57  THR57      -0.2208
     64  CG2       37.1460   18.8900  -10.0050 C.3    57  THR57       0.0378
     65  N         45.0140   15.5980   -5.1030 N.3    62  ARG62      -0.1245
     66  CA        44.4070   16.4310   -4.0670 C.3    62  ARG62       0.1563
     67  C         43.9650   15.6690   -2.8050 C.2    62  ARG62       0.2260
     68  O         44.0110   16.2140   -1.6970 O.2    62  ARG62      -0.2867
     69  CB        43.2090   17.1910   -4.6420 C.3    62  ARG62       0.0307
     70  CG        43.5810   18.4580   -5.3980 C.3    62  ARG62       0.0489
     71  CD        42.3600   19.0430   -6.0550 C.3    62  ARG62       0.2205
     72  NE        42.6190   20.3410   -6.6650 N.pl3  62  ARG62      -0.0865
     73  CZ        41.6550   21.1490   -7.0950 C.cat  62  ARG62       0.5346
     74  NH1       40.3980   20.7720   -6.9700 N.pl3  62  ARG62       0.1354
     75  NH2       41.9380   22.3270   -7.6390 N.pl3  62  ARG62       0.1354
     76  N         29.2460   23.6240  -10.2700 N.3    75  GLU75      -0.1245
     77  CA        29.8830   24.9150  -10.1270 C.3    75  GLU75       0.1567
     78  C         29.7220   25.6820  -11.4430 C.2    75  GLU75       0.2260
     79  O         30.2310   25.2640  -12.4850 O.2    75  GLU75      -0.2867
     80  CB        31.3510   24.7260   -9.7550 C.3    75  GLU75       0.0388
     81  CG        32.1620   25.9810   -9.5580 C.3    75  GLU75       0.1160
     82  CD        33.6430   25.6450   -9.4030 C.2    75  GLU75       0.3649
     83  OE1       34.1330   24.8170  -10.2170 O.co2  75  GLU75      -0.2457
     84  OE2       34.3110   26.1960   -8.4860 O.co2  75  GLU75      -0.2457
     85  N         43.6160   25.6940  -10.0480 N.3    99  THR99      -0.1203
     86  CA        42.3160   25.1500  -10.4180 C.3    99  THR99       0.1994
     87  C         42.4390   23.9980  -11.3840 C.2    99  THR99       0.2619
     88  O         43.4910   23.7410  -11.9590 O.2    99  THR99      -0.2717
     89  CB        41.3760   26.1940  -11.0700 C.3    99  THR99       0.1784
     90  OG1       41.9230   26.6240  -12.3240 O.3    99  THR99      -0.2211
     91  CG2       41.1410   27.3770  -10.1440 C.3    99  THR99       0.0376
     92  N         41.3160   23.3270  -11.5550 N.am  100  THR100     -0.1938
     93  CA        41.1790   22.2270  -12.4710 C.3   100  THR100      0.2028
     94  C         41.1410   22.7400  -13.9190 C.2   100  THR100      0.2642
     95  O         41.2620   21.9600  -14.8690 O.2   100  THR100     -0.2714
     96  CB        39.9020   21.4320  -12.1300 C.3   100  THR100      0.1808
     97  OG1       40.0320   20.0790  -12.5720 O.3   100  THR100     -0.2208
     98  CG2       38.6730   22.0810  -12.7520 C.3   100  THR100      0.0379
     99  N         41.0140   24.0590  -14.0710 N.am  101  TYR101     -0.1973
    100  CA        40.8020   24.6850  -15.3810 C.3   101  TYR101      0.1639
    101  C         42.0080   24.6380  -16.3210 C.2   101  TYR101      0.2290
    102  O         41.8550   24.7450  -17.5480 O.2   101  TYR101     -0.2864
    103  CB        40.3660   26.1410  -15.1960 C.3   101  TYR101      0.0560
    104  CG        39.0360   26.2930  -14.4700 C.ar  101  TYR101     -0.0198
    105  CD1       38.1200   25.2520  -14.4370 C.ar  101  TYR101     -0.0009
    106  CD2       38.6940   27.4900  -13.8360 C.ar  101  TYR101     -0.0009
    107  CE1       36.8960   25.3870  -13.7790 C.ar  101  TYR101      0.0417
    108  CE2       37.4760   27.6360  -13.1720 C.ar  101  TYR101      0.0417
    109  CZ        36.5760   26.5810  -13.1450 C.ar  101  TYR101      0.1957
    110  OH        35.3530   26.7240  -12.4960 O.3   101  TYR101     -0.2866
    111  N         36.7810   31.3610  -15.2900 N.3   137  ASP137     -0.1225
    112  CA        36.6820   31.2660  -13.8350 C.3   137  ASP137      0.1805
    113  C         35.2560   31.0250  -13.3330 C.2   137  ASP137      0.2597
    114  O         34.2780   31.0950  -14.0940 O.2   137  ASP137     -0.2718
    115  CB        37.2480   32.5280  -13.1930 C.3   137  ASP137      0.1424
    116  CG        37.8420   32.2720  -11.8070 C.2   137  ASP137      0.3668
    117  OD1       37.7180   31.1390  -11.2760 O.co2 137  ASP137     -0.2456
    118  OD2       38.4280   33.2220  -11.2440 O.co2 137  ASP137     -0.2456
    119  N         35.1450   30.7450  -12.0390 N.am  138  ALA138     -0.1979
    120  CA        33.8740   30.3350  -11.4310 C.3   138  ALA138      0.1597
    121  C         32.9240   31.4940  -11.1630 C.2   138  ALA138      0.2287
    122  O         33.2550   32.6540  -11.3850 O.2   138  ALA138     -0.2864
    123  CB        34.1350   29.6010  -10.1520 C.3   138  ALA138      0.0319
    124  N         32.1760   32.8400   -8.5200 N.3   140  ASN140     -0.1240
    125  CA        32.8090   33.8230   -7.6220 C.3   140  ASN140      0.1653
    126  C         33.1580   35.1500   -8.2900 C.2   140  ASN140      0.2266
    127  O         33.1070   36.2210   -7.6720 O.2   140  ASN140     -0.2867
    128  CB        34.0730   33.2290   -7.0260 C.3   140  ASN140      0.1155
    129  CG        33.8120   31.9130   -6.3240 C.2   140  ASN140      0.2627
    130  OD1       33.4540   30.9150   -6.9590 O.2   140  ASN140     -0.2716
    131  ND2       33.9830   31.9040   -5.0100 N.am  140  ASN140     -0.0877
    132  N         31.5910   19.1330   -7.9830 N.3   163  VAL163     -0.1245
    133  CA        32.4440   19.8560   -7.0520 C.3   163  VAL163      0.1561
    134  C         32.1460   19.4180   -5.6080 C.2   163  VAL163      0.2260
    135  O         31.0460   18.9450   -5.3230 O.2   163  VAL163     -0.2867
    136  CB        32.2400   21.3790   -7.3000 C.3   163  VAL163      0.0252
    137  CG1       32.9780   22.2270   -6.3200 C.3   163  VAL163      0.0019
    138  CG2       32.6000   21.7330   -8.7230 C.3   163  VAL163      0.0019
@<TRIPOS>BOND
     1   102   101    2
     2   101   100    1
     3   100   103    1
     4   100    99    1
     5   111   112    1
     6   103   104    1
     7    95    94    2
     8   104   105   ar
     9   104   106   ar
    10   105   107   ar
    11   114   113    2
    12    99    94   am
    13    94    93    1
    14   106   108   ar
    15   112   113    1
    16   112   115    1
    17   107   109   ar
    18   113   119   am
    19   115   116    1
    20   108   109   ar
    21   109   110    1
    22    98    96    1
    23    97    96    1
    24    79    78    2
    25    93    96    1
    26    93    92    1
    27    90    89    1
    28   119   120    1
    29    88    87    2
    30   116   117   ar
    31   116   118   ar
    32    92    87   am
    33    78    77    1
    34   120   121    1
    35   120   123    1
    36   122   121    2
    37    87    86    1
    38    89    86    1
    39    89    91    1
    40    86    85    1
    41    76    77    1
    42    83    82   ar
    43    77    80    1
    44    64    62    1
    45    80    81    1
    46    63    62    1
    47    81    82    1
    48    82    84   ar
    49    62    59    1
    50   138   136    1
    51   124   125    1
    52   126   127    2
    53   126   125    1
    54   132   133    1
    55    59    60    1
    56    59    58    1
    57    75    73    1
    58   125   128    1
    59   136   133    1
    60   136   137    1
    61    60    61    2
    62    73    74    1
    63    73    72    2
    64   133   134    1
    65   128   129    1
    66   130   129    2
    67    27    25   ar
    68    27    28   ar
    69    58    52   am
    70    25    23   ar
    71    72    71    1
    72     8     7   ar
    73   129   131   am
    74    28    26   ar
    75    45    44    2
    76    23    22    1
    77    23    24   ar
    78    22    19    1
    79     9     7   ar
    80    71    70    1
    81     7     6    1
    82    26    24   ar
    83    52    53    2
    84    52    51    1
    85   134   135    2
    86    70    69    1
    87    44    43    1
    88    44    50   am
    89    65    66    1
    90    46    43    1
    91    46    47    1
    92    18    19    1
    93    51    50    1
    94    51    54    1
    95    19    20    1
    96    48    47    2
    97    43    42    1
    98    69    66    1
    99    47    49   am
   100    20    21    2
   101     6     5    1
   102     4     3    2
   103    66    67    1
   104    56    54    1
   105     5     2    1
   106    54    55    1
   107     3     2    1
   108    42    39   am
   109    57    55    1
   110    10    11    1
   111    11    12    1
   112    11    14    1
   113    16    15   ar
   114    67    68    2
   115     2     1    1
   116    12    13    2
   117    40    39    2
   118    15    17   ar
   119    15    14    1
   120    39    38    1
   121    36    34    1
   122    38    41    1
   123    38    37    1
   124    33    34    1
   125    33    35    1
   126    33    30    1
   127    29    30    1
   128    30    31    1
   129    31    32    2
